MODEL 1
REMARK VINA RESULT:      -6.1      0.000      0.000
REMARK  8 active torsions:
REMARK  status: ('A' for Active; 'I' for Inactive)
REMARK    1  A    between atoms: C_2  and  N_3 
REMARK    2  A    between atoms: C_2  and  C_15 
REMARK    3  A    between atoms: N_3  and  C_4 
REMARK    4  A    between atoms: C_4  and  C_5 
REMARK    5  A    between atoms: C_5  and  O_6 
REMARK    6  A    between atoms: C_5  and  C_7 
REMARK    7  A    between atoms: C_7  and  N_8 
REMARK    8  A    between atoms: C_15  and  N_17 
ROOT
HETATM    1  N   UNL     1     -40.814 -50.436  11.033  1.00  0.00     0.092 N 
HETATM    2  H   UNL     1     -39.999 -50.785  10.522  1.00  0.00     0.316 HD
ENDROOT
BRANCH   1   3
HETATM    3  C   UNL     1     -40.839 -48.966  10.999  1.00  0.00     0.240 C 
HETATM    4  C   UNL     1     -39.651 -48.410  11.796  1.00  0.00     0.045 C 
BRANCH   3   5
HETATM    5  C   UNL     1     -42.193 -48.302  11.394  1.00  0.00     0.136 C 
HETATM    6  C   UNL     1     -42.000 -47.039  12.244  1.00  0.00     0.036 C 
BRANCH   5   7
HETATM    7  N   UNL     1     -43.029 -47.982  10.233  1.00  0.00    -0.297 N 
HETATM    8  C   UNL     1     -44.281 -47.427  10.268  1.00  0.00     0.112 A 
HETATM    9  C   UNL     1     -44.644 -47.214   8.957  1.00  0.00     0.037 A 
HETATM   10  C   UNL     1     -43.542 -47.658   8.208  1.00  0.00     0.108 A 
HETATM   11  N   UNL     1     -42.546 -48.105   8.975  1.00  0.00    -0.310 N 
ATOM     12  HN  UNL     1     -41.634 -48.457   8.682  1.00  0.00     0.186 HD
ENDBRANCH   5   7
ENDBRANCH   3   5
ENDBRANCH   1   3
BRANCH   1  13
HETATM   13  C   UNL     1     -40.826 -51.095  12.348  1.00  0.00     0.303 C 
BRANCH  13  14
HETATM   14  C   UNL     1     -41.487 -52.474  12.132  1.00  0.00     0.174 C 
BRANCH  14  15
HETATM   15  O   UNL     1     -40.625 -53.229  11.253  1.00  0.00    -0.392 OA
HETATM   16  H   UNL     1     -40.952 -54.143  11.247  1.00  0.00     0.210 HD
ENDBRANCH  14  15
BRANCH  14  17
HETATM   17  C   UNL     1     -41.732 -53.291  13.418  1.00  0.00     0.305 C 
BRANCH  17  18
HETATM   18  N   UNL     1     -42.864 -54.228  13.447  1.00  0.00     0.094 N 
HETATM   19  C   UNL     1     -44.069 -53.592  12.873  1.00  0.00     0.302 C 
HETATM   20  C   UNL     1     -44.881 -52.746  13.878  1.00  0.00     0.302 C 
HETATM   21  N   UNL     1     -45.342 -53.509  15.048  1.00  0.00     0.087 N 
HETATM   22  C   UNL     1     -46.329 -54.522  14.670  1.00  0.00     0.310 C 
HETATM   23  C   UNL     1     -44.166 -54.116  15.701  1.00  0.00     0.302 C 
HETATM   24  C   UNL     1     -43.164 -54.840  14.759  1.00  0.00     0.302 C 
ENDBRANCH  17  18
ENDBRANCH  14  17
ENDBRANCH  13  14
ENDBRANCH   1  13
TORSDOF 8
ENDMDL
MODEL 2
REMARK VINA RESULT:      -5.8      1.665      2.330
REMARK  8 active torsions:
REMARK  status: ('A' for Active; 'I' for Inactive)
REMARK    1  A    between atoms: C_2  and  N_3 
REMARK    2  A    between atoms: C_2  and  C_15 
REMARK    3  A    between atoms: N_3  and  C_4 
REMARK    4  A    between atoms: C_4  and  C_5 
REMARK    5  A    between atoms: C_5  and  O_6 
REMARK    6  A    between atoms: C_5  and  C_7 
REMARK    7  A    between atoms: C_7  and  N_8 
REMARK    8  A    between atoms: C_15  and  N_17 
ROOT
HETATM    1  N   UNL     1     -39.522 -47.944  11.181  1.00  0.00     0.092 N 
HETATM    2  H   UNL     1     -38.536 -47.702  11.049  1.00  0.00     0.316 HD
ENDROOT
BRANCH   1   3
HETATM    3  C   UNL     1     -40.327 -46.721  11.322  1.00  0.00     0.240 C 
HETATM    4  C   UNL     1     -39.710 -45.817  12.398  1.00  0.00     0.045 C 
BRANCH   3   5
HETATM    5  C   UNL     1     -41.858 -46.936  11.522  1.00  0.00     0.136 C 
HETATM    6  C   UNL     1     -42.481 -45.885  12.452  1.00  0.00     0.036 C 
BRANCH   5   7
HETATM    7  N   UNL     1     -42.597 -46.965  10.258  1.00  0.00    -0.297 N 
HETATM    8  C   UNL     1     -43.248 -45.907   9.679  1.00  0.00     0.112 A 
HETATM    9  C   UNL     1     -43.715 -46.360   8.465  1.00  0.00     0.037 A 
HETATM   10  C   UNL     1     -43.284 -47.695   8.396  1.00  0.00     0.108 A 
HETATM   11  N   UNL     1     -42.584 -48.066   9.470  1.00  0.00    -0.310 N 
ATOM     12  HN  UNL     1     -42.143 -48.967   9.655  1.00  0.00     0.186 HD
ENDBRANCH   5   7
ENDBRANCH   3   5
ENDBRANCH   1   3
BRANCH   1  13
HETATM   13  C   UNL     1     -39.590 -48.942  12.259  1.00  0.00     0.303 C 
BRANCH  13  14
HETATM   14  C   UNL     1     -40.503 -50.074  11.741  1.00  0.00     0.174 C 
BRANCH  14  15
HETATM   15  O   UNL     1     -40.391 -50.088  10.301  1.00  0.00    -0.392 OA
HETATM   16  H   UNL     1     -40.996 -49.410   9.959  1.00  0.00     0.210 HD
ENDBRANCH  14  15
BRANCH  14  17
HETATM   17  C   UNL     1     -40.176 -51.481  12.284  1.00  0.00     0.305 C 
BRANCH  17  18
HETATM   18  N   UNL     1     -41.183 -52.540  12.136  1.00  0.00     0.094 N 
HETATM   19  C   UNL     1     -42.511 -52.048  12.560  1.00  0.00     0.302 C 
HETATM   20  C   UNL     1     -42.773 -52.156  14.078  1.00  0.00     0.302 C 
HETATM   21  N   UNL     1     -42.665 -53.530  14.594  1.00  0.00     0.087 N 
HETATM   22  C   UNL     1     -43.728 -54.386  14.061  1.00  0.00     0.310 C 
HETATM   23  C   UNL     1     -41.328 -54.053  14.253  1.00  0.00     0.302 C 
HETATM   24  C   UNL     1     -40.865 -53.830  12.785  1.00  0.00     0.302 C 
ENDBRANCH  17  18
ENDBRANCH  14  17
ENDBRANCH  13  14
ENDBRANCH   1  13
TORSDOF 8
ENDMDL
MODEL 3
REMARK VINA RESULT:      -5.8      1.726      2.392
REMARK  8 active torsions:
REMARK  status: ('A' for Active; 'I' for Inactive)
REMARK    1  A    between atoms: C_2  and  N_3 
REMARK    2  A    between atoms: C_2  and  C_15 
REMARK    3  A    between atoms: N_3  and  C_4 
REMARK    4  A    between atoms: C_4  and  C_5 
REMARK    5  A    between atoms: C_5  and  O_6 
REMARK    6  A    between atoms: C_5  and  C_7 
REMARK    7  A    between atoms: C_7  and  N_8 
REMARK    8  A    between atoms: C_15  and  N_17 
ROOT
HETATM    1  N   UNL     1     -40.541 -50.175  10.982  1.00  0.00     0.092 N 
HETATM    2  H   UNL     1     -39.912 -50.356  10.194  1.00  0.00     0.316 HD
ENDROOT
BRANCH   1   3
HETATM    3  C   UNL     1     -40.491 -48.752  11.351  1.00  0.00     0.240 C 
HETATM    4  C   UNL     1     -40.543 -48.611  12.878  1.00  0.00     0.045 C 
BRANCH   3   5
HETATM    5  C   UNL     1     -41.515 -47.828  10.625  1.00  0.00     0.136 C 
HETATM    6  C   UNL     1     -42.937 -47.975  11.186  1.00  0.00     0.036 C 
BRANCH   5   7
HETATM    7  N   UNL     1     -41.127 -46.415  10.655  1.00  0.00    -0.297 N 
HETATM    8  C   UNL     1     -41.858 -45.388  11.190  1.00  0.00     0.112 A 
HETATM    9  C   UNL     1     -41.073 -44.261  11.086  1.00  0.00     0.037 A 
HETATM   10  C   UNL     1     -39.883 -44.713  10.490  1.00  0.00     0.108 A 
HETATM   11  N   UNL     1     -39.897 -46.025  10.245  1.00  0.00    -0.310 N 
ATOM     12  HN  UNL     1     -39.155 -46.599   9.844  1.00  0.00     0.186 HD
ENDBRANCH   5   7
ENDBRANCH   3   5
ENDBRANCH   1   3
BRANCH   1  13
HETATM   13  C   UNL     1     -40.238 -51.168  12.024  1.00  0.00     0.303 C 
BRANCH  13  14
HETATM   14  C   UNL     1     -41.317 -52.265  11.899  1.00  0.00     0.174 C 
BRANCH  14  15
HETATM   15  O   UNL     1     -40.647 -53.481  11.503  1.00  0.00    -0.392 OA
HETATM   16  H   UNL     1     -39.698 -53.351  11.664  1.00  0.00     0.210 HD
ENDBRANCH  14  15
BRANCH  14  17
HETATM   17  C   UNL     1     -42.129 -52.535  13.183  1.00  0.00     0.305 C 
BRANCH  17  18
HETATM   18  N   UNL     1     -43.579 -52.303  13.158  1.00  0.00     0.094 N 
HETATM   19  C   UNL     1     -44.074 -52.004  14.519  1.00  0.00     0.302 C 
HETATM   20  C   UNL     1     -44.396 -53.254  15.366  1.00  0.00     0.302 C 
HETATM   21  N   UNL     1     -45.403 -54.135  14.752  1.00  0.00     0.087 N 
HETATM   22  C   UNL     1     -46.715 -53.486  14.694  1.00  0.00     0.310 C 
HETATM   23  C   UNL     1     -44.929 -54.518  13.408  1.00  0.00     0.302 C 
HETATM   24  C   UNL     1     -44.393 -53.360  12.520  1.00  0.00     0.302 C 
ENDBRANCH  17  18
ENDBRANCH  14  17
ENDBRANCH  13  14
ENDBRANCH   1  13
TORSDOF 8
ENDMDL
MODEL 4
REMARK VINA RESULT:      -5.7      2.384      2.975
REMARK  8 active torsions:
REMARK  status: ('A' for Active; 'I' for Inactive)
REMARK    1  A    between atoms: C_2  and  N_3 
REMARK    2  A    between atoms: C_2  and  C_15 
REMARK    3  A    between atoms: N_3  and  C_4 
REMARK    4  A    between atoms: C_4  and  C_5 
REMARK    5  A    between atoms: C_5  and  O_6 
REMARK    6  A    between atoms: C_5  and  C_7 
REMARK    7  A    between atoms: C_7  and  N_8 
REMARK    8  A    between atoms: C_15  and  N_17 
ROOT
HETATM    1  N   UNL     1     -39.822 -50.824  11.378  1.00  0.00     0.092 N 
HETATM    2  H   UNL     1     -39.251 -51.610  11.702  1.00  0.00     0.316 HD
ENDROOT
BRANCH   1   3
HETATM    3  C   UNL     1     -39.034 -49.583  11.405  1.00  0.00     0.240 C 
HETATM    4  C   UNL     1     -37.537 -49.920  11.371  1.00  0.00     0.045 C 
BRANCH   3   5
HETATM    5  C   UNL     1     -39.398 -48.575  12.537  1.00  0.00     0.136 C 
HETATM    6  C   UNL     1     -38.296 -48.463  13.600  1.00  0.00     0.036 C 
BRANCH   5   7
HETATM    7  N   UNL     1     -39.717 -47.238  12.026  1.00  0.00    -0.297 N 
HETATM    8  C   UNL     1     -39.686 -46.072  12.744  1.00  0.00     0.112 A 
HETATM    9  C   UNL     1     -39.958 -45.062  11.848  1.00  0.00     0.037 A 
HETATM   10  C   UNL     1     -40.123 -45.717  10.616  1.00  0.00     0.108 A 
HETATM   11  N   UNL     1     -39.955 -47.037  10.709  1.00  0.00    -0.310 N 
ATOM     12  HN  UNL     1     -39.996 -47.732   9.963  1.00  0.00     0.186 HD
ENDBRANCH   5   7
ENDBRANCH   3   5
ENDBRANCH   1   3
BRANCH   1  13
HETATM   13  C   UNL     1     -41.084 -50.856  12.132  1.00  0.00     0.303 C 
BRANCH  13  14
HETATM   14  C   UNL     1     -41.585 -52.315  12.071  1.00  0.00     0.174 C 
BRANCH  14  15
HETATM   15  O   UNL     1     -40.607 -53.072  11.325  1.00  0.00    -0.392 OA
HETATM   16  H   UNL     1     -39.982 -53.445  11.968  1.00  0.00     0.210 HD
ENDBRANCH  14  15
BRANCH  14  17
HETATM   17  C   UNL     1     -41.804 -52.991  13.441  1.00  0.00     0.305 C 
BRANCH  17  18
HETATM   18  N   UNL     1     -43.049 -52.713  14.169  1.00  0.00     0.094 N 
HETATM   19  C   UNL     1     -43.376 -53.838  15.072  1.00  0.00     0.302 C 
HETATM   20  C   UNL     1     -44.153 -54.988  14.396  1.00  0.00     0.302 C 
HETATM   21  N   UNL     1     -45.429 -54.562  13.798  1.00  0.00     0.087 N 
HETATM   22  C   UNL     1     -46.384 -54.139  14.825  1.00  0.00     0.310 C 
HETATM   23  C   UNL     1     -45.153 -53.477  12.836  1.00  0.00     0.302 C 
HETATM   24  C   UNL     1     -44.216 -52.344  13.340  1.00  0.00     0.302 C 
ENDBRANCH  17  18
ENDBRANCH  14  17
ENDBRANCH  13  14
ENDBRANCH   1  13
TORSDOF 8
ENDMDL
MODEL 5
REMARK VINA RESULT:      -5.6      2.058      3.224
REMARK  8 active torsions:
REMARK  status: ('A' for Active; 'I' for Inactive)
REMARK    1  A    between atoms: C_2  and  N_3 
REMARK    2  A    between atoms: C_2  and  C_15 
REMARK    3  A    between atoms: N_3  and  C_4 
REMARK    4  A    between atoms: C_4  and  C_5 
REMARK    5  A    between atoms: C_5  and  O_6 
REMARK    6  A    between atoms: C_5  and  C_7 
REMARK    7  A    between atoms: C_7  and  N_8 
REMARK    8  A    between atoms: C_15  and  N_17 
ROOT
HETATM    1  N   UNL     1     -39.451 -51.234  13.647  1.00  0.00     0.092 N 
HETATM    2  H   UNL     1     -40.159 -50.735  13.100  1.00  0.00     0.316 HD
ENDROOT
BRANCH   1   3
HETATM    3  C   UNL     1     -38.106 -50.776  13.268  1.00  0.00     0.240 C 
HETATM    4  C   UNL     1     -37.316 -50.392  14.526  1.00  0.00     0.045 C 
BRANCH   3   5
HETATM    5  C   UNL     1     -38.052 -49.676  12.164  1.00  0.00     0.136 C 
HETATM    6  C   UNL     1     -37.255 -50.124  10.930  1.00  0.00     0.036 C 
BRANCH   5   7
HETATM    7  N   UNL     1     -39.382 -49.226  11.744  1.00  0.00    -0.297 N 
HETATM    8  C   UNL     1     -39.998 -48.063  12.125  1.00  0.00     0.112 A 
HETATM    9  C   UNL     1     -41.179 -48.004  11.420  1.00  0.00     0.037 A 
HETATM   10  C   UNL     1     -41.179 -49.166  10.631  1.00  0.00     0.108 A 
HETATM   11  N   UNL     1     -40.080 -49.904  10.804  1.00  0.00    -0.310 N 
ATOM     12  HN  UNL     1     -39.825 -50.774  10.336  1.00  0.00     0.186 HD
ENDBRANCH   5   7
ENDBRANCH   3   5
ENDBRANCH   1   3
BRANCH   1  13
HETATM   13  C   UNL     1     -39.745 -52.671  13.543  1.00  0.00     0.303 C 
BRANCH  13  14
HETATM   14  C   UNL     1     -41.009 -52.789  12.664  1.00  0.00     0.174 C 
BRANCH  14  15
HETATM   15  O   UNL     1     -40.572 -53.141  11.333  1.00  0.00    -0.392 OA
HETATM   16  H   UNL     1     -40.340 -52.314  10.879  1.00  0.00     0.210 HD
ENDBRANCH  14  15
BRANCH  14  17
HETATM   17  C   UNL     1     -42.046 -53.826  13.143  1.00  0.00     0.305 C 
BRANCH  17  18
HETATM   18  N   UNL     1     -43.028 -53.419  14.156  1.00  0.00     0.094 N 
HETATM   19  C   UNL     1     -43.870 -54.571  14.544  1.00  0.00     0.302 C 
HETATM   20  C   UNL     1     -45.083 -54.811  13.619  1.00  0.00     0.302 C 
HETATM   21  N   UNL     1     -45.990 -53.655  13.530  1.00  0.00     0.087 N 
HETATM   22  C   UNL     1     -46.656 -53.400  14.809  1.00  0.00     0.310 C 
HETATM   23  C   UNL     1     -45.211 -52.484  13.083  1.00  0.00     0.302 C 
HETATM   24  C   UNL     1     -43.861 -52.246  13.817  1.00  0.00     0.302 C 
ENDBRANCH  17  18
ENDBRANCH  14  17
ENDBRANCH  13  14
ENDBRANCH   1  13
TORSDOF 8
ENDMDL
MODEL 6
REMARK VINA RESULT:      -5.6      2.353      7.190
REMARK  8 active torsions:
REMARK  status: ('A' for Active; 'I' for Inactive)
REMARK    1  A    between atoms: C_2  and  N_3 
REMARK    2  A    between atoms: C_2  and  C_15 
REMARK    3  A    between atoms: N_3  and  C_4 
REMARK    4  A    between atoms: C_4  and  C_5 
REMARK    5  A    between atoms: C_5  and  O_6 
REMARK    6  A    between atoms: C_5  and  C_7 
REMARK    7  A    between atoms: C_7  and  N_8 
REMARK    8  A    between atoms: C_15  and  N_17 
ROOT
HETATM    1  N   UNL     1     -41.925 -51.325  11.827  1.00  0.00     0.092 N 
HETATM    2  H   UNL     1     -42.589 -51.582  11.091  1.00  0.00     0.316 HD
ENDROOT
BRANCH   1   3
HETATM    3  C   UNL     1     -42.018 -52.275  12.945  1.00  0.00     0.240 C 
HETATM    4  C   UNL     1     -40.673 -52.991  13.129  1.00  0.00     0.045 C 
BRANCH   3   5
HETATM    5  C   UNL     1     -43.224 -53.262  12.896  1.00  0.00     0.136 C 
HETATM    6  C   UNL     1     -43.075 -54.419  13.895  1.00  0.00     0.036 C 
BRANCH   5   7
HETATM    7  N   UNL     1     -44.512 -52.597  13.113  1.00  0.00    -0.297 N 
HETATM    8  C   UNL     1     -44.879 -51.893  14.230  1.00  0.00     0.112 A 
HETATM    9  C   UNL     1     -46.122 -51.365  13.960  1.00  0.00     0.037 A 
HETATM   10  C   UNL     1     -46.413 -51.793  12.654  1.00  0.00     0.108 A 
HETATM   11  N   UNL     1     -45.430 -52.523  12.122  1.00  0.00    -0.310 N 
ATOM     12  HN  UNL     1     -45.382 -52.929  11.187  1.00  0.00     0.186 HD
ENDBRANCH   5   7
ENDBRANCH   3   5
ENDBRANCH   1   3
BRANCH   1  13
HETATM   13  C   UNL     1     -42.122 -49.897  12.118  1.00  0.00     0.303 C 
BRANCH  13  14
HETATM   14  C   UNL     1     -41.049 -49.140  11.306  1.00  0.00     0.174 C 
BRANCH  14  15
HETATM   15  O   UNL     1     -40.482 -50.080  10.367  1.00  0.00    -0.392 OA
HETATM   16  H   UNL     1     -39.806 -50.589  10.845  1.00  0.00     0.210 HD
ENDBRANCH  14  15
BRANCH  14  17
HETATM   17  C   UNL     1     -41.561 -47.906  10.533  1.00  0.00     0.305 C 
BRANCH  17  18
HETATM   18  N   UNL     1     -41.800 -46.662  11.277  1.00  0.00     0.094 N 
HETATM   19  C   UNL     1     -41.525 -45.491  10.418  1.00  0.00     0.302 C 
HETATM   20  C   UNL     1     -40.041 -45.062  10.388  1.00  0.00     0.302 C 
HETATM   21  N   UNL     1     -39.500 -44.730  11.715  1.00  0.00     0.087 N 
HETATM   22  C   UNL     1     -40.131 -43.527  12.264  1.00  0.00     0.310 C 
HETATM   23  C   UNL     1     -39.692 -45.894  12.601  1.00  0.00     0.302 C 
HETATM   24  C   UNL     1     -41.105 -46.541  12.577  1.00  0.00     0.302 C 
ENDBRANCH  17  18
ENDBRANCH  14  17
ENDBRANCH  13  14
ENDBRANCH   1  13
TORSDOF 8
ENDMDL
MODEL 7
REMARK VINA RESULT:      -5.4      1.931      6.798
REMARK  8 active torsions:
REMARK  status: ('A' for Active; 'I' for Inactive)
REMARK    1  A    between atoms: C_2  and  N_3 
REMARK    2  A    between atoms: C_2  and  C_15 
REMARK    3  A    between atoms: N_3  and  C_4 
REMARK    4  A    between atoms: C_4  and  C_5 
REMARK    5  A    between atoms: C_5  and  O_6 
REMARK    6  A    between atoms: C_5  and  C_7 
REMARK    7  A    between atoms: C_7  and  N_8 
REMARK    8  A    between atoms: C_15  and  N_17 
ROOT
HETATM    1  N   UNL     1     -42.086 -51.855  12.622  1.00  0.00     0.092 N 
HETATM    2  H   UNL     1     -42.412 -51.021  13.119  1.00  0.00     0.316 HD
ENDROOT
BRANCH   1   3
HETATM    3  C   UNL     1     -42.257 -53.045  13.470  1.00  0.00     0.240 C 
HETATM    4  C   UNL     1     -41.126 -54.045  13.193  1.00  0.00     0.045 C 
BRANCH   3   5
HETATM    5  C   UNL     1     -43.669 -53.707  13.431  1.00  0.00     0.136 C 
HETATM    6  C   UNL     1     -43.826 -54.813  14.484  1.00  0.00     0.036 C 
BRANCH   5   7
HETATM    7  N   UNL     1     -44.756 -52.735  13.582  1.00  0.00    -0.297 N 
HETATM    8  C   UNL     1     -45.699 -52.426  12.637  1.00  0.00     0.112 A 
HETATM    9  C   UNL     1     -46.572 -51.546  13.238  1.00  0.00     0.037 A 
HETATM   10  C   UNL     1     -46.081 -51.399  14.547  1.00  0.00     0.108 A 
HETATM   11  N   UNL     1     -44.991 -52.136  14.773  1.00  0.00    -0.310 N 
ATOM     12  HN  UNL     1     -44.460 -52.226  15.639  1.00  0.00     0.186 HD
ENDBRANCH   5   7
ENDBRANCH   3   5
ENDBRANCH   1   3
BRANCH   1  13
HETATM   13  C   UNL     1     -40.740 -51.563  12.108  1.00  0.00     0.303 C 
BRANCH  13  14
HETATM   14  C   UNL     1     -40.765 -50.090  11.648  1.00  0.00     0.174 C 
BRANCH  14  15
HETATM   15  O   UNL     1     -40.512 -50.081  10.226  1.00  0.00    -0.392 OA
HETATM   16  H   UNL     1     -40.900 -49.265   9.871  1.00  0.00     0.210 HD
ENDBRANCH  14  15
BRANCH  14  17
HETATM   17  C   UNL     1     -42.083 -49.338  11.928  1.00  0.00     0.305 C 
BRANCH  17  18
HETATM   18  N   UNL     1     -42.011 -47.953  12.410  1.00  0.00     0.094 N 
HETATM   19  C   UNL     1     -43.013 -47.116  11.715  1.00  0.00     0.302 C 
HETATM   20  C   UNL     1     -42.538 -46.555  10.356  1.00  0.00     0.302 C 
HETATM   21  N   UNL     1     -41.320 -45.735  10.454  1.00  0.00     0.087 N 
HETATM   22  C   UNL     1     -41.568 -44.499  11.200  1.00  0.00     0.310 C 
HETATM   23  C   UNL     1     -40.262 -46.546  11.087  1.00  0.00     0.302 C 
HETATM   24  C   UNL     1     -40.675 -47.321  12.370  1.00  0.00     0.302 C 
ENDBRANCH  17  18
ENDBRANCH  14  17
ENDBRANCH  13  14
ENDBRANCH   1  13
TORSDOF 8
ENDMDL
MODEL 8
REMARK VINA RESULT:      -5.3      1.731      6.848
REMARK  8 active torsions:
REMARK  status: ('A' for Active; 'I' for Inactive)
REMARK    1  A    between atoms: C_2  and  N_3 
REMARK    2  A    between atoms: C_2  and  C_15 
REMARK    3  A    between atoms: N_3  and  C_4 
REMARK    4  A    between atoms: C_4  and  C_5 
REMARK    5  A    between atoms: C_5  and  O_6 
REMARK    6  A    between atoms: C_5  and  C_7 
REMARK    7  A    between atoms: C_7  and  N_8 
REMARK    8  A    between atoms: C_15  and  N_17 
ROOT
HETATM    1  N   UNL     1     -41.988 -53.486  13.938  1.00  0.00     0.092 N 
HETATM    2  H   UNL     1     -41.604 -54.268  13.399  1.00  0.00     0.316 HD
ENDROOT
BRANCH   1   3
HETATM    3  C   UNL     1     -43.172 -53.927  14.691  1.00  0.00     0.240 C 
HETATM    4  C   UNL     1     -42.960 -55.361  15.196  1.00  0.00     0.045 C 
BRANCH   3   5
HETATM    5  C   UNL     1     -44.541 -53.737  13.971  1.00  0.00     0.136 C 
HETATM    6  C   UNL     1     -45.316 -55.055  13.829  1.00  0.00     0.036 C 
BRANCH   5   7
HETATM    7  N   UNL     1     -45.395 -52.742  14.626  1.00  0.00    -0.297 N 
HETATM    8  C   UNL     1     -46.765 -52.734  14.636  1.00  0.00     0.112 A 
HETATM    9  C   UNL     1     -47.138 -51.683  15.444  1.00  0.00     0.037 A 
HETATM   10  C   UNL     1     -45.925 -51.128  15.885  1.00  0.00     0.108 A 
HETATM   11  N   UNL     1     -44.860 -51.779  15.413  1.00  0.00    -0.310 N 
ATOM     12  HN  UNL     1     -43.874 -51.594  15.601  1.00  0.00     0.186 HD
ENDBRANCH   5   7
ENDBRANCH   3   5
ENDBRANCH   1   3
BRANCH   1  13
HETATM   13  C   UNL     1     -42.140 -52.349  13.018  1.00  0.00     0.303 C 
BRANCH  13  14
HETATM   14  C   UNL     1     -40.764 -52.153  12.346  1.00  0.00     0.174 C 
BRANCH  14  15
HETATM   15  O   UNL     1     -40.644 -53.159  11.317  1.00  0.00    -0.392 OA
HETATM   16  H   UNL     1     -39.927 -52.879  10.724  1.00  0.00     0.210 HD
ENDBRANCH  14  15
BRANCH  14  17
HETATM   17  C   UNL     1     -40.534 -50.762  11.717  1.00  0.00     0.305 C 
BRANCH  17  18
HETATM   18  N   UNL     1     -41.104 -49.586  12.388  1.00  0.00     0.094 N 
HETATM   19  C   UNL     1     -42.158 -48.978  11.549  1.00  0.00     0.302 C 
HETATM   20  C   UNL     1     -41.631 -47.986  10.489  1.00  0.00     0.302 C 
HETATM   21  N   UNL     1     -40.870 -46.864  11.063  1.00  0.00     0.087 N 
HETATM   22  C   UNL     1     -41.730 -45.991  11.866  1.00  0.00     0.310 C 
HETATM   23  C   UNL     1     -39.761 -47.416  11.864  1.00  0.00     0.302 C 
HETATM   24  C   UNL     1     -40.134 -48.566  12.841  1.00  0.00     0.302 C 
ENDBRANCH  17  18
ENDBRANCH  14  17
ENDBRANCH  13  14
ENDBRANCH   1  13
TORSDOF 8
ENDMDL
MODEL 9
REMARK VINA RESULT:      -5.2      2.611      4.491
REMARK  8 active torsions:
REMARK  status: ('A' for Active; 'I' for Inactive)
REMARK    1  A    between atoms: C_2  and  N_3 
REMARK    2  A    between atoms: C_2  and  C_15 
REMARK    3  A    between atoms: N_3  and  C_4 
REMARK    4  A    between atoms: C_4  and  C_5 
REMARK    5  A    between atoms: C_5  and  O_6 
REMARK    6  A    between atoms: C_5  and  C_7 
REMARK    7  A    between atoms: C_7  and  N_8 
REMARK    8  A    between atoms: C_15  and  N_17 
ROOT
HETATM    1  N   UNL     1     -42.297 -50.419  11.760  1.00  0.00     0.092 N 
HETATM    2  H   UNL     1     -41.759 -50.843  10.999  1.00  0.00     0.316 HD
ENDROOT
BRANCH   1   3
HETATM    3  C   UNL     1     -41.843 -49.039  11.990  1.00  0.00     0.240 C 
HETATM    4  C   UNL     1     -42.962 -48.057  11.620  1.00  0.00     0.045 C 
BRANCH   3   5
HETATM    5  C   UNL     1     -40.474 -48.661  11.346  1.00  0.00     0.136 C 
HETATM    6  C   UNL     1     -40.198 -47.152  11.400  1.00  0.00     0.036 C 
BRANCH   5   7
HETATM    7  N   UNL     1     -39.346 -49.382  11.945  1.00  0.00    -0.297 N 
HETATM    8  C   UNL     1     -38.899 -49.253  13.234  1.00  0.00     0.112 A 
HETATM    9  C   UNL     1     -37.894 -50.182  13.387  1.00  0.00     0.037 A 
HETATM   10  C   UNL     1     -37.819 -50.831  12.143  1.00  0.00     0.108 A 
HETATM   11  N   UNL     1     -38.714 -50.367  11.267  1.00  0.00    -0.310 N 
ATOM     12  HN  UNL     1     -38.881 -50.682  10.311  1.00  0.00     0.186 HD
ENDBRANCH   5   7
ENDBRANCH   3   5
ENDBRANCH   1   3
BRANCH   1  13
HETATM   13  C   UNL     1     -42.264 -51.353  12.896  1.00  0.00     0.303 C 
BRANCH  13  14
HETATM   14  C   UNL     1     -41.653 -52.664  12.357  1.00  0.00     0.174 C 
BRANCH  14  15
HETATM   15  O   UNL     1     -41.203 -52.404  11.009  1.00  0.00    -0.392 OA
HETATM   16  H   UNL     1     -41.882 -52.753  10.409  1.00  0.00     0.210 HD
ENDBRANCH  14  15
BRANCH  14  17
HETATM   17  C   UNL     1     -40.473 -53.224  13.180  1.00  0.00     0.305 C 
BRANCH  17  18
HETATM   18  N   UNL     1     -40.518 -53.101  14.643  1.00  0.00     0.094 N 
HETATM   19  C   UNL     1     -39.203 -53.440  15.226  1.00  0.00     0.302 C 
HETATM   20  C   UNL     1     -38.986 -54.951  15.466  1.00  0.00     0.302 C 
HETATM   21  N   UNL     1     -39.993 -55.553  16.355  1.00  0.00     0.087 N 
HETATM   22  C   UNL     1     -39.882 -55.030  17.719  1.00  0.00     0.310 C 
HETATM   23  C   UNL     1     -41.330 -55.297  15.785  1.00  0.00     0.302 C 
HETATM   24  C   UNL     1     -41.604 -53.839  15.322  1.00  0.00     0.302 C 
ENDBRANCH  17  18
ENDBRANCH  14  17
ENDBRANCH  13  14
ENDBRANCH   1  13
TORSDOF 8
ENDMDL
