MODEL 1
REMARK VINA RESULT:      -5.7      0.000      0.000
REMARK  3 active torsions:
REMARK  status: ('A' for Active; 'I' for Inactive)
REMARK    1  A    between atoms: C_6  and  N_7 
REMARK       I    between atoms: N_7  and  C_8 
REMARK       I    between atoms: C_8  and  N_10 
REMARK    2  A    between atoms: N_10  and  C_11 
REMARK    3  A    between atoms: C_11  and  C_12 
ROOT
HETATM    1  N   UNL     1     -41.442 -47.961  10.491  1.00  0.00    -0.289 N 
HETATM    2  C   UNL     1     -40.568 -46.968  10.804  1.00  0.00     0.322 C 
HETATM    3  O   UNL     1     -39.584 -47.224  11.498  1.00  0.00    -0.247 OA
HETATM    4  N   UNL     1     -40.793 -45.739  10.262  1.00  0.00    -0.340 N 
HETATM    5  H   UNL     1     -41.189 -48.886  10.799  1.00  0.00     0.172 HD
HETATM    6  H   UNL     1     -41.758 -45.536  10.008  1.00  0.00     0.164 HD
ENDROOT
BRANCH   1   7
HETATM    7  C   UNL     1     -42.553 -47.814   9.714  1.00  0.00     0.152 A 
HETATM    8  N   UNL     1     -42.661 -47.979   8.419  1.00  0.00    -0.345 N 
HETATM    9  C   UNL     1     -43.978 -47.793   8.052  1.00  0.00     0.104 A 
ATOM     10  HN  UNL     1     -41.895 -48.208   7.785  1.00  0.00     0.167 HD
HETATM   11  C   UNL     1     -44.851 -47.517   9.085  1.00  0.00    -0.003 A 
HETATM   12  C   UNL     1     -46.324 -47.343   9.051  1.00  0.00     0.058 C 
HETATM   13  S   UNL     1     -43.973 -47.391  10.556  1.00  0.00    -0.058 SA
ENDBRANCH   1   7
BRANCH   4  14
HETATM   14  C   UNL     1     -39.926 -44.614  10.544  1.00  0.00     0.156 C 
BRANCH  14  15
HETATM   15  C   UNL     1     -40.685 -43.443  11.166  1.00  0.00     0.139 C 
HETATM   16  C   UNL     1     -40.991 -43.664  12.640  1.00  0.00     0.035 C 
HETATM   17  C   UNL     1     -42.387 -43.114  12.837  1.00  0.00     0.029 C 
HETATM   18  C   UNL     1     -42.802 -42.606  11.474  1.00  0.00     0.168 C 
HETATM   19  O   UNL     1     -41.965 -43.276  10.529  1.00  0.00    -0.384 OA
ENDBRANCH  14  15
ENDBRANCH   4  14
TORSDOF 3
ENDMDL
MODEL 2
REMARK VINA RESULT:      -5.5      6.855      8.476
REMARK  3 active torsions:
REMARK  status: ('A' for Active; 'I' for Inactive)
REMARK    1  A    between atoms: C_6  and  N_7 
REMARK       I    between atoms: N_7  and  C_8 
REMARK       I    between atoms: C_8  and  N_10 
REMARK    2  A    between atoms: N_10  and  C_11 
REMARK    3  A    between atoms: C_11  and  C_12 
ROOT
HETATM    1  N   UNL     1     -42.912 -53.816  12.548  1.00  0.00    -0.289 N 
HETATM    2  C   UNL     1     -44.258 -53.631  12.580  1.00  0.00     0.322 C 
HETATM    3  O   UNL     1     -45.001 -54.609  12.671  1.00  0.00    -0.247 OA
HETATM    4  N   UNL     1     -44.717 -52.349  12.585  1.00  0.00    -0.340 N 
HETATM    5  H   UNL     1     -42.592 -54.763  12.671  1.00  0.00     0.172 HD
HETATM    6  H   UNL     1     -44.095 -51.654  12.175  1.00  0.00     0.164 HD
ENDROOT
BRANCH   1   7
HETATM    7  C   UNL     1     -41.983 -52.819  12.473  1.00  0.00     0.152 A 
HETATM    8  N   UNL     1     -41.446 -52.295  11.399  1.00  0.00    -0.345 N 
HETATM    9  C   UNL     1     -40.603 -51.270  11.776  1.00  0.00     0.104 A 
ATOM     10  HN  UNL     1     -41.622 -52.597  10.440  1.00  0.00     0.167 HD
HETATM   11  C   UNL     1     -40.539 -51.018  13.132  1.00  0.00    -0.003 A 
HETATM   12  C   UNL     1     -39.804 -49.953  13.858  1.00  0.00     0.058 C 
HETATM   13  S   UNL     1     -41.496 -52.171  13.971  1.00  0.00    -0.058 SA
ENDBRANCH   1   7
BRANCH   4  14
HETATM   14  C   UNL     1     -46.133 -52.049  12.607  1.00  0.00     0.156 C 
BRANCH  14  15
HETATM   15  C   UNL     1     -46.591 -51.525  13.967  1.00  0.00     0.139 C 
HETATM   16  C   UNL     1     -45.440 -50.968  14.793  1.00  0.00     0.035 C 
HETATM   17  C   UNL     1     -45.725 -51.413  16.211  1.00  0.00     0.029 C 
HETATM   18  C   UNL     1     -47.018 -52.193  16.123  1.00  0.00     0.168 C 
HETATM   19  O   UNL     1     -47.149 -52.591  14.757  1.00  0.00    -0.384 OA
ENDBRANCH  14  15
ENDBRANCH   4  14
TORSDOF 3
ENDMDL
MODEL 3
REMARK VINA RESULT:      -5.5      5.028      7.073
REMARK  3 active torsions:
REMARK  status: ('A' for Active; 'I' for Inactive)
REMARK    1  A    between atoms: C_6  and  N_7 
REMARK       I    between atoms: N_7  and  C_8 
REMARK       I    between atoms: C_8  and  N_10 
REMARK    2  A    between atoms: N_10  and  C_11 
REMARK    3  A    between atoms: C_11  and  C_12 
ROOT
HETATM    1  N   UNL     1     -40.404 -50.926  11.631  1.00  0.00    -0.289 N 
HETATM    2  C   UNL     1     -41.125 -52.033  11.951  1.00  0.00     0.322 C 
HETATM    3  O   UNL     1     -40.542 -53.099  12.149  1.00  0.00    -0.247 OA
HETATM    4  N   UNL     1     -42.469 -51.883  12.112  1.00  0.00    -0.340 N 
HETATM    5  H   UNL     1     -39.403 -51.032  11.640  1.00  0.00     0.172 HD
HETATM    6  H   UNL     1     -42.890 -51.100  11.615  1.00  0.00     0.164 HD
ENDROOT
BRANCH   1   7
HETATM    7  C   UNL     1     -40.925 -49.684  11.412  1.00  0.00     0.152 A 
HETATM    8  N   UNL     1     -41.272 -49.144  10.270  1.00  0.00    -0.345 N 
HETATM    9  C   UNL     1     -41.814 -47.899  10.511  1.00  0.00     0.104 A 
ATOM     10  HN  UNL     1     -41.159 -49.575   9.352  1.00  0.00     0.167 HD
HETATM   11  C   UNL     1     -41.893 -47.529  11.839  1.00  0.00    -0.003 A 
HETATM   12  C   UNL     1     -42.485 -46.310  12.443  1.00  0.00     0.058 C 
HETATM   13  S   UNL     1     -41.174 -48.747  12.813  1.00  0.00    -0.058 SA
ENDBRANCH   1   7
BRANCH   4  14
HETATM   14  C   UNL     1     -43.324 -53.003  12.442  1.00  0.00     0.156 C 
BRANCH  14  15
HETATM   15  C   UNL     1     -44.782 -52.583  12.621  1.00  0.00     0.139 C 
HETATM   16  C   UNL     1     -44.919 -51.244  13.331  1.00  0.00     0.035 C 
HETATM   17  C   UNL     1     -46.106 -51.411  14.255  1.00  0.00     0.029 C 
HETATM   18  C   UNL     1     -46.586 -52.827  14.022  1.00  0.00     0.168 C 
HETATM   19  O   UNL     1     -45.483 -53.530  13.447  1.00  0.00    -0.384 OA
ENDBRANCH  14  15
ENDBRANCH   4  14
TORSDOF 3
ENDMDL
MODEL 4
REMARK VINA RESULT:      -5.3      4.622      5.686
REMARK  3 active torsions:
REMARK  status: ('A' for Active; 'I' for Inactive)
REMARK    1  A    between atoms: C_6  and  N_7 
REMARK       I    between atoms: N_7  and  C_8 
REMARK       I    between atoms: C_8  and  N_10 
REMARK    2  A    between atoms: N_10  and  C_11 
REMARK    3  A    between atoms: C_11  and  C_12 
ROOT
HETATM    1  N   UNL     1     -40.983 -51.528  11.612  1.00  0.00    -0.289 N 
HETATM    2  C   UNL     1     -41.107 -50.189  11.417  1.00  0.00     0.322 C 
HETATM    3  O   UNL     1     -40.186 -49.566  10.888  1.00  0.00    -0.247 OA
HETATM    4  N   UNL     1     -42.292 -49.611  11.756  1.00  0.00    -0.340 N 
HETATM    5  H   UNL     1     -40.149 -51.954  11.240  1.00  0.00     0.172 HD
HETATM    6  H   UNL     1     -42.834 -50.097  12.469  1.00  0.00     0.164 HD
ENDROOT
BRANCH   1   7
HETATM    7  C   UNL     1     -41.936 -52.334  12.163  1.00  0.00     0.152 A 
HETATM    8  N   UNL     1     -43.069 -52.723  11.634  1.00  0.00    -0.345 N 
HETATM    9  C   UNL     1     -43.699 -53.585  12.509  1.00  0.00     0.104 A 
ATOM     10  HN  UNL     1     -43.428 -52.436  10.723  1.00  0.00     0.167 HD
HETATM   11  C   UNL     1     -43.014 -53.853  13.678  1.00  0.00    -0.003 A 
HETATM   12  C   UNL     1     -43.363 -54.782  14.781  1.00  0.00     0.058 C 
HETATM   13  S   UNL     1     -41.574 -52.918  13.722  1.00  0.00    -0.058 SA
ENDBRANCH   1   7
BRANCH   4  14
HETATM   14  C   UNL     1     -42.518 -48.190  11.598  1.00  0.00     0.156 C 
BRANCH  14  15
HETATM   15  C   UNL     1     -43.072 -47.845  10.216  1.00  0.00     0.139 C 
HETATM   16  C   UNL     1     -42.621 -46.473   9.735  1.00  0.00     0.035 C 
HETATM   17  C   UNL     1     -43.833 -45.883   9.046  1.00  0.00     0.029 C 
HETATM   18  C   UNL     1     -44.905 -46.944   9.165  1.00  0.00     0.168 C 
HETATM   19  O   UNL     1     -44.509 -47.787  10.248  1.00  0.00    -0.384 OA
ENDBRANCH  14  15
ENDBRANCH   4  14
TORSDOF 3
ENDMDL
MODEL 5
REMARK VINA RESULT:      -5.2      4.606      5.489
REMARK  3 active torsions:
REMARK  status: ('A' for Active; 'I' for Inactive)
REMARK    1  A    between atoms: C_6  and  N_7 
REMARK       I    between atoms: N_7  and  C_8 
REMARK       I    between atoms: C_8  and  N_10 
REMARK    2  A    between atoms: N_10  and  C_11 
REMARK    3  A    between atoms: C_11  and  C_12 
ROOT
HETATM    1  N   UNL     1     -41.750 -52.680  12.903  1.00  0.00    -0.289 N 
HETATM    2  C   UNL     1     -40.879 -51.800  12.343  1.00  0.00     0.322 C 
HETATM    3  O   UNL     1     -39.669 -52.017  12.415  1.00  0.00    -0.247 OA
HETATM    4  N   UNL     1     -41.402 -50.747  11.656  1.00  0.00    -0.340 N 
HETATM    5  H   UNL     1     -41.345 -53.514  13.296  1.00  0.00     0.172 HD
HETATM    6  H   UNL     1     -42.342 -50.463  11.929  1.00  0.00     0.164 HD
ENDROOT
BRANCH   1   7
HETATM    7  C   UNL     1     -43.109 -52.568  12.872  1.00  0.00     0.152 A 
HETATM    8  N   UNL     1     -43.948 -53.133  12.039  1.00  0.00    -0.345 N 
HETATM    9  C   UNL     1     -45.236 -52.802  12.407  1.00  0.00     0.104 A 
ATOM     10  HN  UNL     1     -43.690 -53.722  11.247  1.00  0.00     0.167 HD
HETATM   11  C   UNL     1     -45.350 -52.011  13.533  1.00  0.00    -0.003 A 
HETATM   12  C   UNL     1     -46.570 -51.545  14.237  1.00  0.00     0.058 C 
HETATM   13  S   UNL     1     -43.782 -51.589  14.094  1.00  0.00    -0.058 SA
ENDBRANCH   1   7
BRANCH   4  14
HETATM   14  C   UNL     1     -40.558 -49.750  11.034  1.00  0.00     0.156 C 
BRANCH  14  15
HETATM   15  C   UNL     1     -41.206 -48.366  11.029  1.00  0.00     0.139 C 
HETATM   16  C   UNL     1     -42.210 -48.190  12.159  1.00  0.00     0.035 C 
HETATM   17  C   UNL     1     -43.353 -47.408  11.548  1.00  0.00     0.029 C 
HETATM   18  C   UNL     1     -42.942 -47.175  10.111  1.00  0.00     0.168 C 
HETATM   19  O   UNL     1     -41.953 -48.163   9.816  1.00  0.00    -0.384 OA
ENDBRANCH  14  15
ENDBRANCH   4  14
TORSDOF 3
ENDMDL
MODEL 6
REMARK VINA RESULT:      -4.9      7.933      9.371
REMARK  3 active torsions:
REMARK  status: ('A' for Active; 'I' for Inactive)
REMARK    1  A    between atoms: C_6  and  N_7 
REMARK       I    between atoms: N_7  and  C_8 
REMARK       I    between atoms: C_8  and  N_10 
REMARK    2  A    between atoms: N_10  and  C_11 
REMARK    3  A    between atoms: C_11  and  C_12 
ROOT
HETATM    1  N   UNL     1     -42.436 -53.595  12.355  1.00  0.00    -0.289 N 
HETATM    2  C   UNL     1     -43.616 -53.952  12.928  1.00  0.00     0.322 C 
HETATM    3  O   UNL     1     -44.611 -54.106  12.220  1.00  0.00    -0.247 OA
HETATM    4  N   UNL     1     -43.615 -54.196  14.268  1.00  0.00    -0.340 N 
HETATM    5  H   UNL     1     -42.432 -53.542  11.349  1.00  0.00     0.172 HD
HETATM    6  H   UNL     1     -42.883 -53.731  14.803  1.00  0.00     0.164 HD
ENDROOT
BRANCH   1   7
HETATM    7  C   UNL     1     -41.260 -53.416  13.022  1.00  0.00     0.152 A 
HETATM    8  N   UNL     1     -40.323 -54.301  13.259  1.00  0.00    -0.345 N 
HETATM    9  C   UNL     1     -39.275 -53.681  13.907  1.00  0.00     0.104 A 
ATOM     10  HN  UNL     1     -40.363 -55.289  13.005  1.00  0.00     0.167 HD
HETATM   11  C   UNL     1     -39.428 -52.326  14.125  1.00  0.00    -0.003 A 
HETATM   12  C   UNL     1     -38.474 -51.354  14.716  1.00  0.00     0.058 C 
HETATM   13  S   UNL     1     -40.981 -51.832  13.584  1.00  0.00    -0.058 SA
ENDBRANCH   1   7
BRANCH   4  14
HETATM   14  C   UNL     1     -44.822 -54.571  14.973  1.00  0.00     0.156 C 
BRANCH  14  15
HETATM   15  C   UNL     1     -45.542 -53.361  15.568  1.00  0.00     0.139 C 
HETATM   16  C   UNL     1     -46.750 -52.939  14.743  1.00  0.00     0.035 C 
HETATM   17  C   UNL     1     -46.727 -51.426  14.764  1.00  0.00     0.029 C 
HETATM   18  C   UNL     1     -45.518 -51.065  15.598  1.00  0.00     0.168 C 
HETATM   19  O   UNL     1     -44.672 -52.216  15.588  1.00  0.00    -0.384 OA
ENDBRANCH  14  15
ENDBRANCH   4  14
TORSDOF 3
ENDMDL
MODEL 7
REMARK VINA RESULT:      -4.8      5.191      6.236
REMARK  3 active torsions:
REMARK  status: ('A' for Active; 'I' for Inactive)
REMARK    1  A    between atoms: C_6  and  N_7 
REMARK       I    between atoms: N_7  and  C_8 
REMARK       I    between atoms: C_8  and  N_10 
REMARK    2  A    between atoms: N_10  and  C_11 
REMARK    3  A    between atoms: C_11  and  C_12 
ROOT
HETATM    1  N   UNL     1     -42.658 -53.587  12.618  1.00  0.00    -0.289 N 
HETATM    2  C   UNL     1     -41.507 -52.875  12.495  1.00  0.00     0.322 C 
HETATM    3  O   UNL     1     -40.453 -53.465  12.255  1.00  0.00    -0.247 OA
HETATM    4  N   UNL     1     -41.595 -51.518  12.573  1.00  0.00    -0.340 N 
HETATM    5  H   UNL     1     -42.589 -54.574  12.434  1.00  0.00     0.172 HD
HETATM    6  H   UNL     1     -42.391 -51.154  13.094  1.00  0.00     0.164 HD
ENDROOT
BRANCH   1   7
HETATM    7  C   UNL     1     -43.890 -53.053  12.858  1.00  0.00     0.152 A 
HETATM    8  N   UNL     1     -44.814 -52.729  11.988  1.00  0.00    -0.345 N 
HETATM    9  C   UNL     1     -45.931 -52.285  12.665  1.00  0.00     0.104 A 
ATOM     10  HN  UNL     1     -44.722 -52.794  10.974  1.00  0.00     0.167 HD
HETATM   11  C   UNL     1     -45.841 -52.308  14.043  1.00  0.00    -0.003 A 
HETATM   12  C   UNL     1     -46.871 -51.978  15.059  1.00  0.00     0.058 C 
HETATM   13  S   UNL     1     -44.265 -52.813  14.503  1.00  0.00    -0.058 SA
ENDBRANCH   1   7
BRANCH   4  14
HETATM   14  C   UNL     1     -40.425 -50.673  12.466  1.00  0.00     0.156 C 
BRANCH  14  15
HETATM   15  C   UNL     1     -40.572 -49.620  11.368  1.00  0.00     0.139 C 
HETATM   16  C   UNL     1     -39.716 -48.388  11.625  1.00  0.00     0.035 C 
HETATM   17  C   UNL     1     -40.576 -47.218  11.200  1.00  0.00     0.029 C 
HETATM   18  C   UNL     1     -41.870 -47.839  10.720  1.00  0.00     0.168 C 
HETATM   19  O   UNL     1     -41.927 -49.140  11.309  1.00  0.00    -0.384 OA
ENDBRANCH  14  15
ENDBRANCH   4  14
TORSDOF 3
ENDMDL
MODEL 8
REMARK VINA RESULT:      -4.8      6.291      7.344
REMARK  3 active torsions:
REMARK  status: ('A' for Active; 'I' for Inactive)
REMARK    1  A    between atoms: C_6  and  N_7 
REMARK       I    between atoms: N_7  and  C_8 
REMARK       I    between atoms: C_8  and  N_10 
REMARK    2  A    between atoms: N_10  and  C_11 
REMARK    3  A    between atoms: C_11  and  C_12 
ROOT
HETATM    1  N   UNL     1     -42.281 -53.409  12.635  1.00  0.00    -0.289 N 
HETATM    2  C   UNL     1     -40.997 -53.408  13.083  1.00  0.00     0.322 C 
HETATM    3  O   UNL     1     -40.207 -54.252  12.660  1.00  0.00    -0.247 OA
HETATM    4  N   UNL     1     -40.629 -52.410  13.933  1.00  0.00    -0.340 N 
HETATM    5  H   UNL     1     -42.497 -54.078  11.914  1.00  0.00     0.172 HD
HETATM    6  H   UNL     1     -41.382 -51.990  14.477  1.00  0.00     0.164 HD
ENDROOT
BRANCH   1   7
HETATM    7  C   UNL     1     -43.244 -52.518  13.006  1.00  0.00     0.152 A 
HETATM    8  N   UNL     1     -43.377 -51.270  12.629  1.00  0.00    -0.345 N 
HETATM    9  C   UNL     1     -44.526 -50.753  13.193  1.00  0.00     0.104 A 
ATOM     10  HN  UNL     1     -42.736 -50.763  12.019  1.00  0.00     0.167 HD
HETATM   11  C   UNL     1     -45.258 -51.632  13.967  1.00  0.00    -0.003 A 
HETATM   12  C   UNL     1     -46.563 -51.428  14.643  1.00  0.00     0.058 C 
HETATM   13  S   UNL     1     -44.426 -53.130  14.069  1.00  0.00    -0.058 SA
ENDBRANCH   1   7
BRANCH   4  14
HETATM   14  C   UNL     1     -39.289 -52.327  14.473  1.00  0.00     0.156 C 
BRANCH  14  15
HETATM   15  C   UNL     1     -38.474 -51.208  13.827  1.00  0.00     0.139 C 
HETATM   16  C   UNL     1     -39.353 -50.135  13.200  1.00  0.00     0.035 C 
HETATM   17  C   UNL     1     -38.652 -49.758  11.913  1.00  0.00     0.029 C 
HETATM   18  C   UNL     1     -37.413 -50.626  11.874  1.00  0.00     0.168 C 
HETATM   19  O   UNL     1     -37.672 -51.725  12.750  1.00  0.00    -0.384 OA
ENDBRANCH  14  15
ENDBRANCH   4  14
TORSDOF 3
ENDMDL
MODEL 9
REMARK VINA RESULT:      -4.6      5.902      8.345
REMARK  3 active torsions:
REMARK  status: ('A' for Active; 'I' for Inactive)
REMARK    1  A    between atoms: C_6  and  N_7 
REMARK       I    between atoms: N_7  and  C_8 
REMARK       I    between atoms: C_8  and  N_10 
REMARK    2  A    between atoms: N_10  and  C_11 
REMARK    3  A    between atoms: C_11  and  C_12 
ROOT
HETATM    1  N   UNL     1     -43.408 -49.782  13.355  1.00  0.00    -0.289 N 
HETATM    2  C   UNL     1     -44.150 -50.920  13.375  1.00  0.00     0.322 C 
HETATM    3  O   UNL     1     -45.130 -50.991  14.117  1.00  0.00    -0.247 OA
HETATM    4  N   UNL     1     -43.808 -51.910  12.504  1.00  0.00    -0.340 N 
HETATM    5  H   UNL     1     -43.753 -49.019  13.915  1.00  0.00     0.172 HD
HETATM    6  H   UNL     1     -42.836 -51.914  12.198  1.00  0.00     0.164 HD
ENDROOT
BRANCH   1   7
HETATM    7  C   UNL     1     -42.318 -49.568  12.564  1.00  0.00     0.152 A 
HETATM    8  N   UNL     1     -42.287 -49.107  11.338  1.00  0.00    -0.345 N 
HETATM    9  C   UNL     1     -40.972 -48.986  10.938  1.00  0.00     0.104 A 
ATOM     10  HN  UNL     1     -43.104 -48.875  10.771  1.00  0.00     0.167 HD
HETATM   11  C   UNL     1     -40.027 -49.334  11.883  1.00  0.00    -0.003 A 
HETATM   12  C   UNL     1     -38.548 -49.250  11.809  1.00  0.00     0.058 C 
HETATM   13  S   UNL     1     -40.818 -49.924  13.289  1.00  0.00    -0.058 SA
ENDBRANCH   1   7
BRANCH   4  14
HETATM   14  C   UNL     1     -44.529 -53.164  12.457  1.00  0.00     0.156 C 
BRANCH  14  15
HETATM   15  C   UNL     1     -43.777 -54.289  13.166  1.00  0.00     0.139 C 
HETATM   16  C   UNL     1     -44.412 -54.665  14.497  1.00  0.00     0.035 C 
HETATM   17  C   UNL     1     -43.247 -54.922  15.428  1.00  0.00     0.029 C 
HETATM   18  C   UNL     1     -42.014 -54.685  14.584  1.00  0.00     0.168 C 
HETATM   19  O   UNL     1     -42.435 -53.877  13.485  1.00  0.00    -0.384 OA
ENDBRANCH  14  15
ENDBRANCH   4  14
TORSDOF 3
ENDMDL
