MODEL 1
REMARK VINA RESULT:      -3.8      0.000      0.000
REMARK  1 active torsions:
REMARK  status: ('A' for Active; 'I' for Inactive)
REMARK    1  A    between atoms: C_6  and  N_7 
ROOT
HETATM    1  N   UNL     2     -43.743 -47.457   9.726  1.00  0.00    -0.277 N 
HETATM    2  C   UNL     2     -45.082 -47.563   9.733  1.00  0.00     0.126 A 
HETATM    3  C   UNL     2     -45.457 -47.890   8.451  1.00  0.00     0.123 A 
HETATM    4  N   UNL     2     -44.340 -47.974   7.701  1.00  0.00    -0.294 N 
ATOM      5  HN  UNL     2     -44.293 -48.199   6.707  1.00  0.00     0.183 HD
HETATM    6  N   UNL     2     -43.315 -47.708   8.498  1.00  0.00    -0.021 NA
ENDROOT
BRANCH   1   7
HETATM    7  C   UNL     2     -42.893 -47.130  10.877  1.00  0.00     0.161 C 
HETATM    8  C   UNL     2     -42.080 -45.869  10.632  1.00  0.00     0.298 C 
HETATM    9  N   UNL     2     -40.916 -46.644  10.192  1.00  0.00     0.087 N 
HETATM   10  C   UNL     2     -41.553 -47.834  10.765  1.00  0.00     0.298 C 
HETATM   11  H   UNL     2     -40.069 -46.382  10.748  1.00  0.00     0.316 HD
ENDBRANCH   1   7
TORSDOF 1
ENDMDL
MODEL 2
REMARK VINA RESULT:      -3.8      5.415      6.528
REMARK  1 active torsions:
REMARK  status: ('A' for Active; 'I' for Inactive)
REMARK    1  A    between atoms: C_6  and  N_7 
ROOT
HETATM    1  N   UNL     2     -40.339 -52.013  12.818  1.00  0.00    -0.277 N 
HETATM    2  C   UNL     2     -40.042 -52.733  13.913  1.00  0.00     0.126 A 
HETATM    3  C   UNL     2     -40.305 -54.047  13.603  1.00  0.00     0.123 A 
HETATM    4  N   UNL     2     -40.754 -54.090  12.333  1.00  0.00    -0.294 N 
ATOM      5  HN  UNL     2     -41.034 -54.925  11.818  1.00  0.00     0.183 HD
HETATM    6  N   UNL     2     -40.763 -52.845  11.880  1.00  0.00    -0.021 NA
ENDROOT
BRANCH   1   7
HETATM    7  C   UNL     2     -40.207 -50.558  12.676  1.00  0.00     0.161 C 
HETATM    8  C   UNL     2     -41.239 -49.995  11.711  1.00  0.00     0.298 C 
HETATM    9  N   UNL     2     -40.289 -50.033  10.595  1.00  0.00     0.087 N 
HETATM   10  C   UNL     2     -39.217 -50.220  11.577  1.00  0.00     0.298 C 
HETATM   11  H   UNL     2     -40.212 -49.090  10.147  1.00  0.00     0.316 HD
ENDBRANCH   1   7
TORSDOF 1
ENDMDL
MODEL 3
REMARK VINA RESULT:      -3.7     20.913     21.788
REMARK  1 active torsions:
REMARK  status: ('A' for Active; 'I' for Inactive)
REMARK    1  A    between atoms: C_6  and  N_7 
ROOT
HETATM    1  N   UNL     2     -28.133 -53.491  -4.986  1.00  0.00    -0.277 N 
HETATM    2  C   UNL     2     -27.082 -53.783  -5.771  1.00  0.00     0.126 A 
HETATM    3  C   UNL     2     -25.958 -53.637  -4.992  1.00  0.00     0.123 A 
HETATM    4  N   UNL     2     -26.353 -53.261  -3.760  1.00  0.00    -0.294 N 
ATOM      5  HN  UNL     2     -25.748 -53.072  -2.961  1.00  0.00     0.183 HD
HETATM    6  N   UNL     2     -27.676 -53.181  -3.782  1.00  0.00    -0.021 NA
ENDROOT
BRANCH   1   7
HETATM    7  C   UNL     2     -29.546 -53.519  -5.384  1.00  0.00     0.161 C 
HETATM    8  C   UNL     2     -30.437 -52.890  -4.325  1.00  0.00     0.298 C 
HETATM    9  N   UNL     2     -30.740 -54.197  -3.732  1.00  0.00     0.087 N 
HETATM   10  C   UNL     2     -30.195 -54.818  -4.943  1.00  0.00     0.298 C 
HETATM   11  H   UNL     2     -31.775 -54.346  -3.681  1.00  0.00     0.316 HD
ENDBRANCH   1   7
TORSDOF 1
ENDMDL
MODEL 4
REMARK VINA RESULT:      -3.6      7.207      8.144
REMARK  1 active torsions:
REMARK  status: ('A' for Active; 'I' for Inactive)
REMARK    1  A    between atoms: C_6  and  N_7 
ROOT
HETATM    1  N   UNL     2     -43.410 -53.790  13.494  1.00  0.00    -0.277 N 
HETATM    2  C   UNL     2     -42.074 -53.693  13.599  1.00  0.00     0.126 A 
HETATM    3  C   UNL     2     -41.643 -52.993  12.497  1.00  0.00     0.123 A 
HETATM    4  N   UNL     2     -42.724 -52.685  11.753  1.00  0.00    -0.294 N 
ATOM      5  HN  UNL     2     -42.726 -52.169  10.873  1.00  0.00     0.183 HD
HETATM    6  N   UNL     2     -43.782 -53.177  12.381  1.00  0.00    -0.021 NA
ENDROOT
BRANCH   1   7
HETATM    7  C   UNL     2     -44.309 -54.449  14.450  1.00  0.00     0.161 C 
HETATM    8  C   UNL     2     -45.447 -55.166  13.743  1.00  0.00     0.298 C 
HETATM    9  N   UNL     2     -46.347 -54.022  13.924  1.00  0.00     0.087 N 
HETATM   10  C   UNL     2     -45.394 -53.491  14.904  1.00  0.00     0.298 C 
HETATM   11  H   UNL     2     -47.229 -54.322  14.401  1.00  0.00     0.316 HD
ENDBRANCH   1   7
TORSDOF 1
ENDMDL
MODEL 5
REMARK VINA RESULT:      -3.6      7.056      8.309
REMARK  1 active torsions:
REMARK  status: ('A' for Active; 'I' for Inactive)
REMARK    1  A    between atoms: C_6  and  N_7 
ROOT
HETATM    1  N   UNL     2     -40.310 -53.374  13.922  1.00  0.00    -0.277 N 
HETATM    2  C   UNL     2     -40.324 -53.925  15.147  1.00  0.00     0.126 A 
HETATM    3  C   UNL     2     -39.362 -54.908  15.147  1.00  0.00     0.123 A 
HETATM    4  N   UNL     2     -38.790 -54.927  13.926  1.00  0.00    -0.294 N 
ATOM      5  HN  UNL     2     -38.043 -55.550  13.617  1.00  0.00     0.183 HD
HETATM    6  N   UNL     2     -39.382 -53.987  13.203  1.00  0.00    -0.021 NA
ENDROOT
BRANCH   1   7
HETATM    7  C   UNL     2     -41.164 -52.274  13.456  1.00  0.00     0.161 C 
HETATM    8  C   UNL     2     -42.191 -52.755  12.444  1.00  0.00     0.298 C 
HETATM    9  N   UNL     2     -41.339 -52.361  11.318  1.00  0.00     0.087 N 
HETATM   10  C   UNL     2     -40.533 -51.582  12.263  1.00  0.00     0.298 C 
HETATM   11  H   UNL     2     -41.858 -51.723  10.670  1.00  0.00     0.316 HD
ENDBRANCH   1   7
TORSDOF 1
ENDMDL
MODEL 6
REMARK VINA RESULT:      -3.5      6.731      7.269
REMARK  1 active torsions:
REMARK  status: ('A' for Active; 'I' for Inactive)
REMARK    1  A    between atoms: C_6  and  N_7 
ROOT
HETATM    1  N   UNL     2     -43.095 -53.533  13.505  1.00  0.00    -0.277 N 
HETATM    2  C   UNL     2     -43.406 -54.368  14.511  1.00  0.00     0.126 A 
HETATM    3  C   UNL     2     -44.626 -54.920  14.200  1.00  0.00     0.123 A 
HETATM    4  N   UNL     2     -45.024 -54.408  13.019  1.00  0.00    -0.294 N 
ATOM      5  HN  UNL     2     -45.891 -54.623  12.527  1.00  0.00     0.183 HD
HETATM    6  N   UNL     2     -44.078 -53.571  12.618  1.00  0.00    -0.021 NA
ENDROOT
BRANCH   1   7
HETATM    7  C   UNL     2     -41.875 -52.724  13.396  1.00  0.00     0.161 C 
HETATM    8  C   UNL     2     -41.979 -51.705  12.273  1.00  0.00     0.298 C 
HETATM    9  N   UNL     2     -41.286 -52.593  11.335  1.00  0.00     0.087 N 
HETATM   10  C   UNL     2     -40.869 -53.402  12.485  1.00  0.00     0.298 C 
HETATM   11  H   UNL     2     -40.460 -52.109  10.912  1.00  0.00     0.316 HD
ENDBRANCH   1   7
TORSDOF 1
ENDMDL
MODEL 7
REMARK VINA RESULT:      -3.5      1.676      3.586
REMARK  1 active torsions:
REMARK  status: ('A' for Active; 'I' for Inactive)
REMARK    1  A    between atoms: C_6  and  N_7 
ROOT
HETATM    1  N   UNL     2     -42.994 -47.714  10.039  1.00  0.00    -0.277 N 
HETATM    2  C   UNL     2     -41.776 -48.220  10.293  1.00  0.00     0.126 A 
HETATM    3  C   UNL     2     -41.753 -48.536  11.631  1.00  0.00     0.123 A 
HETATM    4  N   UNL     2     -42.953 -48.214  12.153  1.00  0.00    -0.294 N 
ATOM      5  HN  UNL     2     -43.241 -48.330  13.125  1.00  0.00     0.183 HD
HETATM    6  N   UNL     2     -43.687 -47.719  11.167  1.00  0.00    -0.021 NA
ENDROOT
BRANCH   1   7
HETATM    7  C   UNL     2     -43.483 -47.244   8.737  1.00  0.00     0.161 C 
HETATM    8  C   UNL     2     -44.015 -45.822   8.820  1.00  0.00     0.298 C 
HETATM    9  N   UNL     2     -45.392 -46.294   8.991  1.00  0.00     0.087 N 
HETATM   10  C   UNL     2     -44.942 -47.618   8.552  1.00  0.00     0.298 C 
HETATM   11  H   UNL     2     -46.019 -45.866   8.270  1.00  0.00     0.316 HD
ENDBRANCH   1   7
TORSDOF 1
ENDMDL
MODEL 8
REMARK VINA RESULT:      -3.5      6.135      7.362
REMARK  1 active torsions:
REMARK  status: ('A' for Active; 'I' for Inactive)
REMARK    1  A    between atoms: C_6  and  N_7 
ROOT
HETATM    1  N   UNL     2     -39.270 -51.268  12.670  1.00  0.00    -0.277 N 
HETATM    2  C   UNL     2     -39.085 -50.126  11.987  1.00  0.00     0.126 A 
HETATM    3  C   UNL     2     -37.728 -49.990  11.808  1.00  0.00     0.123 A 
HETATM    4  N   UNL     2     -37.127 -51.049  12.384  1.00  0.00    -0.294 N 
ATOM      5  HN  UNL     2     -36.124 -51.231  12.419  1.00  0.00     0.183 HD
HETATM    6  N   UNL     2     -38.083 -51.809  12.898  1.00  0.00    -0.021 NA
ENDROOT
BRANCH   1   7
HETATM    7  C   UNL     2     -40.561 -51.831  13.084  1.00  0.00     0.161 C 
HETATM    8  C   UNL     2     -40.432 -53.292  13.483  1.00  0.00     0.298 C 
HETATM    9  N   UNL     2     -40.840 -53.744  12.149  1.00  0.00     0.087 N 
HETATM   10  C   UNL     2     -41.310 -52.381  11.884  1.00  0.00     0.298 C 
HETATM   11  H   UNL     2     -41.652 -54.401  12.217  1.00  0.00     0.316 HD
ENDBRANCH   1   7
TORSDOF 1
ENDMDL
MODEL 9
REMARK VINA RESULT:      -3.4     20.396     20.952
REMARK  1 active torsions:
REMARK  status: ('A' for Active; 'I' for Inactive)
REMARK    1  A    between atoms: C_6  and  N_7 
ROOT
HETATM    1  N   UNL     2     -30.540 -54.043  -5.445  1.00  0.00    -0.277 N 
HETATM    2  C   UNL     2     -31.550 -53.533  -6.169  1.00  0.00     0.126 A 
HETATM    3  C   UNL     2     -32.712 -53.867  -5.513  1.00  0.00     0.123 A 
HETATM    4  N   UNL     2     -32.379 -54.570  -4.412  1.00  0.00    -0.294 N 
ATOM      5  HN  UNL     2     -33.023 -54.958  -3.724  1.00  0.00     0.183 HD
HETATM    6  N   UNL     2     -31.057 -54.661  -4.393  1.00  0.00    -0.021 NA
ENDROOT
BRANCH   1   7
HETATM    7  C   UNL     2     -29.109 -53.931  -5.753  1.00  0.00     0.161 C 
HETATM    8  C   UNL     2     -28.405 -55.273  -5.636  1.00  0.00     0.298 C 
HETATM    9  N   UNL     2     -27.973 -54.982  -4.265  1.00  0.00     0.087 N 
HETATM   10  C   UNL     2     -28.324 -53.579  -4.504  1.00  0.00     0.298 C 
HETATM   11  H   UNL     2     -26.935 -55.087  -4.178  1.00  0.00     0.316 HD
ENDBRANCH   1   7
TORSDOF 1
ENDMDL
