MODEL 1
REMARK VINA RESULT:      -7.2      0.000      0.000
REMARK  4 active torsions:
REMARK  status: ('A' for Active; 'I' for Inactive)
REMARK    1  A    between atoms: C_5  and  C_6 
REMARK    2  A    between atoms: C_6  and  C_7 
REMARK    3  A    between atoms: C_7  and  N_8 
REMARK       I    between atoms: N_8  and  C_9 
REMARK       I    between atoms: C_9  and  N_11 
REMARK    4  A    between atoms: N_11  and  C_12 
ROOT
HETATM    1  N   UNL     1     -42.749 -48.541  11.341  1.00  0.00    -0.343 N 
HETATM    2  C   UNL     1     -41.794 -49.389  11.857  1.00  0.00     0.316 C 
HETATM    3  O   UNL     1     -40.586 -49.197  11.836  1.00  0.00    -0.247 OA
HETATM    4  N   UNL     1     -42.415 -50.473  12.391  1.00  0.00    -0.338 N 
HETATM    5  H   UNL     1     -43.659 -48.579  11.776  1.00  0.00     0.164 HD
HETATM    6  H   UNL     1     -43.363 -50.580  12.067  1.00  0.00     0.164 HD
ENDROOT
BRANCH   1   7
HETATM    7  C   UNL     1     -42.437 -47.339  10.603  1.00  0.00     0.129 C 
BRANCH   7   8
HETATM    8  C   UNL     1     -43.717 -46.627  10.168  1.00  0.00     0.060 C 
BRANCH   8   9
HETATM    9  C   UNL     1     -44.502 -47.442   9.182  1.00  0.00    -0.041 A 
HETATM   10  C   UNL     1     -45.818 -47.820   9.451  1.00  0.00     0.010 A 
HETATM   11  C   UNL     1     -46.526 -48.561   8.511  1.00  0.00     0.025 A 
HETATM   12  C   UNL     1     -45.898 -48.917   7.323  1.00  0.00     0.005 A 
HETATM   13  C   UNL     1     -46.645 -49.650   6.251  1.00  0.00     0.068 C 
HETATM   14  N   UNL     1     -44.611 -48.585   7.049  1.00  0.00    -0.369 N 
HETATM   15  C   UNL     1     -43.949 -47.863   7.979  1.00  0.00     0.095 A 
ATOM     16  HN  UNL     1     -44.163 -48.868   6.178  1.00  0.00     0.165 HD
ENDBRANCH   8   9
ENDBRANCH   7   8
ENDBRANCH   1   7
BRANCH   4  17
HETATM   17  C   UNL     1     -41.864 -51.530  13.231  1.00  0.00     0.091 C 
HETATM   18  C   UNL     1     -41.953 -52.839  12.451  1.00  0.00     0.051 C 
HETATM   19  C   UNL     1     -43.417 -53.219  12.242  1.00  0.00     0.171 C 
HETATM   20  O   UNL     1     -44.143 -53.305  13.458  1.00  0.00    -0.380 OA
HETATM   21  C   UNL     1     -44.078 -52.195  14.368  1.00  0.00     0.062 C 
HETATM   22  C   UNL     1     -44.673 -52.765  15.683  1.00  0.00     0.038 C 
HETATM   23  C   UNL     1     -44.959 -50.995  13.954  1.00  0.00     0.038 C 
HETATM   24  C   UNL     1     -42.614 -51.735  14.565  1.00  0.00     0.063 C 
HETATM   25  C   UNL     1     -46.163 -53.124  15.534  1.00  0.00     0.003 C 
HETATM   26  C   UNL     1     -47.001 -51.944  15.052  1.00  0.00     0.000 C 
HETATM   27  C   UNL     1     -46.429 -51.339  13.782  1.00  0.00     0.003 C 
ENDBRANCH   4  17
TORSDOF 4
ENDMDL
MODEL 2
REMARK VINA RESULT:      -7.0      1.645      2.160
REMARK  4 active torsions:
REMARK  status: ('A' for Active; 'I' for Inactive)
REMARK    1  A    between atoms: C_5  and  C_6 
REMARK    2  A    between atoms: C_6  and  C_7 
REMARK    3  A    between atoms: C_7  and  N_8 
REMARK       I    between atoms: N_8  and  C_9 
REMARK       I    between atoms: C_9  and  N_11 
REMARK    4  A    between atoms: N_11  and  C_12 
ROOT
HETATM    1  N   UNL     1     -41.439 -50.146  11.651  1.00  0.00    -0.343 N 
HETATM    2  C   UNL     1     -40.930 -51.242  12.314  1.00  0.00     0.316 C 
HETATM    3  O   UNL     1     -39.776 -51.643  12.244  1.00  0.00    -0.247 OA
HETATM    4  N   UNL     1     -41.921 -51.802  13.055  1.00  0.00    -0.338 N 
HETATM    5  H   UNL     1     -42.218 -49.681  12.093  1.00  0.00     0.164 HD
HETATM    6  H   UNL     1     -42.840 -51.507  12.768  1.00  0.00     0.164 HD
ENDROOT
BRANCH   1   7
HETATM    7  C   UNL     1     -40.687 -49.374  10.689  1.00  0.00     0.129 C 
BRANCH   7   8
HETATM    8  C   UNL     1     -41.106 -47.904  10.734  1.00  0.00     0.060 C 
BRANCH   8   9
HETATM    9  C   UNL     1     -42.506 -47.707  10.231  1.00  0.00    -0.041 A 
HETATM   10  C   UNL     1     -42.797 -47.791   8.869  1.00  0.00     0.010 A 
HETATM   11  C   UNL     1     -44.107 -47.620   8.434  1.00  0.00     0.025 A 
HETATM   12  C   UNL     1     -45.099 -47.359   9.373  1.00  0.00     0.005 A 
HETATM   13  C   UNL     1     -46.534 -47.243   8.958  1.00  0.00     0.068 C 
HETATM   14  N   UNL     1     -44.838 -47.246  10.699  1.00  0.00    -0.369 N 
HETATM   15  C   UNL     1     -43.557 -47.419  11.093  1.00  0.00     0.095 A 
ATOM     16  HN  UNL     1     -45.577 -47.039  11.371  1.00  0.00     0.165 HD
ENDBRANCH   8   9
ENDBRANCH   7   8
ENDBRANCH   1   7
BRANCH   4  17
HETATM   17  C   UNL     1     -41.832 -52.835  14.081  1.00  0.00     0.091 C 
HETATM   18  C   UNL     1     -42.221 -54.164  13.438  1.00  0.00     0.051 C 
HETATM   19  C   UNL     1     -43.693 -54.131  13.030  1.00  0.00     0.171 C 
HETATM   20  O   UNL     1     -44.557 -53.822  14.112  1.00  0.00    -0.380 OA
HETATM   21  C   UNL     1     -44.268 -52.655  14.900  1.00  0.00     0.062 C 
HETATM   22  C   UNL     1     -45.170 -52.826  16.150  1.00  0.00     0.038 C 
HETATM   23  C   UNL     1     -44.678 -51.327  14.223  1.00  0.00     0.038 C 
HETATM   24  C   UNL     1     -42.771 -52.613  15.286  1.00  0.00     0.063 C 
HETATM   25  C   UNL     1     -46.668 -52.757  15.795  1.00  0.00     0.003 C 
HETATM   26  C   UNL     1     -47.033 -51.471  15.062  1.00  0.00     0.000 C 
HETATM   27  C   UNL     1     -46.148 -51.254  13.847  1.00  0.00     0.003 C 
ENDBRANCH   4  17
TORSDOF 4
ENDMDL
MODEL 3
REMARK VINA RESULT:      -6.7      3.938      8.314
REMARK  4 active torsions:
REMARK  status: ('A' for Active; 'I' for Inactive)
REMARK    1  A    between atoms: C_5  and  C_6 
REMARK    2  A    between atoms: C_6  and  C_7 
REMARK    3  A    between atoms: C_7  and  N_8 
REMARK       I    between atoms: N_8  and  C_9 
REMARK       I    between atoms: C_9  and  N_11 
REMARK    4  A    between atoms: N_11  and  C_12 
ROOT
HETATM    1  N   UNL     1     -40.228 -49.701  10.776  1.00  0.00    -0.343 N 
HETATM    2  C   UNL     1     -41.351 -49.358  11.496  1.00  0.00     0.316 C 
HETATM    3  O   UNL     1     -41.556 -49.635  12.670  1.00  0.00    -0.247 OA
HETATM    4  N   UNL     1     -42.193 -48.663  10.686  1.00  0.00    -0.338 N 
HETATM    5  H   UNL     1     -39.984 -49.087  10.013  1.00  0.00     0.164 HD
HETATM    6  H   UNL     1     -41.981 -48.780   9.708  1.00  0.00     0.164 HD
ENDROOT
BRANCH   1   7
HETATM    7  C   UNL     1     -39.170 -50.537  11.296  1.00  0.00     0.129 C 
BRANCH   7   8
HETATM    8  C   UNL     1     -37.945 -49.695  11.651  1.00  0.00     0.060 C 
BRANCH   8   9
HETATM    9  C   UNL     1     -37.943 -49.294  13.097  1.00  0.00    -0.041 A 
HETATM   10  C   UNL     1     -38.358 -48.021  13.489  1.00  0.00     0.010 A 
HETATM   11  C   UNL     1     -38.362 -47.684  14.839  1.00  0.00     0.025 A 
HETATM   12  C   UNL     1     -37.939 -48.627  15.769  1.00  0.00     0.005 A 
HETATM   13  C   UNL     1     -37.997 -48.334  17.237  1.00  0.00     0.068 C 
HETATM   14  N   UNL     1     -37.505 -49.862  15.412  1.00  0.00    -0.369 N 
HETATM   15  C   UNL     1     -37.515 -50.162  14.094  1.00  0.00     0.095 A 
ATOM     16  HN  UNL     1     -37.185 -50.535  16.108  1.00  0.00     0.165 HD
ENDBRANCH   8   9
ENDBRANCH   7   8
ENDBRANCH   1   7
BRANCH   4  17
HETATM   17  C   UNL     1     -43.394 -47.911  11.033  1.00  0.00     0.091 C 
HETATM   18  C   UNL     1     -44.047 -47.451   9.732  1.00  0.00     0.051 C 
HETATM   19  C   UNL     1     -43.139 -46.449   9.023  1.00  0.00     0.171 C 
HETATM   20  O   UNL     1     -42.802 -45.339   9.838  1.00  0.00    -0.380 OA
HETATM   21  C   UNL     1     -42.273 -45.594  11.150  1.00  0.00     0.062 C 
HETATM   22  C   UNL     1     -42.353 -44.214  11.852  1.00  0.00     0.038 C 
HETATM   23  C   UNL     1     -40.786 -46.019  11.152  1.00  0.00     0.038 C 
HETATM   24  C   UNL     1     -43.128 -46.653  11.887  1.00  0.00     0.063 C 
HETATM   25  C   UNL     1     -41.420 -43.177  11.197  1.00  0.00     0.003 C 
HETATM   26  C   UNL     1     -39.971 -43.651  11.144  1.00  0.00     0.000 C 
HETATM   27  C   UNL     1     -39.857 -45.016  10.490  1.00  0.00     0.003 C 
ENDBRANCH   4  17
TORSDOF 4
ENDMDL
MODEL 4
REMARK VINA RESULT:      -6.7      2.649      3.950
REMARK  4 active torsions:
REMARK  status: ('A' for Active; 'I' for Inactive)
REMARK    1  A    between atoms: C_5  and  C_6 
REMARK    2  A    between atoms: C_6  and  C_7 
REMARK    3  A    between atoms: C_7  and  N_8 
REMARK       I    between atoms: N_8  and  C_9 
REMARK       I    between atoms: C_9  and  N_11 
REMARK    4  A    between atoms: N_11  and  C_12 
ROOT
HETATM    1  N   UNL     1     -41.799 -49.889  11.569  1.00  0.00    -0.343 N 
HETATM    2  C   UNL     1     -41.162 -50.910  12.240  1.00  0.00     0.316 C 
HETATM    3  O   UNL     1     -39.953 -51.098  12.266  1.00  0.00    -0.247 OA
HETATM    4  N   UNL     1     -42.098 -51.671  12.866  1.00  0.00    -0.338 N 
HETATM    5  H   UNL     1     -42.684 -49.590  11.951  1.00  0.00     0.164 HD
HETATM    6  H   UNL     1     -43.026 -51.528  12.503  1.00  0.00     0.164 HD
ENDROOT
BRANCH   1   7
HETATM    7  C   UNL     1     -41.117 -48.950  10.708  1.00  0.00     0.129 C 
BRANCH   7   8
HETATM    8  C   UNL     1     -42.091 -47.892  10.189  1.00  0.00     0.060 C 
BRANCH   8   9
HETATM    9  C   UNL     1     -41.670 -46.506  10.580  1.00  0.00    -0.041 A 
HETATM   10  C   UNL     1     -40.328 -46.203  10.812  1.00  0.00     0.010 A 
HETATM   11  C   UNL     1     -39.966 -44.905  11.157  1.00  0.00     0.025 A 
HETATM   12  C   UNL     1     -40.958 -43.938  11.273  1.00  0.00     0.005 A 
HETATM   13  C   UNL     1     -40.607 -42.511  11.568  1.00  0.00     0.068 C 
HETATM   14  N   UNL     1     -42.272 -44.213  11.079  1.00  0.00    -0.369 N 
HETATM   15  C   UNL     1     -42.594 -45.481  10.743  1.00  0.00     0.095 A 
ATOM     16  HN  UNL     1     -42.987 -43.493  11.183  1.00  0.00     0.165 HD
ENDBRANCH   8   9
ENDBRANCH   7   8
ENDBRANCH   1   7
BRANCH   4  17
HETATM   17  C   UNL     1     -41.914 -52.723  13.860  1.00  0.00     0.091 C 
HETATM   18  C   UNL     1     -42.320 -54.047  13.218  1.00  0.00     0.051 C 
HETATM   19  C   UNL     1     -43.816 -54.039  12.915  1.00  0.00     0.171 C 
HETATM   20  O   UNL     1     -44.608 -53.771  14.061  1.00  0.00    -0.380 OA
HETATM   21  C   UNL     1     -44.289 -52.614  14.852  1.00  0.00     0.062 C 
HETATM   22  C   UNL     1     -45.097 -52.830  16.159  1.00  0.00     0.038 C 
HETATM   23  C   UNL     1     -44.774 -51.282  14.234  1.00  0.00     0.038 C 
HETATM   24  C   UNL     1     -42.769 -52.546  15.133  1.00  0.00     0.063 C 
HETATM   25  C   UNL     1     -46.617 -52.788  15.912  1.00  0.00     0.003 C 
HETATM   26  C   UNL     1     -47.061 -51.496  15.233  1.00  0.00     0.000 C 
HETATM   27  C   UNL     1     -46.268 -51.235  13.965  1.00  0.00     0.003 C 
ENDBRANCH   4  17
TORSDOF 4
ENDMDL
MODEL 5
REMARK VINA RESULT:      -6.6      3.179      6.610
REMARK  4 active torsions:
REMARK  status: ('A' for Active; 'I' for Inactive)
REMARK    1  A    between atoms: C_5  and  C_6 
REMARK    2  A    between atoms: C_6  and  C_7 
REMARK    3  A    between atoms: C_7  and  N_8 
REMARK       I    between atoms: N_8  and  C_9 
REMARK       I    between atoms: C_9  and  N_11 
REMARK    4  A    between atoms: N_11  and  C_12 
ROOT
HETATM    1  N   UNL     1     -40.036 -52.188  14.074  1.00  0.00    -0.343 N 
HETATM    2  C   UNL     1     -38.993 -51.468  13.533  1.00  0.00     0.316 C 
HETATM    3  O   UNL     1     -38.032 -51.940  12.943  1.00  0.00    -0.247 OA
HETATM    4  N   UNL     1     -39.210 -50.146  13.766  1.00  0.00    -0.338 N 
HETATM    5  H   UNL     1     -40.922 -51.709  14.137  1.00  0.00     0.164 HD
HETATM    6  H   UNL     1     -39.889 -49.982  14.491  1.00  0.00     0.164 HD
ENDROOT
BRANCH   1   7
HETATM    7  C   UNL     1     -40.078 -53.632  14.103  1.00  0.00     0.129 C 
BRANCH   7   8
HETATM    8  C   UNL     1     -40.977 -54.166  12.988  1.00  0.00     0.060 C 
BRANCH   8   9
HETATM    9  C   UNL     1     -42.396 -53.702  13.144  1.00  0.00    -0.041 A 
HETATM   10  C   UNL     1     -43.242 -54.287  14.086  1.00  0.00     0.010 A 
HETATM   11  C   UNL     1     -44.547 -53.825  14.219  1.00  0.00     0.025 A 
HETATM   12  C   UNL     1     -44.981 -52.791  13.398  1.00  0.00     0.005 A 
HETATM   13  C   UNL     1     -46.354 -52.210  13.558  1.00  0.00     0.068 C 
HETATM   14  N   UNL     1     -44.187 -52.223  12.456  1.00  0.00    -0.369 N 
HETATM   15  C   UNL     1     -42.924 -52.691  12.351  1.00  0.00     0.095 A 
ATOM     16  HN  UNL     1     -44.529 -51.475  11.853  1.00  0.00     0.165 HD
ENDBRANCH   8   9
ENDBRANCH   7   8
ENDBRANCH   1   7
BRANCH   4  17
HETATM   17  C   UNL     1     -38.515 -48.988  13.215  1.00  0.00     0.091 C 
HETATM   18  C   UNL     1     -38.597 -47.863  14.244  1.00  0.00     0.051 C 
HETATM   19  C   UNL     1     -40.048 -47.417  14.409  1.00  0.00     0.171 C 
HETATM   20  O   UNL     1     -40.646 -47.025  13.184  1.00  0.00    -0.380 OA
HETATM   21  C   UNL     1     -40.563 -47.927  12.068  1.00  0.00     0.062 C 
HETATM   22  C   UNL     1     -40.991 -47.054  10.859  1.00  0.00     0.038 C 
HETATM   23  C   UNL     1     -41.554 -49.111  12.146  1.00  0.00     0.038 C 
HETATM   24  C   UNL     1     -39.118 -48.455  11.898  1.00  0.00     0.063 C 
HETATM   25  C   UNL     1     -42.465 -46.614  10.958  1.00  0.00     0.003 C 
HETATM   26  C   UNL     1     -43.416 -47.796  11.110  1.00  0.00     0.000 C 
HETATM   27  C   UNL     1     -43.009 -48.691  12.266  1.00  0.00     0.003 C 
ENDBRANCH   4  17
TORSDOF 4
ENDMDL
MODEL 6
REMARK VINA RESULT:      -6.6      3.192      6.196
REMARK  4 active torsions:
REMARK  status: ('A' for Active; 'I' for Inactive)
REMARK    1  A    between atoms: C_5  and  C_6 
REMARK    2  A    between atoms: C_6  and  C_7 
REMARK    3  A    between atoms: C_7  and  N_8 
REMARK       I    between atoms: N_8  and  C_9 
REMARK       I    between atoms: C_9  and  N_11 
REMARK    4  A    between atoms: N_11  and  C_12 
ROOT
HETATM    1  N   UNL     1     -41.244 -52.343  14.385  1.00  0.00    -0.343 N 
HETATM    2  C   UNL     1     -40.520 -52.250  13.216  1.00  0.00     0.316 C 
HETATM    3  O   UNL     1     -40.576 -53.036  12.280  1.00  0.00    -0.247 OA
HETATM    4  N   UNL     1     -39.734 -51.143  13.277  1.00  0.00    -0.338 N 
HETATM    5  H   UNL     1     -41.439 -51.473  14.858  1.00  0.00     0.164 HD
HETATM    6  H   UNL     1     -39.622 -50.793  14.215  1.00  0.00     0.164 HD
ENDROOT
BRANCH   1   7
HETATM    7  C   UNL     1     -42.105 -53.458  14.705  1.00  0.00     0.129 C 
BRANCH   7   8
HETATM    8  C   UNL     1     -43.390 -52.971  15.375  1.00  0.00     0.060 C 
BRANCH   8   9
HETATM    9  C   UNL     1     -44.443 -52.614  14.367  1.00  0.00    -0.041 A 
HETATM   10  C   UNL     1     -45.533 -51.818  14.721  1.00  0.00     0.010 A 
HETATM   11  C   UNL     1     -46.485 -51.489  13.761  1.00  0.00     0.025 A 
HETATM   12  C   UNL     1     -46.331 -51.974  12.468  1.00  0.00     0.005 A 
HETATM   13  C   UNL     1     -47.290 -51.585  11.384  1.00  0.00     0.068 C 
HETATM   14  N   UNL     1     -45.295 -52.772  12.105  1.00  0.00    -0.369 N 
HETATM   15  C   UNL     1     -44.385 -53.073  13.057  1.00  0.00     0.095 A 
ATOM     16  HN  UNL     1     -45.208 -53.130  11.154  1.00  0.00     0.165 HD
ENDBRANCH   8   9
ENDBRANCH   7   8
ENDBRANCH   1   7
BRANCH   4  17
HETATM   17  C   UNL     1     -38.958 -50.505  12.220  1.00  0.00     0.091 C 
HETATM   18  C   UNL     1     -37.916 -49.608  12.884  1.00  0.00     0.051 C 
HETATM   19  C   UNL     1     -38.610 -48.462  13.616  1.00  0.00     0.171 C 
HETATM   20  O   UNL     1     -39.463 -47.706  12.773  1.00  0.00    -0.380 OA
HETATM   21  C   UNL     1     -40.438 -48.409  11.985  1.00  0.00     0.062 C 
HETATM   22  C   UNL     1     -40.924 -47.344  10.968  1.00  0.00     0.038 C 
HETATM   23  C   UNL     1     -41.677 -48.868  12.788  1.00  0.00     0.038 C 
HETATM   24  C   UNL     1     -39.792 -49.619  11.269  1.00  0.00     0.063 C 
HETATM   25  C   UNL     1     -41.670 -46.185  11.657  1.00  0.00     0.003 C 
HETATM   26  C   UNL     1     -42.843 -46.670  12.503  1.00  0.00     0.000 C 
HETATM   27  C   UNL     1     -42.410 -47.738  13.491  1.00  0.00     0.003 C 
ENDBRANCH   4  17
TORSDOF 4
ENDMDL
MODEL 7
REMARK VINA RESULT:      -6.6      3.915      6.535
REMARK  4 active torsions:
REMARK  status: ('A' for Active; 'I' for Inactive)
REMARK    1  A    between atoms: C_5  and  C_6 
REMARK    2  A    between atoms: C_6  and  C_7 
REMARK    3  A    between atoms: C_7  and  N_8 
REMARK       I    between atoms: N_8  and  C_9 
REMARK       I    between atoms: C_9  and  N_11 
REMARK    4  A    between atoms: N_11  and  C_12 
ROOT
HETATM    1  N   UNL     1     -43.431 -54.037  16.897  1.00  0.00    -0.343 N 
HETATM    2  C   UNL     1     -42.796 -54.700  15.869  1.00  0.00     0.316 C 
HETATM    3  O   UNL     1     -43.246 -55.656  15.254  1.00  0.00    -0.247 OA
HETATM    4  N   UNL     1     -41.588 -54.115  15.654  1.00  0.00    -0.338 N 
HETATM    5  H   UNL     1     -43.184 -53.067  17.020  1.00  0.00     0.164 HD
HETATM    6  H   UNL     1     -41.288 -53.542  16.425  1.00  0.00     0.164 HD
ENDROOT
BRANCH   1   7
HETATM    7  C   UNL     1     -44.693 -54.459  17.461  1.00  0.00     0.129 C 
BRANCH   7   8
HETATM    8  C   UNL     1     -45.719 -53.329  17.388  1.00  0.00     0.060 C 
BRANCH   8   9
HETATM    9  C   UNL     1     -46.015 -52.936  15.970  1.00  0.00    -0.041 A 
HETATM   10  C   UNL     1     -46.003 -51.597  15.580  1.00  0.00     0.010 A 
HETATM   11  C   UNL     1     -46.264 -51.263  14.255  1.00  0.00     0.025 A 
HETATM   12  C   UNL     1     -46.544 -52.280  13.349  1.00  0.00     0.005 A 
HETATM   13  C   UNL     1     -46.758 -51.975  11.897  1.00  0.00     0.068 C 
HETATM   14  N   UNL     1     -46.589 -53.587  13.708  1.00  0.00    -0.369 N 
HETATM   15  C   UNL     1     -46.328 -53.881  15.001  1.00  0.00     0.095 A 
ATOM     16  HN  UNL     1     -46.810 -54.317  13.031  1.00  0.00     0.165 HD
ENDBRANCH   8   9
ENDBRANCH   7   8
ENDBRANCH   1   7
BRANCH   4  17
HETATM   17  C   UNL     1     -40.653 -54.312  14.552  1.00  0.00     0.091 C 
HETATM   18  C   UNL     1     -39.331 -53.655  14.941  1.00  0.00     0.051 C 
HETATM   19  C   UNL     1     -39.515 -52.142  15.043  1.00  0.00     0.171 C 
HETATM   20  O   UNL     1     -40.033 -51.569  13.853  1.00  0.00    -0.380 OA
HETATM   21  C   UNL     1     -41.222 -52.143  13.284  1.00  0.00     0.062 C 
HETATM   22  C   UNL     1     -41.287 -51.519  11.866  1.00  0.00     0.038 C 
HETATM   23  C   UNL     1     -42.523 -51.741  14.017  1.00  0.00     0.038 C 
HETATM   24  C   UNL     1     -41.106 -53.685  13.217  1.00  0.00     0.063 C 
HETATM   25  C   UNL     1     -41.515 -49.996  11.915  1.00  0.00     0.003 C 
HETATM   26  C   UNL     1     -42.763 -49.620  12.708  1.00  0.00     0.000 C 
HETATM   27  C   UNL     1     -42.749 -50.241  14.093  1.00  0.00     0.003 C 
ENDBRANCH   4  17
TORSDOF 4
ENDMDL
MODEL 8
REMARK VINA RESULT:      -6.4      3.154      7.513
REMARK  4 active torsions:
REMARK  status: ('A' for Active; 'I' for Inactive)
REMARK    1  A    between atoms: C_5  and  C_6 
REMARK    2  A    between atoms: C_6  and  C_7 
REMARK    3  A    between atoms: C_7  and  N_8 
REMARK       I    between atoms: N_8  and  C_9 
REMARK       I    between atoms: C_9  and  N_11 
REMARK    4  A    between atoms: N_11  and  C_12 
ROOT
HETATM    1  N   UNL     1     -44.042 -51.777  12.595  1.00  0.00    -0.343 N 
HETATM    2  C   UNL     1     -44.011 -50.577  13.271  1.00  0.00     0.316 C 
HETATM    3  O   UNL     1     -44.427 -50.388  14.405  1.00  0.00    -0.247 OA
HETATM    4  N   UNL     1     -43.442 -49.639  12.468  1.00  0.00    -0.338 N 
HETATM    5  H   UNL     1     -43.325 -51.913  11.897  1.00  0.00     0.164 HD
HETATM    6  H   UNL     1     -43.425 -49.912  11.498  1.00  0.00     0.164 HD
ENDROOT
BRANCH   1   7
HETATM    7  C   UNL     1     -44.676 -52.969  13.111  1.00  0.00     0.129 C 
BRANCH   7   8
HETATM    8  C   UNL     1     -43.806 -54.197  12.847  1.00  0.00     0.060 C 
BRANCH   8   9
HETATM    9  C   UNL     1     -42.527 -54.156  13.632  1.00  0.00    -0.041 A 
HETATM   10  C   UNL     1     -41.290 -54.207  12.990  1.00  0.00     0.010 A 
HETATM   11  C   UNL     1     -40.122 -54.149  13.743  1.00  0.00     0.025 A 
HETATM   12  C   UNL     1     -40.217 -54.051  15.126  1.00  0.00     0.005 A 
HETATM   13  C   UNL     1     -38.988 -53.910  15.972  1.00  0.00     0.068 C 
HETATM   14  N   UNL     1     -41.408 -54.026  15.777  1.00  0.00    -0.369 N 
HETATM   15  C   UNL     1     -42.526 -54.082  15.020  1.00  0.00     0.095 A 
ATOM     16  HN  UNL     1     -41.457 -53.969  16.794  1.00  0.00     0.165 HD
ENDBRANCH   8   9
ENDBRANCH   7   8
ENDBRANCH   1   7
BRANCH   4  17
HETATM   17  C   UNL     1     -42.997 -48.290  12.800  1.00  0.00     0.091 C 
HETATM   18  C   UNL     1     -42.719 -47.556  11.490  1.00  0.00     0.051 C 
HETATM   19  C   UNL     1     -41.536 -48.203  10.774  1.00  0.00     0.171 C 
HETATM   20  O   UNL     1     -40.369 -48.258  11.579  1.00  0.00    -0.380 OA
HETATM   21  C   UNL     1     -40.478 -48.822  12.897  1.00  0.00     0.062 C 
HETATM   22  C   UNL     1     -39.150 -48.408  13.583  1.00  0.00     0.038 C 
HETATM   23  C   UNL     1     -40.534 -50.367  12.912  1.00  0.00     0.038 C 
HETATM   24  C   UNL     1     -41.703 -48.240  13.641  1.00  0.00     0.063 C 
HETATM   25  C   UNL     1     -37.927 -49.070  12.921  1.00  0.00     0.003 C 
HETATM   26  C   UNL     1     -38.039 -50.591  12.881  1.00  0.00     0.000 C 
HETATM   27  C   UNL     1     -39.344 -51.034  12.243  1.00  0.00     0.003 C 
ENDBRANCH   4  17
TORSDOF 4
ENDMDL
MODEL 9
REMARK VINA RESULT:      -6.4      3.257      6.769
REMARK  4 active torsions:
REMARK  status: ('A' for Active; 'I' for Inactive)
REMARK    1  A    between atoms: C_5  and  C_6 
REMARK    2  A    between atoms: C_6  and  C_7 
REMARK    3  A    between atoms: C_7  and  N_8 
REMARK       I    between atoms: N_8  and  C_9 
REMARK       I    between atoms: C_9  and  N_11 
REMARK    4  A    between atoms: N_11  and  C_12 
ROOT
HETATM    1  N   UNL     1     -42.257 -52.604  13.221  1.00  0.00    -0.343 N 
HETATM    2  C   UNL     1     -40.905 -52.389  13.071  1.00  0.00     0.316 C 
HETATM    3  O   UNL     1     -40.080 -53.235  12.756  1.00  0.00    -0.247 OA
HETATM    4  N   UNL     1     -40.641 -51.081  13.331  1.00  0.00    -0.338 N 
HETATM    5  H   UNL     1     -42.856 -51.809  13.057  1.00  0.00     0.164 HD
HETATM    6  H   UNL     1     -41.383 -50.624  13.834  1.00  0.00     0.164 HD
ENDROOT
BRANCH   1   7
HETATM    7  C   UNL     1     -42.875 -53.907  13.125  1.00  0.00     0.129 C 
BRANCH   7   8
HETATM    8  C   UNL     1     -44.314 -53.785  12.624  1.00  0.00     0.060 C 
BRANCH   8   9
HETATM    9  C   UNL     1     -45.198 -53.109  13.631  1.00  0.00    -0.041 A 
HETATM   10  C   UNL     1     -45.903 -51.950  13.303  1.00  0.00     0.010 A 
HETATM   11  C   UNL     1     -46.728 -51.355  14.251  1.00  0.00     0.025 A 
HETATM   12  C   UNL     1     -46.824 -51.928  15.514  1.00  0.00     0.005 A 
HETATM   13  C   UNL     1     -47.758 -51.365  16.542  1.00  0.00     0.068 C 
HETATM   14  N   UNL     1     -46.129 -53.039  15.867  1.00  0.00    -0.369 N 
HETATM   15  C   UNL     1     -45.337 -53.596  14.924  1.00  0.00     0.095 A 
ATOM     16  HN  UNL     1     -46.201 -53.436  16.803  1.00  0.00     0.165 HD
ENDBRANCH   8   9
ENDBRANCH   7   8
ENDBRANCH   1   7
BRANCH   4  17
HETATM   17  C   UNL     1     -39.413 -50.327  13.103  1.00  0.00     0.091 C 
HETATM   18  C   UNL     1     -39.138 -49.496  14.354  1.00  0.00     0.051 C 
HETATM   19  C   UNL     1     -40.229 -48.442  14.526  1.00  0.00     0.171 C 
HETATM   20  O   UNL     1     -40.373 -47.608  13.388  1.00  0.00    -0.380 OA
HETATM   21  C   UNL     1     -40.531 -48.232  12.103  1.00  0.00     0.062 C 
HETATM   22  C   UNL     1     -40.310 -47.069  11.101  1.00  0.00     0.038 C 
HETATM   23  C   UNL     1     -41.952 -48.786  11.848  1.00  0.00     0.038 C 
HETATM   24  C   UNL     1     -39.483 -49.353  11.907  1.00  0.00     0.063 C 
HETATM   25  C   UNL     1     -41.412 -45.997  11.207  1.00  0.00     0.003 C 
HETATM   26  C   UNL     1     -42.810 -46.581  11.027  1.00  0.00     0.000 C 
HETATM   27  C   UNL     1     -43.052 -47.745  11.972  1.00  0.00     0.003 C 
ENDBRANCH   4  17
TORSDOF 4
ENDMDL
