MODEL 1
REMARK VINA RESULT:      -6.1      0.000      0.000
REMARK  4 active torsions:
REMARK  status: ('A' for Active; 'I' for Inactive)
REMARK    1  A    between atoms: C_2  and  C_3 
REMARK    2  A    between atoms: C_2  and  N_10 
REMARK    3  A    between atoms: C_3  and  N_4 
REMARK       I    between atoms: N_10  and  C_11 
REMARK       I    between atoms: C_11  and  N_13 
REMARK    4  A    between atoms: N_13  and  C_14 
ROOT
HETATM    1  N   UNL     1     -40.773 -50.957  11.609  1.00  0.00    -0.337 N 
HETATM    2  C   UNL     1     -41.894 -51.312  12.326  1.00  0.00     0.322 C 
HETATM    3  O   UNL     1     -42.327 -50.670  13.271  1.00  0.00    -0.247 OA
HETATM    4  N   UNL     1     -42.433 -52.453  11.792  1.00  0.00    -0.293 N 
HETATM    5  H   UNL     1     -40.203 -51.746  11.345  1.00  0.00     0.164 HD
HETATM    6  H   UNL     1     -42.321 -52.559  10.795  1.00  0.00     0.172 HD
ENDROOT
BRANCH   1   7
HETATM    7  C   UNL     1     -40.088 -49.676  11.792  1.00  0.00     0.110 C 
HETATM    8  C   UNL     1     -38.613 -49.857  11.439  1.00  0.00     0.034 C 
BRANCH   7   9
HETATM    9  C   UNL     1     -40.781 -48.497  11.038  1.00  0.00     0.297 C 
BRANCH   9  10
HETATM   10  N   UNL     1     -41.268 -47.335  11.825  1.00  0.00     0.094 N 
HETATM   11  C   UNL     1     -42.534 -46.748  11.349  1.00  0.00     0.298 C 
HETATM   12  C   UNL     1     -42.406 -46.039   9.992  1.00  0.00     0.198 C 
HETATM   13  O   UNL     1     -41.468 -44.966  10.073  1.00  0.00    -0.388 OA
HETATM   14  C   UNL     1     -40.186 -45.432  10.513  1.00  0.00     0.198 C 
HETATM   15  C   UNL     1     -40.266 -46.234  11.830  1.00  0.00     0.298 C 
ENDBRANCH   9  10
ENDBRANCH   7   9
ENDBRANCH   1   7
BRANCH   4  16
HETATM   16  C   UNL     1     -43.546 -53.082  12.292  1.00  0.00     0.132 A 
HETATM   17  C   UNL     1     -43.630 -54.291  13.013  1.00  0.00     0.084 A 
HETATM   18  C   UNL     1     -44.968 -54.430  13.284  1.00  0.00     0.076 A 
HETATM   19  C   UNL     1     -45.781 -55.426  14.001  1.00  0.00     0.079 C 
HETATM   20  O   UNL     1     -45.644 -53.383  12.740  1.00  0.00    -0.241 OA
HETATM   21  N   UNL     1     -44.757 -52.561  12.074  1.00  0.00    -0.245 N 
ATOM     22  HN  UNL     1     -44.980 -51.729  11.528  1.00  0.00     0.196 HD
ENDBRANCH   4  16
TORSDOF 4
ENDMDL
MODEL 2
REMARK VINA RESULT:      -6.0      4.383      5.265
REMARK  4 active torsions:
REMARK  status: ('A' for Active; 'I' for Inactive)
REMARK    1  A    between atoms: C_2  and  C_3 
REMARK    2  A    between atoms: C_2  and  N_10 
REMARK    3  A    between atoms: C_3  and  N_4 
REMARK       I    between atoms: N_10  and  C_11 
REMARK       I    between atoms: C_11  and  N_13 
REMARK    4  A    between atoms: N_13  and  C_14 
ROOT
HETATM    1  N   UNL     1     -39.847 -48.378  11.160  1.00  0.00    -0.337 N 
HETATM    2  C   UNL     1     -41.188 -48.587  10.927  1.00  0.00     0.322 C 
HETATM    3  O   UNL     1     -41.869 -49.388  11.551  1.00  0.00    -0.247 OA
HETATM    4  N   UNL     1     -41.613 -47.749   9.929  1.00  0.00    -0.293 N 
HETATM    5  H   UNL     1     -39.313 -48.237  10.316  1.00  0.00     0.164 HD
HETATM    6  H   UNL     1     -41.146 -46.856   9.887  1.00  0.00     0.172 HD
ENDROOT
BRANCH   1   7
HETATM    7  C   UNL     1     -39.141 -48.963  12.301  1.00  0.00     0.110 C 
HETATM    8  C   UNL     1     -37.864 -49.630  11.795  1.00  0.00     0.034 C 
BRANCH   7   9
HETATM    9  C   UNL     1     -38.907 -47.948  13.465  1.00  0.00     0.297 C 
BRANCH   9  10
HETATM   10  N   UNL     1     -40.083 -47.269  14.067  1.00  0.00     0.094 N 
HETATM   11  C   UNL     1     -40.341 -45.908  13.564  1.00  0.00     0.298 C 
HETATM   12  C   UNL     1     -39.273 -44.887  13.989  1.00  0.00     0.198 C 
HETATM   13  O   UNL     1     -39.214 -44.788  15.413  1.00  0.00    -0.388 OA
HETATM   14  C   UNL     1     -38.949 -46.064  16.009  1.00  0.00     0.198 C 
HETATM   15  C   UNL     1     -39.937 -47.154  15.543  1.00  0.00     0.298 C 
ENDBRANCH   9  10
ENDBRANCH   7   9
ENDBRANCH   1   7
BRANCH   4  16
HETATM   16  C   UNL     1     -42.896 -47.726   9.442  1.00  0.00     0.132 A 
HETATM   17  C   UNL     1     -44.083 -47.337  10.096  1.00  0.00     0.084 A 
HETATM   18  C   UNL     1     -45.057 -47.484   9.141  1.00  0.00     0.076 A 
HETATM   19  C   UNL     1     -46.511 -47.255   9.102  1.00  0.00     0.079 C 
HETATM   20  O   UNL     1     -44.493 -47.953   7.996  1.00  0.00    -0.241 OA
HETATM   21  N   UNL     1     -43.142 -48.152   8.200  1.00  0.00    -0.245 N 
ATOM     22  HN  UNL     1     -42.471 -48.544   7.540  1.00  0.00     0.196 HD
ENDBRANCH   4  16
TORSDOF 4
ENDMDL
MODEL 3
REMARK VINA RESULT:      -5.9      4.477      6.092
REMARK  4 active torsions:
REMARK  status: ('A' for Active; 'I' for Inactive)
REMARK    1  A    between atoms: C_2  and  C_3 
REMARK    2  A    between atoms: C_2  and  N_10 
REMARK    3  A    between atoms: C_3  and  N_4 
REMARK       I    between atoms: N_10  and  C_11 
REMARK       I    between atoms: C_11  and  N_13 
REMARK    4  A    between atoms: N_13  and  C_14 
ROOT
HETATM    1  N   UNL     1     -39.664 -48.235  11.279  1.00  0.00    -0.337 N 
HETATM    2  C   UNL     1     -40.959 -48.557  10.940  1.00  0.00     0.322 C 
HETATM    3  O   UNL     1     -41.534 -49.561  11.332  1.00  0.00    -0.247 OA
HETATM    4  N   UNL     1     -41.477 -47.575  10.136  1.00  0.00    -0.293 N 
HETATM    5  H   UNL     1     -39.140 -47.835  10.517  1.00  0.00     0.164 HD
HETATM    6  H   UNL     1     -41.138 -46.643  10.320  1.00  0.00     0.172 HD
ENDROOT
BRANCH   1   7
HETATM    7  C   UNL     1     -38.905 -48.969  12.293  1.00  0.00     0.110 C 
HETATM    8  C   UNL     1     -37.801 -49.761  11.596  1.00  0.00     0.034 C 
BRANCH   7   9
HETATM    9  C   UNL     1     -38.396 -48.061  13.457  1.00  0.00     0.297 C 
BRANCH   9  10
HETATM   10  N   UNL     1     -38.782 -48.403  14.850  1.00  0.00     0.094 N 
HETATM   11  C   UNL     1     -38.111 -47.609  15.895  1.00  0.00     0.298 C 
HETATM   12  C   UNL     1     -36.609 -47.907  16.018  1.00  0.00     0.198 C 
HETATM   13  O   UNL     1     -36.396 -49.279  16.353  1.00  0.00    -0.388 OA
HETATM   14  C   UNL     1     -36.998 -50.147  15.385  1.00  0.00     0.198 C 
HETATM   15  C   UNL     1     -38.491 -49.831  15.151  1.00  0.00     0.298 C 
ENDBRANCH   9  10
ENDBRANCH   7   9
ENDBRANCH   1   7
BRANCH   4  16
HETATM   16  C   UNL     1     -42.742 -47.607   9.604  1.00  0.00     0.132 A 
HETATM   17  C   UNL     1     -43.972 -47.311  10.227  1.00  0.00     0.084 A 
HETATM   18  C   UNL     1     -44.902 -47.480   9.233  1.00  0.00     0.076 A 
HETATM   19  C   UNL     1     -46.365 -47.332   9.149  1.00  0.00     0.079 C 
HETATM   20  O   UNL     1     -44.273 -47.872   8.094  1.00  0.00    -0.241 OA
HETATM   21  N   UNL     1     -42.920 -48.002   8.339  1.00  0.00    -0.245 N 
ATOM     22  HN  UNL     1     -42.205 -48.330   7.691  1.00  0.00     0.196 HD
ENDBRANCH   4  16
TORSDOF 4
ENDMDL
MODEL 4
REMARK VINA RESULT:      -5.6      2.783      3.461
REMARK  4 active torsions:
REMARK  status: ('A' for Active; 'I' for Inactive)
REMARK    1  A    between atoms: C_2  and  C_3 
REMARK    2  A    between atoms: C_2  and  N_10 
REMARK    3  A    between atoms: C_3  and  N_4 
REMARK       I    between atoms: N_10  and  C_11 
REMARK       I    between atoms: C_11  and  N_13 
REMARK    4  A    between atoms: N_13  and  C_14 
ROOT
HETATM    1  N   UNL     1     -42.641 -48.629  11.025  1.00  0.00    -0.337 N 
HETATM    2  C   UNL     1     -41.655 -49.548  11.308  1.00  0.00     0.322 C 
HETATM    3  O   UNL     1     -40.473 -49.377  11.049  1.00  0.00    -0.247 OA
HETATM    4  N   UNL     1     -42.211 -50.635  11.931  1.00  0.00    -0.293 N 
HETATM    5  H   UNL     1     -43.499 -49.051  10.703  1.00  0.00     0.164 HD
HETATM    6  H   UNL     1     -43.008 -50.436  12.517  1.00  0.00     0.172 HD
ENDROOT
BRANCH   1   7
HETATM    7  C   UNL     1     -42.349 -47.275  10.551  1.00  0.00     0.110 C 
HETATM    8  C   UNL     1     -43.183 -47.006   9.300  1.00  0.00     0.034 C 
BRANCH   7   9
HETATM    9  C   UNL     1     -42.504 -46.189  11.662  1.00  0.00     0.297 C 
BRANCH   9  10
HETATM   10  N   UNL     1     -41.280 -45.632  12.291  1.00  0.00     0.094 N 
HETATM   11  C   UNL     1     -41.321 -44.183  12.560  1.00  0.00     0.298 C 
HETATM   12  C   UNL     1     -41.308 -43.325  11.285  1.00  0.00     0.198 C 
HETATM   13  O   UNL     1     -40.117 -43.563  10.533  1.00  0.00    -0.388 OA
HETATM   14  C   UNL     1     -39.984 -44.950  10.201  1.00  0.00     0.198 C 
HETATM   15  C   UNL     1     -40.084 -45.869  11.437  1.00  0.00     0.298 C 
ENDBRANCH   9  10
ENDBRANCH   7   9
ENDBRANCH   1   7
BRANCH   4  16
HETATM   16  C   UNL     1     -41.499 -51.741  12.324  1.00  0.00     0.132 A 
HETATM   17  C   UNL     1     -41.090 -52.115  13.620  1.00  0.00     0.084 A 
HETATM   18  C   UNL     1     -40.441 -53.310  13.437  1.00  0.00     0.076 A 
HETATM   19  C   UNL     1     -39.777 -54.275  14.329  1.00  0.00     0.079 C 
HETATM   20  O   UNL     1     -40.441 -53.620  12.113  1.00  0.00    -0.241 OA
HETATM   21  N   UNL     1     -41.063 -52.609  11.406  1.00  0.00    -0.245 N 
ATOM     22  HN  UNL     1     -41.167 -52.539  10.394  1.00  0.00     0.196 HD
ENDBRANCH   4  16
TORSDOF 4
ENDMDL
MODEL 5
REMARK VINA RESULT:      -5.6      1.808      7.103
REMARK  4 active torsions:
REMARK  status: ('A' for Active; 'I' for Inactive)
REMARK    1  A    between atoms: C_2  and  C_3 
REMARK    2  A    between atoms: C_2  and  N_10 
REMARK    3  A    between atoms: C_3  and  N_4 
REMARK       I    between atoms: N_10  and  C_11 
REMARK       I    between atoms: C_11  and  N_13 
REMARK    4  A    between atoms: N_13  and  C_14 
ROOT
HETATM    1  N   UNL     1     -41.223 -52.857  11.744  1.00  0.00    -0.337 N 
HETATM    2  C   UNL     1     -41.122 -51.536  12.122  1.00  0.00     0.322 C 
HETATM    3  O   UNL     1     -41.297 -51.142  13.265  1.00  0.00    -0.247 OA
HETATM    4  N   UNL     1     -40.775 -50.777  11.035  1.00  0.00    -0.293 N 
HETATM    5  H   UNL     1     -41.658 -52.981  10.843  1.00  0.00     0.164 HD
HETATM    6  H   UNL     1     -40.185 -51.236  10.357  1.00  0.00     0.172 HD
ENDROOT
BRANCH   1   7
HETATM    7  C   UNL     1     -41.371 -53.947  12.709  1.00  0.00     0.110 C 
HETATM    8  C   UNL     1     -40.098 -54.031  13.549  1.00  0.00     0.034 C 
BRANCH   7   9
HETATM    9  C   UNL     1     -42.682 -53.848  13.552  1.00  0.00     0.297 C 
BRANCH   9  10
HETATM   10  N   UNL     1     -43.982 -54.098  12.880  1.00  0.00     0.094 N 
HETATM   11  C   UNL     1     -44.726 -52.886  12.492  1.00  0.00     0.298 C 
HETATM   12  C   UNL     1     -45.263 -52.089  13.692  1.00  0.00     0.198 C 
HETATM   13  O   UNL     1     -46.163 -52.887  14.461  1.00  0.00    -0.388 OA
HETATM   14  C   UNL     1     -45.532 -54.093  14.908  1.00  0.00     0.198 C 
HETATM   15  C   UNL     1     -44.891 -54.891  13.752  1.00  0.00     0.298 C 
ENDBRANCH   9  10
ENDBRANCH   7   9
ENDBRANCH   1   7
BRANCH   4  16
HETATM   16  C   UNL     1     -40.618 -49.413  11.070  1.00  0.00     0.132 A 
HETATM   17  C   UNL     1     -41.509 -48.409  10.640  1.00  0.00     0.084 A 
HETATM   18  C   UNL     1     -40.861 -47.236  10.933  1.00  0.00     0.076 A 
HETATM   19  C   UNL     1     -41.186 -45.808  10.782  1.00  0.00     0.079 C 
HETATM   20  O   UNL     1     -39.650 -47.520  11.484  1.00  0.00    -0.241 OA
HETATM   21  N   UNL     1     -39.476 -48.889  11.524  1.00  0.00    -0.245 N 
ATOM     22  HN  UNL     1     -38.648 -49.395  11.836  1.00  0.00     0.196 HD
ENDBRANCH   4  16
TORSDOF 4
ENDMDL
MODEL 6
REMARK VINA RESULT:      -5.3      2.530      7.305
REMARK  4 active torsions:
REMARK  status: ('A' for Active; 'I' for Inactive)
REMARK    1  A    between atoms: C_2  and  C_3 
REMARK    2  A    between atoms: C_2  and  N_10 
REMARK    3  A    between atoms: C_3  and  N_4 
REMARK       I    between atoms: N_10  and  C_11 
REMARK       I    between atoms: C_11  and  N_13 
REMARK    4  A    between atoms: N_13  and  C_14 
ROOT
HETATM    1  N   UNL     1     -43.863 -50.111  12.464  1.00  0.00    -0.337 N 
HETATM    2  C   UNL     1     -42.830 -49.204  12.560  1.00  0.00     0.322 C 
HETATM    3  O   UNL     1     -42.157 -49.047  13.567  1.00  0.00    -0.247 OA
HETATM    4  N   UNL     1     -42.681 -48.556  11.362  1.00  0.00    -0.293 N 
HETATM    5  H   UNL     1     -44.652 -49.762  11.942  1.00  0.00     0.164 HD
HETATM    6  H   UNL     1     -42.902 -49.103  10.544  1.00  0.00     0.172 HD
ENDROOT
BRANCH   1   7
HETATM    7  C   UNL     1     -44.141 -51.107  13.500  1.00  0.00     0.110 C 
HETATM    8  C   UNL     1     -45.655 -51.251  13.644  1.00  0.00     0.034 C 
BRANCH   7   9
HETATM    9  C   UNL     1     -43.395 -52.459  13.269  1.00  0.00     0.297 C 
BRANCH   9  10
HETATM   10  N   UNL     1     -42.499 -52.971  14.337  1.00  0.00     0.094 N 
HETATM   11  C   UNL     1     -41.340 -52.113  14.642  1.00  0.00     0.298 C 
HETATM   12  C   UNL     1     -40.302 -52.064  13.509  1.00  0.00     0.198 C 
HETATM   13  O   UNL     1     -39.783 -53.368  13.248  1.00  0.00    -0.388 OA
HETATM   14  C   UNL     1     -40.833 -54.286  12.921  1.00  0.00     0.198 C 
HETATM   15  C   UNL     1     -41.954 -54.309  13.983  1.00  0.00     0.298 C 
ENDBRANCH   9  10
ENDBRANCH   7   9
ENDBRANCH   1   7
BRANCH   4  16
HETATM   16  C   UNL     1     -41.752 -47.571  11.134  1.00  0.00     0.132 A 
HETATM   17  C   UNL     1     -41.958 -46.190  10.935  1.00  0.00     0.084 A 
HETATM   18  C   UNL     1     -40.694 -45.680  10.781  1.00  0.00     0.076 A 
HETATM   19  C   UNL     1     -40.141 -44.334  10.558  1.00  0.00     0.079 C 
HETATM   20  O   UNL     1     -39.791 -46.694  10.861  1.00  0.00    -0.241 OA
HETATM   21  N   UNL     1     -40.459 -47.890  11.032  1.00  0.00    -0.245 N 
ATOM     22  HN  UNL     1     -40.050 -48.823  11.074  1.00  0.00     0.196 HD
ENDBRANCH   4  16
TORSDOF 4
ENDMDL
MODEL 7
REMARK VINA RESULT:      -5.2      3.391      7.426
REMARK  4 active torsions:
REMARK  status: ('A' for Active; 'I' for Inactive)
REMARK    1  A    between atoms: C_2  and  C_3 
REMARK    2  A    between atoms: C_2  and  N_10 
REMARK    3  A    between atoms: C_3  and  N_4 
REMARK       I    between atoms: N_10  and  C_11 
REMARK       I    between atoms: C_11  and  N_13 
REMARK    4  A    between atoms: N_13  and  C_14 
ROOT
HETATM    1  N   UNL     1     -41.778 -53.805  15.201  1.00  0.00    -0.337 N 
HETATM    2  C   UNL     1     -41.246 -53.339  14.020  1.00  0.00     0.322 C 
HETATM    3  O   UNL     1     -41.362 -53.915  12.949  1.00  0.00    -0.247 OA
HETATM    4  N   UNL     1     -40.610 -52.146  14.247  1.00  0.00    -0.293 N 
HETATM    5  H   UNL     1     -41.173 -53.664  15.995  1.00  0.00     0.164 HD
HETATM    6  H   UNL     1     -41.014 -51.571  14.971  1.00  0.00     0.172 HD
ENDROOT
BRANCH   1   7
HETATM    7  C   UNL     1     -42.695 -54.945  15.261  1.00  0.00     0.110 C 
HETATM    8  C   UNL     1     -42.202 -55.911  16.337  1.00  0.00     0.034 C 
BRANCH   7   9
HETATM    9  C   UNL     1     -44.190 -54.524  15.425  1.00  0.00     0.297 C 
BRANCH   9  10
HETATM   10  N   UNL     1     -45.153 -54.880  14.352  1.00  0.00     0.094 N 
HETATM   11  C   UNL     1     -44.828 -54.340  13.019  1.00  0.00     0.298 C 
HETATM   12  C   UNL     1     -44.972 -52.813  12.927  1.00  0.00     0.198 C 
HETATM   13  O   UNL     1     -46.316 -52.419  13.207  1.00  0.00    -0.388 OA
HETATM   14  C   UNL     1     -46.732 -52.882  14.498  1.00  0.00     0.198 C 
HETATM   15  C   UNL     1     -46.522 -54.400  14.681  1.00  0.00     0.298 C 
ENDBRANCH   9  10
ENDBRANCH   7   9
ENDBRANCH   1   7
BRANCH   4  16
HETATM   16  C   UNL     1     -39.952 -51.431  13.277  1.00  0.00     0.132 A 
HETATM   17  C   UNL     1     -38.570 -51.188  13.142  1.00  0.00     0.084 A 
HETATM   18  C   UNL     1     -38.469 -50.448  11.991  1.00  0.00     0.076 A 
HETATM   19  C   UNL     1     -37.351 -49.860  11.234  1.00  0.00     0.079 C 
HETATM   20  O   UNL     1     -39.712 -50.243  11.482  1.00  0.00    -0.241 OA
HETATM   21  N   UNL     1     -40.650 -50.818  12.317  1.00  0.00    -0.245 N 
ATOM     22  HN  UNL     1     -41.664 -50.783  12.221  1.00  0.00     0.196 HD
ENDBRANCH   4  16
TORSDOF 4
ENDMDL
MODEL 8
REMARK VINA RESULT:      -5.2      5.527      6.558
REMARK  4 active torsions:
REMARK  status: ('A' for Active; 'I' for Inactive)
REMARK    1  A    between atoms: C_2  and  C_3 
REMARK    2  A    between atoms: C_2  and  N_10 
REMARK    3  A    between atoms: C_3  and  N_4 
REMARK       I    between atoms: N_10  and  C_11 
REMARK       I    between atoms: C_11  and  N_13 
REMARK    4  A    between atoms: N_13  and  C_14 
ROOT
HETATM    1  N   UNL     1     -42.046 -44.372  10.988  1.00  0.00    -0.337 N 
HETATM    2  C   UNL     1     -42.340 -45.590  10.416  1.00  0.00     0.322 C 
HETATM    3  O   UNL     1     -41.630 -46.578  10.523  1.00  0.00    -0.247 OA
HETATM    4  N   UNL     1     -43.537 -45.505   9.754  1.00  0.00    -0.293 N 
HETATM    5  H   UNL     1     -42.277 -43.588  10.398  1.00  0.00     0.164 HD
HETATM    6  H   UNL     1     -44.212 -44.874  10.160  1.00  0.00     0.172 HD
ENDROOT
BRANCH   1   7
HETATM    7  C   UNL     1     -40.946 -44.186  11.936  1.00  0.00     0.110 C 
HETATM    8  C   UNL     1     -40.410 -42.763  11.789  1.00  0.00     0.034 C 
BRANCH   7   9
HETATM    9  C   UNL     1     -41.325 -44.573  13.401  1.00  0.00     0.297 C 
BRANCH   9  10
HETATM   10  N   UNL     1     -42.731 -44.396  13.845  1.00  0.00     0.094 N 
HETATM   11  C   UNL     1     -42.916 -43.452  14.962  1.00  0.00     0.298 C 
HETATM   12  C   UNL     1     -42.342 -43.961  16.293  1.00  0.00     0.198 C 
HETATM   13  O   UNL     1     -42.980 -45.178  16.682  1.00  0.00    -0.388 OA
HETATM   14  C   UNL     1     -42.845 -46.180  15.666  1.00  0.00     0.198 C 
HETATM   15  C   UNL     1     -43.321 -45.690  14.282  1.00  0.00     0.298 C 
ENDBRANCH   9  10
ENDBRANCH   7   9
ENDBRANCH   1   7
BRANCH   4  16
HETATM   16  C   UNL     1     -44.102 -46.543   9.056  1.00  0.00     0.132 A 
HETATM   17  C   UNL     1     -45.408 -47.067   9.152  1.00  0.00     0.084 A 
HETATM   18  C   UNL     1     -45.439 -48.067   8.214  1.00  0.00     0.076 A 
HETATM   19  C   UNL     1     -46.462 -49.020   7.750  1.00  0.00     0.079 C 
HETATM   20  O   UNL     1     -44.224 -48.152   7.611  1.00  0.00    -0.241 OA
HETATM   21  N   UNL     1     -43.367 -47.227   8.174  1.00  0.00    -0.245 N 
ATOM     22  HN  UNL     1     -42.378 -47.094   7.963  1.00  0.00     0.196 HD
ENDBRANCH   4  16
TORSDOF 4
ENDMDL
MODEL 9
REMARK VINA RESULT:      -5.1      2.782      6.359
REMARK  4 active torsions:
REMARK  status: ('A' for Active; 'I' for Inactive)
REMARK    1  A    between atoms: C_2  and  C_3 
REMARK    2  A    between atoms: C_2  and  N_10 
REMARK    3  A    between atoms: C_3  and  N_4 
REMARK       I    between atoms: N_10  and  C_11 
REMARK       I    between atoms: C_11  and  N_13 
REMARK    4  A    between atoms: N_13  and  C_14 
ROOT
HETATM    1  N   UNL     1     -40.046 -48.863  11.742  1.00  0.00    -0.337 N 
HETATM    2  C   UNL     1     -41.380 -48.784  11.406  1.00  0.00     0.322 C 
HETATM    3  O   UNL     1     -42.278 -49.277  12.072  1.00  0.00    -0.247 OA
HETATM    4  N   UNL     1     -41.516 -48.059  10.251  1.00  0.00    -0.293 N 
HETATM    5  H   UNL     1     -39.443 -49.004  10.946  1.00  0.00     0.164 HD
HETATM    6  H   UNL     1     -40.838 -47.324  10.119  1.00  0.00     0.172 HD
ENDROOT
BRANCH   1   7
HETATM    7  C   UNL     1     -39.583 -49.388  13.027  1.00  0.00     0.110 C 
HETATM    8  C   UNL     1     -39.628 -48.261  14.058  1.00  0.00     0.034 C 
BRANCH   7   9
HETATM    9  C   UNL     1     -40.336 -50.682  13.470  1.00  0.00     0.297 C 
BRANCH   9  10
HETATM   10  N   UNL     1     -39.982 -51.970  12.821  1.00  0.00     0.094 N 
HETATM   11  C   UNL     1     -41.076 -52.609  12.067  1.00  0.00     0.298 C 
HETATM   12  C   UNL     1     -42.210 -53.133  12.962  1.00  0.00     0.198 C 
HETATM   13  O   UNL     1     -41.716 -54.118  13.871  1.00  0.00    -0.388 OA
HETATM   14  C   UNL     1     -40.651 -53.594  14.673  1.00  0.00     0.198 C 
HETATM   15  C   UNL     1     -39.523 -52.967  13.826  1.00  0.00     0.298 C 
ENDBRANCH   9  10
ENDBRANCH   7   9
ENDBRANCH   1   7
BRANCH   4  16
HETATM   16  C   UNL     1     -42.719 -47.817   9.635  1.00  0.00     0.132 A 
HETATM   17  C   UNL     1     -43.925 -47.354  10.201  1.00  0.00     0.084 A 
HETATM   18  C   UNL     1     -44.785 -47.268   9.136  1.00  0.00     0.076 A 
HETATM   19  C   UNL     1     -46.188 -46.850   8.969  1.00  0.00     0.079 C 
HETATM   20  O   UNL     1     -44.143 -47.676   8.009  1.00  0.00    -0.241 OA
HETATM   21  N   UNL     1     -42.859 -48.069   8.330  1.00  0.00    -0.245 N 
ATOM     22  HN  UNL     1     -42.162 -48.468   7.703  1.00  0.00     0.196 HD
ENDBRANCH   4  16
TORSDOF 4
ENDMDL
