MODEL 1
REMARK VINA RESULT:      -6.2      0.000      0.000
REMARK  6 active torsions:
REMARK  status: ('A' for Active; 'I' for Inactive)
REMARK       I    between atoms: N_2  and  C_3 
REMARK    1  A    between atoms: C_3  and  C_5 
REMARK    2  A    between atoms: C_5  and  C_6 
REMARK    3  A    between atoms: C_5  and  N_10 
REMARK    4  A    between atoms: C_6  and  C_7 
REMARK       I    between atoms: N_10  and  C_11 
REMARK    5  A    between atoms: C_11  and  C_13 
REMARK    6  A    between atoms: C_13  and  N_14 
ROOT
HETATM    1  N   UNL     1     -43.088 -48.478  11.227  1.00  0.00    -0.346 N 
HETATM    2  C   UNL     1     -42.813 -48.659  12.563  1.00  0.00     0.236 C 
HETATM    3  O   UNL     1     -43.146 -47.859  13.434  1.00  0.00    -0.272 OA
HETATM    4  H   UNL     1     -42.717 -49.130  10.539  1.00  0.00     0.163 HD
ENDROOT
BRANCH   1   5
HETATM    5  C   UNL     1     -43.802 -47.318  10.686  1.00  0.00     0.177 C 
BRANCH   5   6
HETATM    6  C   UNL     1     -42.788 -46.141  10.586  1.00  0.00     0.240 C 
HETATM    7  N   UNL     1     -42.735 -45.311  11.688  1.00  0.00    -0.364 N 
HETATM    8  C   UNL     1     -41.811 -44.204  11.765  1.00  0.00     0.149 C 
HETATM    9  H   UNL     1     -43.255 -45.551  12.521  1.00  0.00     0.161 HD
HETATM   10  O   UNL     1     -42.073 -45.979   9.598  1.00  0.00    -0.271 OA
ENDBRANCH   5   6
BRANCH   5  11
HETATM   11  C   UNL     1     -44.412 -47.620   9.301  1.00  0.00     0.038 C 
BRANCH  11  12
HETATM   12  C   UNL     1     -45.950 -47.720   9.250  1.00  0.00    -0.020 C 
HETATM   13  C   UNL     1     -46.635 -46.387   8.933  1.00  0.00     0.009 C 
HETATM   14  C   UNL     1     -46.376 -48.761   8.212  1.00  0.00     0.009 C 
ENDBRANCH  11  12
ENDBRANCH   5  11
ENDBRANCH   1   5
BRANCH   2  15
HETATM   15  C   UNL     1     -42.071 -49.953  12.903  1.00  0.00     0.235 C 
BRANCH  15  16
HETATM   16  N   UNL     1     -42.902 -51.150  12.751  1.00  0.00    -0.301 N 
HETATM   17  C   UNL     1     -44.202 -51.153  13.223  1.00  0.00     0.102 C 
HETATM   18  C   UNL     1     -44.948 -52.261  13.222  1.00  0.00     0.092 C 
HETATM   19  C   UNL     1     -44.361 -53.509  12.709  1.00  0.00     0.250 C 
HETATM   20  O   UNL     1     -44.952 -54.577  12.816  1.00  0.00    -0.268 OA
HETATM   21  N   UNL     1     -43.129 -53.391  12.135  1.00  0.00    -0.275 N 
HETATM   22  C   UNL     1     -42.335 -52.275  12.162  1.00  0.00     0.329 C 
HETATM   23  H   UNL     1     -42.708 -54.237  11.779  1.00  0.00     0.173 HD
HETATM   24  O   UNL     1     -41.191 -52.309  11.712  1.00  0.00    -0.246 OA
ENDBRANCH  15  16
ENDBRANCH   2  15
TORSDOF 6
ENDMDL
MODEL 2
REMARK VINA RESULT:      -6.1      2.437      6.527
REMARK  6 active torsions:
REMARK  status: ('A' for Active; 'I' for Inactive)
REMARK       I    between atoms: N_2  and  C_3 
REMARK    1  A    between atoms: C_3  and  C_5 
REMARK    2  A    between atoms: C_5  and  C_6 
REMARK    3  A    between atoms: C_5  and  N_10 
REMARK    4  A    between atoms: C_6  and  C_7 
REMARK       I    between atoms: N_10  and  C_11 
REMARK    5  A    between atoms: C_11  and  C_13 
REMARK    6  A    between atoms: C_13  and  N_14 
ROOT
HETATM    1  N   UNL     1     -43.316 -52.233  13.313  1.00  0.00    -0.346 N 
HETATM    2  C   UNL     1     -42.114 -51.891  12.738  1.00  0.00     0.236 C 
HETATM    3  O   UNL     1     -41.500 -52.627  11.970  1.00  0.00    -0.272 OA
HETATM    4  H   UNL     1     -43.741 -51.621  14.005  1.00  0.00     0.163 HD
ENDROOT
BRANCH   1   5
HETATM    5  C   UNL     1     -44.002 -53.508  13.082  1.00  0.00     0.177 C 
BRANCH   5   6
HETATM    6  C   UNL     1     -43.646 -54.458  14.262  1.00  0.00     0.240 C 
HETATM    7  N   UNL     1     -42.328 -54.425  14.672  1.00  0.00    -0.364 N 
HETATM    8  C   UNL     1     -41.856 -55.214  15.785  1.00  0.00     0.149 C 
HETATM    9  H   UNL     1     -41.699 -53.737  14.280  1.00  0.00     0.161 HD
HETATM   10  O   UNL     1     -44.491 -55.174  14.800  1.00  0.00    -0.271 OA
ENDBRANCH   5   6
BRANCH   5  11
HETATM   11  C   UNL     1     -45.531 -53.322  12.984  1.00  0.00     0.038 C 
BRANCH  11  12
HETATM   12  C   UNL     1     -46.028 -51.866  12.888  1.00  0.00    -0.020 C 
HETATM   13  C   UNL     1     -47.018 -51.636  11.741  1.00  0.00     0.009 C 
HETATM   14  C   UNL     1     -46.683 -51.445  14.205  1.00  0.00     0.009 C 
ENDBRANCH  11  12
ENDBRANCH   5  11
ENDBRANCH   1   5
BRANCH   2  15
HETATM   15  C   UNL     1     -41.591 -50.502  13.108  1.00  0.00     0.235 C 
BRANCH  15  16
HETATM   16  N   UNL     1     -41.906 -49.482  12.104  1.00  0.00    -0.301 N 
HETATM   17  C   UNL     1     -43.093 -48.775  12.186  1.00  0.00     0.102 C 
HETATM   18  C   UNL     1     -43.477 -47.933  11.223  1.00  0.00     0.092 C 
HETATM   19  C   UNL     1     -42.613 -47.764  10.044  1.00  0.00     0.250 C 
HETATM   20  O   UNL     1     -42.987 -47.114   9.074  1.00  0.00    -0.268 OA
HETATM   21  N   UNL     1     -41.401 -48.386  10.105  1.00  0.00    -0.275 N 
HETATM   22  C   UNL     1     -41.006 -49.282  11.063  1.00  0.00     0.329 C 
HETATM   23  H   UNL     1     -40.794 -48.283   9.304  1.00  0.00     0.173 HD
HETATM   24  O   UNL     1     -39.933 -49.874  10.962  1.00  0.00    -0.246 OA
ENDBRANCH  15  16
ENDBRANCH   2  15
TORSDOF 6
ENDMDL
MODEL 3
REMARK VINA RESULT:      -6.0      1.575      3.519
REMARK  6 active torsions:
REMARK  status: ('A' for Active; 'I' for Inactive)
REMARK       I    between atoms: N_2  and  C_3 
REMARK    1  A    between atoms: C_3  and  C_5 
REMARK    2  A    between atoms: C_5  and  C_6 
REMARK    3  A    between atoms: C_5  and  N_10 
REMARK    4  A    between atoms: C_6  and  C_7 
REMARK       I    between atoms: N_10  and  C_11 
REMARK    5  A    between atoms: C_11  and  C_13 
REMARK    6  A    between atoms: C_13  and  N_14 
ROOT
HETATM    1  N   UNL     1     -42.246 -48.259  11.312  1.00  0.00    -0.346 N 
HETATM    2  C   UNL     1     -41.349 -49.187  11.788  1.00  0.00     0.236 C 
HETATM    3  O   UNL     1     -40.267 -49.415  11.252  1.00  0.00    -0.272 OA
HETATM    4  H   UNL     1     -43.162 -48.169  11.745  1.00  0.00     0.163 HD
ENDROOT
BRANCH   1   5
HETATM    5  C   UNL     1     -42.023 -47.439  10.118  1.00  0.00     0.177 C 
BRANCH   5   6
HETATM    6  C   UNL     1     -43.372 -47.349   9.345  1.00  0.00     0.240 C 
HETATM    7  N   UNL     1     -44.457 -47.918   9.981  1.00  0.00    -0.364 N 
HETATM    8  C   UNL     1     -45.783 -47.873   9.413  1.00  0.00     0.149 C 
HETATM    9  H   UNL     1     -44.360 -48.260  10.928  1.00  0.00     0.161 HD
HETATM   10  O   UNL     1     -43.460 -46.792   8.252  1.00  0.00    -0.271 OA
ENDBRANCH   5   6
BRANCH   5  11
HETATM   11  C   UNL     1     -41.518 -46.027  10.483  1.00  0.00     0.038 C 
BRANCH  11  12
HETATM   12  C   UNL     1     -40.001 -45.895  10.722  1.00  0.00    -0.020 C 
HETATM   13  C   UNL     1     -39.336 -44.835   9.838  1.00  0.00     0.009 C 
HETATM   14  C   UNL     1     -39.725 -45.566  12.191  1.00  0.00     0.009 C 
ENDBRANCH  11  12
ENDBRANCH   5  11
ENDBRANCH   1   5
BRANCH   2  15
HETATM   15  C   UNL     1     -41.784 -49.917  13.060  1.00  0.00     0.235 C 
BRANCH  15  16
HETATM   16  N   UNL     1     -42.811 -50.933  12.817  1.00  0.00    -0.301 N 
HETATM   17  C   UNL     1     -44.119 -50.700  13.205  1.00  0.00     0.102 C 
HETATM   18  C   UNL     1     -45.056 -51.648  13.121  1.00  0.00     0.092 C 
HETATM   19  C   UNL     1     -44.679 -52.974  12.608  1.00  0.00     0.250 C 
HETATM   20  O   UNL     1     -45.466 -53.913  12.644  1.00  0.00    -0.268 OA
HETATM   21  N   UNL     1     -43.411 -53.079  12.118  1.00  0.00    -0.275 N 
HETATM   22  C   UNL     1     -42.425 -52.134  12.231  1.00  0.00     0.329 C 
HETATM   23  H   UNL     1     -43.132 -53.982  11.763  1.00  0.00     0.173 HD
HETATM   24  O   UNL     1     -41.280 -52.374  11.854  1.00  0.00    -0.246 OA
ENDBRANCH  15  16
ENDBRANCH   2  15
TORSDOF 6
ENDMDL
MODEL 4
REMARK VINA RESULT:      -5.7      2.480      4.564
REMARK  6 active torsions:
REMARK  status: ('A' for Active; 'I' for Inactive)
REMARK       I    between atoms: N_2  and  C_3 
REMARK    1  A    between atoms: C_3  and  C_5 
REMARK    2  A    between atoms: C_5  and  C_6 
REMARK    3  A    between atoms: C_5  and  N_10 
REMARK    4  A    between atoms: C_6  and  C_7 
REMARK       I    between atoms: N_10  and  C_11 
REMARK    5  A    between atoms: C_11  and  C_13 
REMARK    6  A    between atoms: C_13  and  N_14 
ROOT
HETATM    1  N   UNL     1     -41.594 -49.914  12.438  1.00  0.00    -0.346 N 
HETATM    2  C   UNL     1     -41.656 -51.277  12.610  1.00  0.00     0.236 C 
HETATM    3  O   UNL     1     -41.259 -52.081  11.770  1.00  0.00    -0.272 OA
HETATM    4  H   UNL     1     -42.012 -49.295  13.129  1.00  0.00     0.163 HD
ENDROOT
BRANCH   1   5
HETATM    5  C   UNL     1     -41.053 -49.261  11.242  1.00  0.00     0.177 C 
BRANCH   5   6
HETATM    6  C   UNL     1     -42.111 -48.232  10.745  1.00  0.00     0.240 C 
HETATM    7  N   UNL     1     -42.386 -48.273   9.392  1.00  0.00    -0.364 N 
HETATM    8  C   UNL     1     -43.377 -47.414   8.790  1.00  0.00     0.149 C 
HETATM    9  H   UNL     1     -41.988 -49.008   8.823  1.00  0.00     0.161 HD
HETATM   10  O   UNL     1     -42.672 -47.451  11.513  1.00  0.00    -0.271 OA
ENDBRANCH   5   6
BRANCH   5  11
HETATM   11  C   UNL     1     -39.713 -48.555  11.535  1.00  0.00     0.038 C 
BRANCH  11  12
HETATM   12  C   UNL     1     -38.627 -49.421  12.203  1.00  0.00    -0.020 C 
HETATM   13  C   UNL     1     -37.491 -49.813  11.252  1.00  0.00     0.009 C 
HETATM   14  C   UNL     1     -38.038 -48.689  13.411  1.00  0.00     0.009 C 
ENDBRANCH  11  12
ENDBRANCH   5  11
ENDBRANCH   1   5
BRANCH   2  15
HETATM   15  C   UNL     1     -42.244 -51.737  13.945  1.00  0.00     0.235 C 
BRANCH  15  16
HETATM   16  N   UNL     1     -43.191 -52.846  13.805  1.00  0.00    -0.301 N 
HETATM   17  C   UNL     1     -44.405 -52.643  13.172  1.00  0.00     0.102 C 
HETATM   18  C   UNL     1     -45.347 -53.589  13.139  1.00  0.00     0.092 C 
HETATM   19  C   UNL     1     -45.082 -54.876  13.800  1.00  0.00     0.250 C 
HETATM   20  O   UNL     1     -45.963 -55.720  13.918  1.00  0.00    -0.268 OA
HETATM   21  N   UNL     1     -43.816 -55.046  14.277  1.00  0.00    -0.275 N 
HETATM   22  C   UNL     1     -42.851 -54.077  14.356  1.00  0.00     0.329 C 
HETATM   23  H   UNL     1     -43.614 -55.923  14.737  1.00  0.00     0.173 HD
HETATM   24  O   UNL     1     -41.777 -54.305  14.909  1.00  0.00    -0.246 OA
ENDBRANCH  15  16
ENDBRANCH   2  15
TORSDOF 6
ENDMDL
MODEL 5
REMARK VINA RESULT:      -5.7      2.485      3.656
REMARK  6 active torsions:
REMARK  status: ('A' for Active; 'I' for Inactive)
REMARK       I    between atoms: N_2  and  C_3 
REMARK    1  A    between atoms: C_3  and  C_5 
REMARK    2  A    between atoms: C_5  and  C_6 
REMARK    3  A    between atoms: C_5  and  N_10 
REMARK    4  A    between atoms: C_6  and  C_7 
REMARK       I    between atoms: N_10  and  C_11 
REMARK    5  A    between atoms: C_11  and  C_13 
REMARK    6  A    between atoms: C_13  and  N_14 
ROOT
HETATM    1  N   UNL     1     -41.523 -50.542  11.505  1.00  0.00    -0.346 N 
HETATM    2  C   UNL     1     -41.793 -51.399  12.547  1.00  0.00     0.236 C 
HETATM    3  O   UNL     1     -41.826 -51.041  13.722  1.00  0.00    -0.272 OA
HETATM    4  H   UNL     1     -41.427 -50.907  10.560  1.00  0.00     0.163 HD
ENDROOT
BRANCH   1   5
HETATM    5  C   UNL     1     -41.242 -49.113  11.668  1.00  0.00     0.177 C 
BRANCH   5   6
HETATM    6  C   UNL     1     -39.700 -48.947  11.810  1.00  0.00     0.240 C 
HETATM    7  N   UNL     1     -38.939 -49.882  11.137  1.00  0.00    -0.364 N 
HETATM    8  C   UNL     1     -37.497 -49.831  11.133  1.00  0.00     0.149 C 
HETATM    9  H   UNL     1     -39.391 -50.543  10.519  1.00  0.00     0.161 HD
HETATM   10  O   UNL     1     -39.201 -48.032  12.464  1.00  0.00    -0.271 OA
ENDBRANCH   5   6
BRANCH   5  11
HETATM   11  C   UNL     1     -41.763 -48.289  10.473  1.00  0.00     0.038 C 
BRANCH  11  12
HETATM   12  C   UNL     1     -42.770 -47.173  10.813  1.00  0.00    -0.020 C 
HETATM   13  C   UNL     1     -42.234 -45.765  10.535  1.00  0.00     0.009 C 
HETATM   14  C   UNL     1     -44.069 -47.377  10.029  1.00  0.00     0.009 C 
ENDBRANCH  11  12
ENDBRANCH   5  11
ENDBRANCH   1   5
BRANCH   2  15
HETATM   15  C   UNL     1     -42.075 -52.847  12.141  1.00  0.00     0.235 C 
BRANCH  15  16
HETATM   16  N   UNL     1     -43.164 -53.457  12.908  1.00  0.00    -0.301 N 
HETATM   17  C   UNL     1     -44.479 -53.193  12.569  1.00  0.00     0.102 C 
HETATM   18  C   UNL     1     -45.497 -53.624  13.320  1.00  0.00     0.092 C 
HETATM   19  C   UNL     1     -45.203 -54.392  14.539  1.00  0.00     0.250 C 
HETATM   20  O   UNL     1     -46.092 -54.686  15.331  1.00  0.00    -0.268 OA
HETATM   21  N   UNL     1     -43.895 -54.728  14.726  1.00  0.00    -0.275 N 
HETATM   22  C   UNL     1     -42.835 -54.264  13.991  1.00  0.00     0.329 C 
HETATM   23  H   UNL     1     -43.672 -55.253  15.559  1.00  0.00     0.173 HD
HETATM   24  O   UNL     1     -41.681 -54.540  14.314  1.00  0.00    -0.246 OA
ENDBRANCH  15  16
ENDBRANCH   2  15
TORSDOF 6
ENDMDL
MODEL 6
REMARK VINA RESULT:      -5.6      2.177      7.116
REMARK  6 active torsions:
REMARK  status: ('A' for Active; 'I' for Inactive)
REMARK       I    between atoms: N_2  and  C_3 
REMARK    1  A    between atoms: C_3  and  C_5 
REMARK    2  A    between atoms: C_5  and  C_6 
REMARK    3  A    between atoms: C_5  and  N_10 
REMARK    4  A    between atoms: C_6  and  C_7 
REMARK       I    between atoms: N_10  and  C_11 
REMARK    5  A    between atoms: C_11  and  C_13 
REMARK    6  A    between atoms: C_13  and  N_14 
ROOT
HETATM    1  N   UNL     1     -42.098 -51.629  11.951  1.00  0.00    -0.346 N 
HETATM    2  C   UNL     1     -41.337 -50.516  12.225  1.00  0.00     0.236 C 
HETATM    3  O   UNL     1     -41.042 -50.165  13.366  1.00  0.00    -0.272 OA
HETATM    4  H   UNL     1     -42.382 -51.828  10.995  1.00  0.00     0.163 HD
ENDROOT
BRANCH   1   5
HETATM    5  C   UNL     1     -42.646 -52.522  12.977  1.00  0.00     0.177 C 
BRANCH   5   6
HETATM    6  C   UNL     1     -44.157 -52.730  12.666  1.00  0.00     0.240 C 
HETATM    7  N   UNL     1     -44.956 -51.618  12.840  1.00  0.00    -0.364 N 
HETATM    8  C   UNL     1     -46.369 -51.641  12.546  1.00  0.00     0.149 C 
HETATM    9  H   UNL     1     -44.531 -50.724  13.049  1.00  0.00     0.161 HD
HETATM   10  O   UNL     1     -44.599 -53.810  12.275  1.00  0.00    -0.271 OA
ENDBRANCH   5   6
BRANCH   5  11
HETATM   11  C   UNL     1     -41.911 -53.878  13.004  1.00  0.00     0.038 C 
BRANCH  11  12
HETATM   12  C   UNL     1     -41.059 -54.158  14.258  1.00  0.00    -0.020 C 
HETATM   13  C   UNL     1     -39.554 -54.191  13.976  1.00  0.00     0.009 C 
HETATM   14  C   UNL     1     -41.344 -53.107  15.333  1.00  0.00     0.009 C 
ENDBRANCH  11  12
ENDBRANCH   5  11
ENDBRANCH   1   5
BRANCH   2  15
HETATM   15  C   UNL     1     -40.857 -49.740  10.998  1.00  0.00     0.235 C 
BRANCH  15  16
HETATM   16  N   UNL     1     -41.350 -48.361  10.961  1.00  0.00    -0.301 N 
HETATM   17  C   UNL     1     -42.623 -48.095  10.489  1.00  0.00     0.102 C 
HETATM   18  C   UNL     1     -43.062 -46.845  10.317  1.00  0.00     0.092 C 
HETATM   19  C   UNL     1     -42.159 -45.728  10.633  1.00  0.00     0.250 C 
HETATM   20  O   UNL     1     -42.463 -44.572  10.360  1.00  0.00    -0.268 OA
HETATM   21  N   UNL     1     -40.978 -46.070  11.223  1.00  0.00    -0.275 N 
HETATM   22  C   UNL     1     -40.495 -47.344  11.371  1.00  0.00     0.329 C 
HETATM   23  H   UNL     1     -40.343 -45.317  11.446  1.00  0.00     0.173 HD
HETATM   24  O   UNL     1     -39.365 -47.537  11.814  1.00  0.00    -0.246 OA
ENDBRANCH  15  16
ENDBRANCH   2  15
TORSDOF 6
ENDMDL
MODEL 7
REMARK VINA RESULT:      -5.6      2.724      5.163
REMARK  6 active torsions:
REMARK  status: ('A' for Active; 'I' for Inactive)
REMARK       I    between atoms: N_2  and  C_3 
REMARK    1  A    between atoms: C_3  and  C_5 
REMARK    2  A    between atoms: C_5  and  C_6 
REMARK    3  A    between atoms: C_5  and  N_10 
REMARK    4  A    between atoms: C_6  and  C_7 
REMARK       I    between atoms: N_10  and  C_11 
REMARK    5  A    between atoms: C_11  and  C_13 
REMARK    6  A    between atoms: C_13  and  N_14 
ROOT
HETATM    1  N   UNL     1     -41.661 -50.699  11.797  1.00  0.00    -0.346 N 
HETATM    2  C   UNL     1     -41.562 -52.065  11.917  1.00  0.00     0.236 C 
HETATM    3  O   UNL     1     -40.494 -52.671  11.868  1.00  0.00    -0.272 OA
HETATM    4  H   UNL     1     -42.577 -50.256  11.761  1.00  0.00     0.163 HD
ENDROOT
BRANCH   1   5
HETATM    5  C   UNL     1     -40.515 -49.807  11.597  1.00  0.00     0.177 C 
BRANCH   5   6
HETATM    6  C   UNL     1     -41.046 -48.486  10.966  1.00  0.00     0.240 C 
HETATM    7  N   UNL     1     -42.234 -48.597  10.273  1.00  0.00    -0.364 N 
HETATM    8  C   UNL     1     -42.876 -47.452   9.673  1.00  0.00     0.149 C 
HETATM    9  H   UNL     1     -42.745 -49.470  10.292  1.00  0.00     0.161 HD
HETATM   10  O   UNL     1     -40.450 -47.417  11.096  1.00  0.00    -0.271 OA
ENDBRANCH   5   6
BRANCH   5  11
HETATM   11  C   UNL     1     -39.783 -49.513  12.924  1.00  0.00     0.038 C 
BRANCH  11  12
HETATM   12  C   UNL     1     -38.246 -49.440  12.843  1.00  0.00    -0.020 C 
HETATM   13  C   UNL     1     -37.543 -50.117  14.024  1.00  0.00     0.009 C 
HETATM   14  C   UNL     1     -37.756 -50.076  11.540  1.00  0.00     0.009 C 
ENDBRANCH  11  12
ENDBRANCH   5  11
ENDBRANCH   1   5
BRANCH   2  15
HETATM   15  C   UNL     1     -42.889 -52.795  12.136  1.00  0.00     0.235 C 
BRANCH  15  16
HETATM   16  N   UNL     1     -42.912 -53.586  13.370  1.00  0.00    -0.301 N 
HETATM   17  C   UNL     1     -41.858 -53.505  14.262  1.00  0.00     0.102 C 
HETATM   18  C   UNL     1     -41.779 -54.304  15.331  1.00  0.00     0.092 C 
HETATM   19  C   UNL     1     -42.841 -55.296  15.553  1.00  0.00     0.250 C 
HETATM   20  O   UNL     1     -42.743 -56.141  16.435  1.00  0.00    -0.268 OA
HETATM   21  N   UNL     1     -43.911 -55.217  14.710  1.00  0.00    -0.275 N 
HETATM   22  C   UNL     1     -43.992 -54.434  13.588  1.00  0.00     0.329 C 
HETATM   23  H   UNL     1     -44.650 -55.891  14.845  1.00  0.00     0.173 HD
HETATM   24  O   UNL     1     -44.957 -54.522  12.832  1.00  0.00    -0.246 OA
ENDBRANCH  15  16
ENDBRANCH   2  15
TORSDOF 6
ENDMDL
MODEL 8
REMARK VINA RESULT:      -5.6      2.112      6.620
REMARK  6 active torsions:
REMARK  status: ('A' for Active; 'I' for Inactive)
REMARK       I    between atoms: N_2  and  C_3 
REMARK    1  A    between atoms: C_3  and  C_5 
REMARK    2  A    between atoms: C_5  and  C_6 
REMARK    3  A    between atoms: C_5  and  N_10 
REMARK    4  A    between atoms: C_6  and  C_7 
REMARK       I    between atoms: N_10  and  C_11 
REMARK    5  A    between atoms: C_11  and  C_13 
REMARK    6  A    between atoms: C_13  and  N_14 
ROOT
HETATM    1  N   UNL     1     -43.195 -51.437  12.899  1.00  0.00    -0.346 N 
HETATM    2  C   UNL     1     -42.024 -50.838  12.497  1.00  0.00     0.236 C 
HETATM    3  O   UNL     1     -41.209 -51.380  11.754  1.00  0.00    -0.272 OA
HETATM    4  H   UNL     1     -43.793 -50.977  13.581  1.00  0.00     0.163 HD
ENDROOT
BRANCH   1   5
HETATM    5  C   UNL     1     -43.608 -52.784  12.495  1.00  0.00     0.177 C 
BRANCH   5   6
HETATM    6  C   UNL     1     -42.850 -53.803  13.395  1.00  0.00     0.240 C 
HETATM    7  N   UNL     1     -43.469 -54.113  14.590  1.00  0.00    -0.364 N 
HETATM    8  C   UNL     1     -42.913 -55.077  15.508  1.00  0.00     0.149 C 
HETATM    9  H   UNL     1     -44.400 -53.764  14.776  1.00  0.00     0.161 HD
HETATM   10  O   UNL     1     -41.782 -54.308  13.051  1.00  0.00    -0.271 OA
ENDBRANCH   5   6
BRANCH   5  11
HETATM   11  C   UNL     1     -45.133 -52.977  12.632  1.00  0.00     0.038 C 
BRANCH  11  12
HETATM   12  C   UNL     1     -45.973 -51.685  12.690  1.00  0.00    -0.020 C 
HETATM   13  C   UNL     1     -47.082 -51.633  11.635  1.00  0.00     0.009 C 
HETATM   14  C   UNL     1     -46.596 -51.524  14.079  1.00  0.00     0.009 C 
ENDBRANCH  11  12
ENDBRANCH   5  11
ENDBRANCH   1   5
BRANCH   2  15
HETATM   15  C   UNL     1     -41.804 -49.420  13.029  1.00  0.00     0.235 C 
BRANCH  15  16
HETATM   16  N   UNL     1     -42.260 -48.381  12.102  1.00  0.00    -0.301 N 
HETATM   17  C   UNL     1     -42.018 -48.511  10.746  1.00  0.00     0.102 C 
HETATM   18  C   UNL     1     -42.299 -47.530   9.885  1.00  0.00     0.092 C 
HETATM   19  C   UNL     1     -42.875 -46.278  10.401  1.00  0.00     0.250 C 
HETATM   20  O   UNL     1     -43.020 -45.302   9.674  1.00  0.00    -0.268 OA
HETATM   21  N   UNL     1     -43.212 -46.283  11.722  1.00  0.00    -0.275 N 
HETATM   22  C   UNL     1     -42.896 -47.262  12.627  1.00  0.00     0.329 C 
HETATM   23  H   UNL     1     -43.607 -45.432  12.096  1.00  0.00     0.173 HD
HETATM   24  O   UNL     1     -43.148 -47.115  13.822  1.00  0.00    -0.246 OA
ENDBRANCH  15  16
ENDBRANCH   2  15
TORSDOF 6
ENDMDL
MODEL 9
REMARK VINA RESULT:      -5.5      2.955      3.974
REMARK  6 active torsions:
REMARK  status: ('A' for Active; 'I' for Inactive)
REMARK       I    between atoms: N_2  and  C_3 
REMARK    1  A    between atoms: C_3  and  C_5 
REMARK    2  A    between atoms: C_5  and  C_6 
REMARK    3  A    between atoms: C_5  and  N_10 
REMARK    4  A    between atoms: C_6  and  C_7 
REMARK       I    between atoms: N_10  and  C_11 
REMARK    5  A    between atoms: C_11  and  C_13 
REMARK    6  A    between atoms: C_13  and  N_14 
ROOT
HETATM    1  N   UNL     1     -41.642 -50.483  11.622  1.00  0.00    -0.346 N 
HETATM    2  C   UNL     1     -42.412 -51.118  12.569  1.00  0.00     0.236 C 
HETATM    3  O   UNL     1     -42.889 -50.544  13.545  1.00  0.00    -0.272 OA
HETATM    4  H   UNL     1     -41.203 -51.022  10.879  1.00  0.00     0.163 HD
ENDROOT
BRANCH   1   5
HETATM    5  C   UNL     1     -41.298 -49.059  11.665  1.00  0.00     0.177 C 
BRANCH   5   6
HETATM    6  C   UNL     1     -39.751 -48.948  11.797  1.00  0.00     0.240 C 
HETATM    7  N   UNL     1     -39.030 -49.952  11.181  1.00  0.00    -0.364 N 
HETATM    8  C   UNL     1     -37.587 -49.961  11.175  1.00  0.00     0.149 C 
HETATM    9  H   UNL     1     -39.510 -50.629  10.602  1.00  0.00     0.161 HD
HETATM   10  O   UNL     1     -39.213 -48.018  12.397  1.00  0.00    -0.271 OA
ENDBRANCH   5   6
BRANCH   5  11
HETATM   11  C   UNL     1     -41.783 -48.318  10.401  1.00  0.00     0.038 C 
BRANCH  11  12
HETATM   12  C   UNL     1     -42.804 -47.187  10.635  1.00  0.00    -0.020 C 
HETATM   13  C   UNL     1     -42.222 -45.787  10.411  1.00  0.00     0.009 C 
HETATM   14  C   UNL     1     -44.018 -47.375   9.722  1.00  0.00     0.009 C 
ENDBRANCH  11  12
ENDBRANCH   5  11
ENDBRANCH   1   5
BRANCH   2  15
HETATM   15  C   UNL     1     -42.657 -52.607  12.314  1.00  0.00     0.235 C 
BRANCH  15  16
HETATM   16  N   UNL     1     -42.043 -53.472  13.325  1.00  0.00    -0.301 N 
HETATM   17  C   UNL     1     -42.839 -54.137  14.241  1.00  0.00     0.102 C 
HETATM   18  C   UNL     1     -42.314 -54.829  15.255  1.00  0.00     0.092 C 
HETATM   19  C   UNL     1     -40.851 -54.875  15.400  1.00  0.00     0.250 C 
HETATM   20  O   UNL     1     -40.328 -55.376  16.389  1.00  0.00    -0.268 OA
HETATM   21  N   UNL     1     -40.138 -54.314  14.381  1.00  0.00    -0.275 N 
HETATM   22  C   UNL     1     -40.656 -53.567  13.355  1.00  0.00     0.329 C 
HETATM   23  H   UNL     1     -39.132 -54.333  14.463  1.00  0.00     0.173 HD
HETATM   24  O   UNL     1     -39.913 -53.010  12.550  1.00  0.00    -0.246 OA
ENDBRANCH  15  16
ENDBRANCH   2  15
TORSDOF 6
ENDMDL
