MODEL 1
REMARK VINA RESULT:      -5.5      0.000      0.000
REMARK  3 active torsions:
REMARK  status: ('A' for Active; 'I' for Inactive)
REMARK    1  A    between atoms: C_2  and  N_3 
REMARK    2  A    between atoms: C_2  and  C_15 
REMARK       I    between atoms: N_3  and  C_4 
REMARK       I    between atoms: C_4  and  N_6 
REMARK    3  A    between atoms: N_6  and  C_7 
ROOT
HETATM    1  N   UNL     1     -43.385 -50.759  12.736  1.00  0.00    -0.338 N 
HETATM    2  C   UNL     1     -43.033 -49.457  12.530  1.00  0.00     0.322 C 
HETATM    3  O   UNL     1     -43.274 -48.525  13.276  1.00  0.00    -0.247 OA
HETATM    4  N   UNL     1     -42.274 -49.298  11.337  1.00  0.00    -0.293 N 
HETATM    5  H   UNL     1     -43.132 -51.499  12.102  1.00  0.00     0.164 HD
HETATM    6  H   UNL     1     -41.995 -50.115  10.819  1.00  0.00     0.172 HD
ENDROOT
BRANCH   4   7
HETATM    7  C   UNL     1     -41.823 -48.049  10.908  1.00  0.00     0.127 A 
HETATM    8  C   UNL     1     -40.696 -47.367  11.312  1.00  0.00     0.076 A 
HETATM    9  C   UNL     1     -40.666 -46.180  10.550  1.00  0.00     0.025 A 
HETATM   10  C   UNL     1     -39.626 -45.122  10.558  1.00  0.00     0.070 C 
HETATM   11  N   UNL     1     -41.730 -46.088   9.745  1.00  0.00    -0.302 N 
HETATM   12  N   UNL     1     -42.417 -47.222   9.980  1.00  0.00    -0.281 N 
ATOM     13  HN  UNL     1     -41.967 -45.333   9.102  1.00  0.00     0.186 HD
HETATM   14  C   UNL     1     -43.597 -47.491   9.193  1.00  0.00     0.179 C 
ENDBRANCH   4   7
BRANCH   1  15
HETATM   15  C   UNL     1     -44.002 -51.117  14.003  1.00  0.00     0.086 C 
HETATM   16  C   UNL     1     -43.008 -51.871  14.888  1.00  0.00     0.032 C 
BRANCH  15  17
HETATM   17  C   UNL     1     -45.237 -51.946  13.774  1.00  0.00     0.008 A 
HETATM   18  C   UNL     1     -46.315 -51.544  12.795  1.00  0.00     0.007 A 
HETATM   19  C   UNL     1     -46.560 -51.411  14.269  1.00  0.00     0.007 A 
ENDBRANCH  15  17
ENDBRANCH   1  15
TORSDOF 3
ENDMDL
MODEL 2
REMARK VINA RESULT:      -5.5      2.306      2.936
REMARK  3 active torsions:
REMARK  status: ('A' for Active; 'I' for Inactive)
REMARK    1  A    between atoms: C_2  and  N_3 
REMARK    2  A    between atoms: C_2  and  C_15 
REMARK       I    between atoms: N_3  and  C_4 
REMARK       I    between atoms: C_4  and  N_6 
REMARK    3  A    between atoms: N_6  and  C_7 
ROOT
HETATM    1  N   UNL     1     -43.878 -52.575  12.604  1.00  0.00    -0.338 N 
HETATM    2  C   UNL     1     -42.836 -51.735  12.868  1.00  0.00     0.322 C 
HETATM    3  O   UNL     1     -42.568 -51.249  13.952  1.00  0.00    -0.247 OA
HETATM    4  N   UNL     1     -42.025 -51.522  11.719  1.00  0.00    -0.293 N 
HETATM    5  H   UNL     1     -44.037 -52.977  11.695  1.00  0.00     0.164 HD
HETATM    6  H   UNL     1     -42.216 -52.043  10.879  1.00  0.00     0.172 HD
ENDROOT
BRANCH   4   7
HETATM    7  C   UNL     1     -40.913 -50.679  11.743  1.00  0.00     0.127 A 
HETATM    8  C   UNL     1     -39.628 -50.978  12.139  1.00  0.00     0.076 A 
HETATM    9  C   UNL     1     -38.874 -49.803  11.931  1.00  0.00     0.025 A 
HETATM   10  C   UNL     1     -37.419 -49.609  12.144  1.00  0.00     0.070 C 
HETATM   11  N   UNL     1     -39.639 -48.805  11.476  1.00  0.00    -0.302 N 
HETATM   12  N   UNL     1     -40.865 -49.353  11.374  1.00  0.00    -0.281 N 
ATOM     13  HN  UNL     1     -39.359 -47.850  11.256  1.00  0.00     0.186 HD
HETATM   14  C   UNL     1     -41.932 -48.558  10.814  1.00  0.00     0.179 C 
ENDBRANCH   4   7
BRANCH   1  15
HETATM   15  C   UNL     1     -44.690 -53.042  13.716  1.00  0.00     0.086 C 
HETATM   16  C   UNL     1     -44.521 -54.550  13.907  1.00  0.00     0.032 C 
BRANCH  15  17
HETATM   17  C   UNL     1     -46.138 -52.699  13.492  1.00  0.00     0.008 A 
HETATM   18  C   UNL     1     -46.574 -51.520  12.654  1.00  0.00     0.007 A 
HETATM   19  C   UNL     1     -46.688 -51.454  14.148  1.00  0.00     0.007 A 
ENDBRANCH  15  17
ENDBRANCH   1  15
TORSDOF 3
ENDMDL
MODEL 3
REMARK VINA RESULT:      -5.3      3.543      4.300
REMARK  3 active torsions:
REMARK  status: ('A' for Active; 'I' for Inactive)
REMARK    1  A    between atoms: C_2  and  N_3 
REMARK    2  A    between atoms: C_2  and  C_15 
REMARK       I    between atoms: N_3  and  C_4 
REMARK       I    between atoms: C_4  and  N_6 
REMARK    3  A    between atoms: N_6  and  C_7 
ROOT
HETATM    1  N   UNL     1     -44.225 -53.369  12.779  1.00  0.00    -0.338 N 
HETATM    2  C   UNL     1     -43.152 -52.603  13.130  1.00  0.00     0.322 C 
HETATM    3  O   UNL     1     -43.007 -52.020  14.189  1.00  0.00    -0.247 OA
HETATM    4  N   UNL     1     -42.151 -52.602  12.119  1.00  0.00    -0.293 N 
HETATM    5  H   UNL     1     -44.282 -53.858  11.901  1.00  0.00     0.164 HD
HETATM    6  H   UNL     1     -42.263 -53.198  11.315  1.00  0.00     0.172 HD
ENDROOT
BRANCH   4   7
HETATM    7  C   UNL     1     -40.971 -51.867  12.247  1.00  0.00     0.127 A 
HETATM    8  C   UNL     1     -40.651 -50.663  11.658  1.00  0.00     0.076 A 
HETATM    9  C   UNL     1     -39.370 -50.323  12.142  1.00  0.00     0.025 A 
HETATM   10  C   UNL     1     -38.591 -49.092  11.861  1.00  0.00     0.070 C 
HETATM   11  N   UNL     1     -38.884 -51.272  12.949  1.00  0.00    -0.302 N 
HETATM   12  N   UNL     1     -39.862 -52.195  12.995  1.00  0.00    -0.281 N 
ATOM     13  HN  UNL     1     -37.980 -51.291  13.421  1.00  0.00     0.186 HD
HETATM   14  C   UNL     1     -39.698 -53.333  13.869  1.00  0.00     0.179 C 
ENDBRANCH   4   7
BRANCH   1  15
HETATM   15  C   UNL     1     -45.250 -53.625  13.778  1.00  0.00     0.086 C 
HETATM   16  C   UNL     1     -45.580 -55.117  13.835  1.00  0.00     0.032 C 
BRANCH  15  17
HETATM   17  C   UNL     1     -46.488 -52.823  13.482  1.00  0.00     0.008 A 
HETATM   18  C   UNL     1     -46.453 -51.533  12.698  1.00  0.00     0.007 A 
HETATM   19  C   UNL     1     -46.666 -51.496  14.182  1.00  0.00     0.007 A 
ENDBRANCH  15  17
ENDBRANCH   1  15
TORSDOF 3
ENDMDL
MODEL 4
REMARK VINA RESULT:      -5.3      2.846      7.295
REMARK  3 active torsions:
REMARK  status: ('A' for Active; 'I' for Inactive)
REMARK    1  A    between atoms: C_2  and  N_3 
REMARK    2  A    between atoms: C_2  and  C_15 
REMARK       I    between atoms: N_3  and  C_4 
REMARK       I    between atoms: C_4  and  N_6 
REMARK    3  A    between atoms: N_6  and  C_7 
ROOT
HETATM    1  N   UNL     1     -40.910 -50.523  11.324  1.00  0.00    -0.338 N 
HETATM    2  C   UNL     1     -41.607 -51.190  12.288  1.00  0.00     0.322 C 
HETATM    3  O   UNL     1     -41.805 -50.801  13.425  1.00  0.00    -0.247 OA
HETATM    4  N   UNL     1     -42.154 -52.409  11.796  1.00  0.00    -0.293 N 
HETATM    5  H   UNL     1     -40.803 -50.875  10.387  1.00  0.00     0.164 HD
HETATM    6  H   UNL     1     -42.068 -52.627  10.818  1.00  0.00     0.172 HD
ENDROOT
BRANCH   4   7
HETATM    7  C   UNL     1     -42.888 -53.272  12.611  1.00  0.00     0.127 A 
HETATM    8  C   UNL     1     -44.242 -53.521  12.584  1.00  0.00     0.076 A 
HETATM    9  C   UNL     1     -44.478 -54.500  13.571  1.00  0.00     0.025 A 
HETATM   10  C   UNL     1     -45.764 -55.159  13.909  1.00  0.00     0.070 C 
HETATM   11  N   UNL     1     -43.353 -54.822  14.219  1.00  0.00    -0.302 N 
HETATM   12  N   UNL     1     -42.408 -54.067  13.628  1.00  0.00    -0.281 N 
ATOM     13  HN  UNL     1     -43.238 -55.486  14.984  1.00  0.00     0.186 HD
HETATM   14  C   UNL     1     -41.033 -54.240  14.034  1.00  0.00     0.179 C 
ENDBRANCH   4   7
BRANCH   1  15
HETATM   15  C   UNL     1     -40.447 -49.175  11.611  1.00  0.00     0.086 C 
HETATM   16  C   UNL     1     -41.130 -48.166  10.688  1.00  0.00     0.032 C 
BRANCH  15  17
HETATM   17  C   UNL     1     -38.951 -49.089  11.471  1.00  0.00     0.008 A 
HETATM   18  C   UNL     1     -38.036 -50.243  11.803  1.00  0.00     0.007 A 
HETATM   19  C   UNL     1     -38.115 -49.066  12.729  1.00  0.00     0.007 A 
ENDBRANCH  15  17
ENDBRANCH   1  15
TORSDOF 3
ENDMDL
MODEL 5
REMARK VINA RESULT:      -5.2      3.050      6.333
REMARK  3 active torsions:
REMARK  status: ('A' for Active; 'I' for Inactive)
REMARK    1  A    between atoms: C_2  and  N_3 
REMARK    2  A    between atoms: C_2  and  C_15 
REMARK       I    between atoms: N_3  and  C_4 
REMARK       I    between atoms: C_4  and  N_6 
REMARK    3  A    between atoms: N_6  and  C_7 
ROOT
HETATM    1  N   UNL     1     -41.575 -48.400   9.993  1.00  0.00    -0.338 N 
HETATM    2  C   UNL     1     -41.494 -49.185  11.105  1.00  0.00     0.322 C 
HETATM    3  O   UNL     1     -42.159 -49.059  12.118  1.00  0.00    -0.247 OA
HETATM    4  N   UNL     1     -40.561 -50.245  10.937  1.00  0.00    -0.293 N 
HETATM    5  H   UNL     1     -41.024 -48.567   9.167  1.00  0.00     0.164 HD
HETATM    6  H   UNL     1     -40.127 -50.381  10.038  1.00  0.00     0.172 HD
ENDROOT
BRANCH   4   7
HETATM    7  C   UNL     1     -40.292 -51.164  11.953  1.00  0.00     0.127 A 
HETATM    8  C   UNL     1     -40.946 -52.345  12.225  1.00  0.00     0.076 A 
HETATM    9  C   UNL     1     -40.265 -52.923  13.318  1.00  0.00     0.025 A 
HETATM   10  C   UNL     1     -40.533 -54.231  13.966  1.00  0.00     0.070 C 
HETATM   11  N   UNL     1     -39.271 -52.138  13.745  1.00  0.00    -0.302 N 
HETATM   12  N   UNL     1     -39.307 -51.081  12.912  1.00  0.00    -0.281 N 
ATOM     13  HN  UNL     1     -38.631 -52.303  14.522  1.00  0.00     0.186 HD
HETATM   14  C   UNL     1     -38.289 -50.065  13.039  1.00  0.00     0.179 C 
ENDBRANCH   4   7
BRANCH   1  15
HETATM   15  C   UNL     1     -42.616 -47.387   9.933  1.00  0.00     0.086 C 
HETATM   16  C   UNL     1     -43.452 -47.552   8.663  1.00  0.00     0.032 C 
BRANCH  15  17
HETATM   17  C   UNL     1     -42.016 -46.008   9.993  1.00  0.00     0.008 A 
HETATM   18  C   UNL     1     -40.800 -45.687  10.830  1.00  0.00     0.007 A 
HETATM   19  C   UNL     1     -42.154 -45.222  11.276  1.00  0.00     0.007 A 
ENDBRANCH  15  17
ENDBRANCH   1  15
TORSDOF 3
ENDMDL
MODEL 6
REMARK VINA RESULT:      -5.1      2.013      2.643
REMARK  3 active torsions:
REMARK  status: ('A' for Active; 'I' for Inactive)
REMARK    1  A    between atoms: C_2  and  N_3 
REMARK    2  A    between atoms: C_2  and  C_15 
REMARK       I    between atoms: N_3  and  C_4 
REMARK       I    between atoms: C_4  and  N_6 
REMARK    3  A    between atoms: N_6  and  C_7 
ROOT
HETATM    1  N   UNL     1     -43.559 -52.247  12.694  1.00  0.00    -0.338 N 
HETATM    2  C   UNL     1     -42.809 -51.120  12.859  1.00  0.00     0.322 C 
HETATM    3  O   UNL     1     -42.803 -50.404  13.845  1.00  0.00    -0.247 OA
HETATM    4  N   UNL     1     -41.955 -50.887  11.745  1.00  0.00    -0.293 N 
HETATM    5  H   UNL     1     -43.502 -52.824  11.871  1.00  0.00     0.164 HD
HETATM    6  H   UNL     1     -41.906 -51.573  11.011  1.00  0.00     0.172 HD
ENDROOT
BRANCH   4   7
HETATM    7  C   UNL     1     -41.112 -49.776  11.680  1.00  0.00     0.127 A 
HETATM    8  C   UNL     1     -41.392 -48.524  11.180  1.00  0.00     0.076 A 
HETATM    9  C   UNL     1     -40.228 -47.753  11.386  1.00  0.00     0.025 A 
HETATM   10  C   UNL     1     -40.024 -46.316  11.078  1.00  0.00     0.070 C 
HETATM   11  N   UNL     1     -39.252 -48.481  11.939  1.00  0.00    -0.302 N 
HETATM   12  N   UNL     1     -39.803 -49.698  12.103  1.00  0.00    -0.281 N 
ATOM     13  HN  UNL     1     -38.308 -48.182  12.181  1.00  0.00     0.186 HD
HETATM   14  C   UNL     1     -39.034 -50.720  12.773  1.00  0.00     0.179 C 
ENDBRANCH   4   7
BRANCH   1  15
HETATM   15  C   UNL     1     -44.344 -52.728  13.820  1.00  0.00     0.086 C 
HETATM   16  C   UNL     1     -43.948 -54.161  14.176  1.00  0.00     0.032 C 
BRANCH  15  17
HETATM   17  C   UNL     1     -45.815 -52.650  13.510  1.00  0.00     0.008 A 
HETATM   18  C   UNL     1     -46.417 -51.523  12.704  1.00  0.00     0.007 A 
HETATM   19  C   UNL     1     -46.633 -51.576  14.187  1.00  0.00     0.007 A 
ENDBRANCH  15  17
ENDBRANCH   1  15
TORSDOF 3
ENDMDL
MODEL 7
REMARK VINA RESULT:      -5.0      1.731      1.909
REMARK  3 active torsions:
REMARK  status: ('A' for Active; 'I' for Inactive)
REMARK    1  A    between atoms: C_2  and  N_3 
REMARK    2  A    between atoms: C_2  and  C_15 
REMARK       I    between atoms: N_3  and  C_4 
REMARK       I    between atoms: C_4  and  N_6 
REMARK    3  A    between atoms: N_6  and  C_7 
ROOT
HETATM    1  N   UNL     1     -41.864 -51.292  11.796  1.00  0.00    -0.338 N 
HETATM    2  C   UNL     1     -41.848 -49.941  11.978  1.00  0.00     0.322 C 
HETATM    3  O   UNL     1     -41.954 -49.363  13.045  1.00  0.00    -0.247 OA
HETATM    4  N   UNL     1     -41.625 -49.246  10.756  1.00  0.00    -0.293 N 
HETATM    5  H   UNL     1     -41.739 -51.722  10.894  1.00  0.00     0.164 HD
HETATM    6  H   UNL     1     -41.420 -49.770   9.922  1.00  0.00     0.172 HD
ENDROOT
BRANCH   4   7
HETATM    7  C   UNL     1     -41.592 -47.852  10.694  1.00  0.00     0.127 A 
HETATM    8  C   UNL     1     -40.530 -47.014  10.953  1.00  0.00     0.076 A 
HETATM    9  C   UNL     1     -40.996 -45.706  10.703  1.00  0.00     0.025 A 
HETATM   10  C   UNL     1     -40.228 -44.439  10.776  1.00  0.00     0.070 C 
HETATM   11  N   UNL     1     -42.286 -45.706  10.352  1.00  0.00    -0.302 N 
HETATM   12  N   UNL     1     -42.627 -47.008  10.357  1.00  0.00    -0.281 N 
ATOM     13  HN  UNL     1     -42.876 -44.903  10.131  1.00  0.00     0.186 HD
HETATM   14  C   UNL     1     -43.956 -47.376   9.926  1.00  0.00     0.179 C 
ENDBRANCH   4   7
BRANCH   1  15
HETATM   15  C   UNL     1     -41.893 -52.150  12.969  1.00  0.00     0.086 C 
HETATM   16  C   UNL     1     -40.476 -52.566  13.364  1.00  0.00     0.032 C 
BRANCH  15  17
HETATM   17  C   UNL     1     -42.748 -53.362  12.716  1.00  0.00     0.008 A 
HETATM   18  C   UNL     1     -44.229 -53.269  12.434  1.00  0.00     0.007 A 
HETATM   19  C   UNL     1     -43.755 -53.761  13.769  1.00  0.00     0.007 A 
ENDBRANCH  15  17
ENDBRANCH   1  15
TORSDOF 3
ENDMDL
MODEL 8
REMARK VINA RESULT:      -4.9      3.808      5.132
REMARK  3 active torsions:
REMARK  status: ('A' for Active; 'I' for Inactive)
REMARK    1  A    between atoms: C_2  and  N_3 
REMARK    2  A    between atoms: C_2  and  C_15 
REMARK       I    between atoms: N_3  and  C_4 
REMARK       I    between atoms: C_4  and  N_6 
REMARK    3  A    between atoms: N_6  and  C_7 
ROOT
HETATM    1  N   UNL     1     -38.964 -48.366  12.270  1.00  0.00    -0.338 N 
HETATM    2  C   UNL     1     -40.271 -48.012  12.100  1.00  0.00     0.322 C 
HETATM    3  O   UNL     1     -41.150 -48.103  12.938  1.00  0.00    -0.247 OA
HETATM    4  N   UNL     1     -40.502 -47.449  10.814  1.00  0.00    -0.293 N 
HETATM    5  H   UNL     1     -38.268 -48.239  11.553  1.00  0.00     0.164 HD
HETATM    6  H   UNL     1     -39.721 -47.281  10.202  1.00  0.00     0.172 HD
ENDROOT
BRANCH   4   7
HETATM    7  C   UNL     1     -41.771 -47.035  10.405  1.00  0.00     0.127 A 
HETATM    8  C   UNL     1     -42.742 -47.775   9.767  1.00  0.00     0.076 A 
HETATM    9  C   UNL     1     -43.850 -46.915   9.617  1.00  0.00     0.025 A 
HETATM   10  C   UNL     1     -45.180 -47.238   9.041  1.00  0.00     0.070 C 
HETATM   11  N   UNL     1     -43.586 -45.691  10.085  1.00  0.00    -0.302 N 
HETATM   12  N   UNL     1     -42.327 -45.783  10.551  1.00  0.00    -0.281 N 
ATOM     13  HN  UNL     1     -44.199 -44.875  10.089  1.00  0.00     0.186 HD
HETATM   14  C   UNL     1     -41.753 -44.641  11.222  1.00  0.00     0.179 C 
ENDBRANCH   4   7
BRANCH   1  15
HETATM   15  C   UNL     1     -38.525 -48.782  13.592  1.00  0.00     0.086 C 
HETATM   16  C   UNL     1     -37.896 -47.607  14.342  1.00  0.00     0.032 C 
BRANCH  15  17
HETATM   17  C   UNL     1     -37.551 -49.924  13.489  1.00  0.00     0.008 A 
HETATM   18  C   UNL     1     -37.440 -50.790  12.256  1.00  0.00     0.007 A 
HETATM   19  C   UNL     1     -38.097 -51.333  13.490  1.00  0.00     0.007 A 
ENDBRANCH  15  17
ENDBRANCH   1  15
TORSDOF 3
ENDMDL
MODEL 9
REMARK VINA RESULT:      -4.6      3.036      4.397
REMARK  3 active torsions:
REMARK  status: ('A' for Active; 'I' for Inactive)
REMARK    1  A    between atoms: C_2  and  N_3 
REMARK    2  A    between atoms: C_2  and  C_15 
REMARK       I    between atoms: N_3  and  C_4 
REMARK       I    between atoms: C_4  and  N_6 
REMARK    3  A    between atoms: N_6  and  C_7 
ROOT
HETATM    1  N   UNL     1     -40.556 -50.079  10.714  1.00  0.00    -0.338 N 
HETATM    2  C   UNL     1     -41.133 -48.898  11.080  1.00  0.00     0.322 C 
HETATM    3  O   UNL     1     -41.243 -48.480  12.218  1.00  0.00    -0.247 OA
HETATM    4  N   UNL     1     -41.556 -48.145   9.949  1.00  0.00    -0.293 N 
HETATM    5  H   UNL     1     -40.460 -50.363   9.753  1.00  0.00     0.164 HD
HETATM    6  H   UNL     1     -41.332 -48.475   9.026  1.00  0.00     0.172 HD
ENDROOT
BRANCH   4   7
HETATM    7  C   UNL     1     -42.196 -46.911  10.080  1.00  0.00     0.127 A 
HETATM    8  C   UNL     1     -41.741 -45.782  10.725  1.00  0.00     0.076 A 
HETATM    9  C   UNL     1     -42.733 -44.797  10.530  1.00  0.00     0.025 A 
HETATM   10  C   UNL     1     -42.707 -43.381  10.975  1.00  0.00     0.070 C 
HETATM   11  N   UNL     1     -43.774 -45.281   9.845  1.00  0.00    -0.302 N 
HETATM   12  N   UNL     1     -43.433 -46.557   9.588  1.00  0.00    -0.281 N 
ATOM     13  HN  UNL     1     -44.630 -44.794   9.578  1.00  0.00     0.186 HD
HETATM   14  C   UNL     1     -44.313 -47.356   8.767  1.00  0.00     0.179 C 
ENDBRANCH   4   7
BRANCH   1  15
HETATM   15  C   UNL     1     -39.904 -50.878  11.738  1.00  0.00     0.086 C 
HETATM   16  C   UNL     1     -40.883 -51.209  12.865  1.00  0.00     0.032 C 
BRANCH  15  17
HETATM   17  C   UNL     1     -38.699 -50.158  12.281  1.00  0.00     0.008 A 
HETATM   18  C   UNL     1     -37.557 -49.706  11.403  1.00  0.00     0.007 A 
HETATM   19  C   UNL     1     -37.378 -50.890  12.305  1.00  0.00     0.007 A 
ENDBRANCH  15  17
ENDBRANCH   1  15
TORSDOF 3
ENDMDL
