MODEL 1
REMARK VINA RESULT:      -6.2      0.000      0.000
REMARK  4 active torsions:
REMARK  status: ('A' for Active; 'I' for Inactive)
REMARK    1  A    between atoms: O_2  and  C_3 
REMARK    2  A    between atoms: C_3  and  C_4 
REMARK    3  A    between atoms: C_4  and  N_5 
REMARK    4  A    between atoms: C_6  and  N_18 
ROOT
HETATM    1  N   UNL     1     -41.637 -50.974  12.956  1.00  0.00    -0.172 N 
HETATM    2  C   UNL     1     -43.012 -50.747  13.017  1.00  0.00     0.684 A 
HETATM    3  N   UNL     1     -43.264 -49.528  12.538  1.00  0.00    -0.174 N 
ATOM      4  HN  UNL     1     -44.173 -49.068  12.494  1.00  0.00     0.186 HD
HETATM    5  C   UNL     1     -42.069 -49.011  12.118  1.00  0.00     0.160 A 
HETATM    6  N   UNL     1     -41.818 -47.777  11.539  1.00  0.00    -0.287 N 
HETATM    7  C   UNL     1     -42.831 -46.772  11.326  1.00  0.00     0.163 C 
HETATM    8  C   UNL     1     -40.510 -47.458  11.165  1.00  0.00     0.330 A 
HETATM    9  O   UNL     1     -40.192 -46.389  10.645  1.00  0.00    -0.246 OA
HETATM   10  N   UNL     1     -39.539 -48.405  11.385  1.00  0.00    -0.273 N 
HETATM   11  C   UNL     1     -39.713 -49.644  11.945  1.00  0.00     0.280 A 
HETATM   12  O   UNL     1     -38.779 -50.423  12.072  1.00  0.00    -0.265 OA
HETATM   13  C   UNL     1     -41.061 -49.897  12.330  1.00  0.00     0.164 A 
HETATM   14  H   UNL     1     -38.603 -48.166  11.097  1.00  0.00     0.173 HD
ENDROOT
BRANCH   2  15
HETATM   15  N   UNL     1     -43.958 -51.632  13.480  1.00  0.00    -0.219 N 
HETATM   16  C   UNL     1     -44.394 -51.812  14.850  1.00  0.00     0.141 C 
HETATM   17  C   UNL     1     -45.665 -50.999  15.001  1.00  0.00     0.020 C 
HETATM   18  C   UNL     1     -46.768 -51.713  14.240  1.00  0.00     0.003 C 
HETATM   19  C   UNL     1     -46.328 -52.346  12.893  1.00  0.00     0.039 A 
HETATM   20  C   UNL     1     -47.142 -51.753  11.743  1.00  0.00     0.004 A 
HETATM   21  C   UNL     1     -44.806 -52.359  12.526  1.00  0.00     0.120 A 
ENDBRANCH   2  15
BRANCH   1  22
HETATM   22  C   UNL     1     -40.848 -52.071  13.468  1.00  0.00     0.174 C 
BRANCH  22  23
HETATM   23  C   UNL     1     -40.847 -53.277  12.536  1.00  0.00     0.187 C 
BRANCH  23  24
HETATM   24  O   UNL     1     -41.776 -54.231  13.050  1.00  0.00    -0.394 OA
HETATM   25  C   UNL     1     -41.674 -54.356  14.461  1.00  0.00     0.201 C 
ENDBRANCH  23  24
ENDBRANCH  22  23
ENDBRANCH   1  22
TORSDOF 4
ENDMDL
MODEL 2
REMARK VINA RESULT:      -6.2      2.847      5.423
REMARK  4 active torsions:
REMARK  status: ('A' for Active; 'I' for Inactive)
REMARK    1  A    between atoms: O_2  and  C_3 
REMARK    2  A    between atoms: C_3  and  C_4 
REMARK    3  A    between atoms: C_4  and  N_5 
REMARK    4  A    between atoms: C_6  and  N_18 
ROOT
HETATM    1  N   UNL     1     -42.522 -53.446  14.008  1.00  0.00    -0.172 N 
HETATM    2  C   UNL     1     -43.389 -53.876  15.012  1.00  0.00     0.684 A 
HETATM    3  N   UNL     1     -42.719 -54.682  15.837  1.00  0.00    -0.174 N 
ATOM      4  HN  UNL     1     -43.100 -55.180  16.641  1.00  0.00     0.186 HD
HETATM    5  C   UNL     1     -41.424 -54.713  15.398  1.00  0.00     0.160 A 
HETATM    6  N   UNL     1     -40.348 -55.403  15.932  1.00  0.00    -0.287 N 
HETATM    7  C   UNL     1     -40.447 -56.284  17.070  1.00  0.00     0.163 C 
HETATM    8  C   UNL     1     -39.094 -55.276  15.328  1.00  0.00     0.330 A 
HETATM    9  O   UNL     1     -38.082 -55.848  15.731  1.00  0.00    -0.246 OA
HETATM   10  N   UNL     1     -39.000 -54.452  14.232  1.00  0.00    -0.273 N 
HETATM   11  C   UNL     1     -40.015 -53.736  13.653  1.00  0.00     0.280 A 
HETATM   12  O   UNL     1     -39.815 -53.010  12.689  1.00  0.00    -0.265 OA
HETATM   13  C   UNL     1     -41.271 -53.931  14.297  1.00  0.00     0.164 A 
HETATM   14  H   UNL     1     -38.087 -54.359  13.815  1.00  0.00     0.173 HD
ENDROOT
BRANCH   2  15
HETATM   15  N   UNL     1     -44.712 -53.522  15.144  1.00  0.00    -0.219 N 
HETATM   16  C   UNL     1     -45.298 -52.697  16.182  1.00  0.00     0.141 C 
HETATM   17  C   UNL     1     -45.398 -51.298  15.606  1.00  0.00     0.020 C 
HETATM   18  C   UNL     1     -46.503 -51.300  14.566  1.00  0.00     0.003 C 
HETATM   19  C   UNL     1     -46.572 -52.579  13.688  1.00  0.00     0.039 A 
HETATM   20  C   UNL     1     -46.404 -52.213  12.213  1.00  0.00     0.004 A 
HETATM   21  C   UNL     1     -45.654 -53.794  14.050  1.00  0.00     0.120 A 
ENDBRANCH   2  15
BRANCH   1  22
HETATM   22  C   UNL     1     -42.784 -52.678  12.812  1.00  0.00     0.174 C 
BRANCH  22  23
HETATM   23  C   UNL     1     -42.811 -51.177  13.074  1.00  0.00     0.187 C 
BRANCH  23  24
HETATM   24  O   UNL     1     -41.962 -50.547  12.113  1.00  0.00    -0.394 OA
HETATM   25  C   UNL     1     -41.045 -49.654  12.729  1.00  0.00     0.201 C 
ENDBRANCH  23  24
ENDBRANCH  22  23
ENDBRANCH   1  22
TORSDOF 4
ENDMDL
MODEL 3
REMARK VINA RESULT:      -6.1      2.122      3.409
REMARK  4 active torsions:
REMARK  status: ('A' for Active; 'I' for Inactive)
REMARK    1  A    between atoms: O_2  and  C_3 
REMARK    2  A    between atoms: C_3  and  C_4 
REMARK    3  A    between atoms: C_4  and  N_5 
REMARK    4  A    between atoms: C_6  and  N_18 
ROOT
HETATM    1  N   UNL     1     -41.414 -48.457  12.408  1.00  0.00    -0.172 N 
HETATM    2  C   UNL     1     -42.485 -49.328  12.605  1.00  0.00     0.684 A 
HETATM    3  N   UNL     1     -43.475 -48.978  11.783  1.00  0.00    -0.174 N 
ATOM      4  HN  UNL     1     -44.400 -49.405  11.729  1.00  0.00     0.186 HD
HETATM    5  C   UNL     1     -43.014 -47.937  11.026  1.00  0.00     0.160 A 
HETATM    6  N   UNL     1     -43.671 -47.238  10.025  1.00  0.00    -0.287 N 
HETATM    7  C   UNL     1     -45.040 -47.486   9.643  1.00  0.00     0.163 C 
HETATM    8  C   UNL     1     -42.997 -46.210   9.361  1.00  0.00     0.330 A 
HETATM    9  O   UNL     1     -43.498 -45.537   8.461  1.00  0.00    -0.246 OA
HETATM   10  N   UNL     1     -41.699 -45.958   9.736  1.00  0.00    -0.273 N 
HETATM   11  C   UNL     1     -40.985 -46.608  10.708  1.00  0.00     0.280 A 
HETATM   12  O   UNL     1     -39.820 -46.318  10.945  1.00  0.00    -0.265 OA
HETATM   13  C   UNL     1     -41.735 -47.624  11.366  1.00  0.00     0.164 A 
HETATM   14  H   UNL     1     -41.221 -45.223   9.239  1.00  0.00     0.173 HD
ENDROOT
BRANCH   2  15
HETATM   15  N   UNL     1     -42.519 -50.382  13.489  1.00  0.00    -0.219 N 
HETATM   16  C   UNL     1     -42.901 -50.343  14.886  1.00  0.00     0.141 C 
HETATM   17  C   UNL     1     -44.354 -50.776  14.940  1.00  0.00     0.020 C 
HETATM   18  C   UNL     1     -44.407 -52.266  14.657  1.00  0.00     0.003 C 
HETATM   19  C   UNL     1     -43.421 -52.759  13.564  1.00  0.00     0.039 A 
HETATM   20  C   UNL     1     -44.192 -53.420  12.421  1.00  0.00     0.004 A 
HETATM   21  C   UNL     1     -42.364 -51.756  12.992  1.00  0.00     0.120 A 
ENDBRANCH   2  15
BRANCH   1  22
HETATM   22  C   UNL     1     -40.171 -48.326  13.133  1.00  0.00     0.174 C 
BRANCH  22  23
HETATM   23  C   UNL     1     -39.197 -49.461  12.838  1.00  0.00     0.187 C 
BRANCH  23  24
HETATM   24  O   UNL     1     -38.384 -49.067  11.732  1.00  0.00    -0.394 OA
HETATM   25  C   UNL     1     -37.464 -50.086  11.368  1.00  0.00     0.201 C 
ENDBRANCH  23  24
ENDBRANCH  22  23
ENDBRANCH   1  22
TORSDOF 4
ENDMDL
MODEL 4
REMARK VINA RESULT:      -5.7      1.263      2.272
REMARK  4 active torsions:
REMARK  status: ('A' for Active; 'I' for Inactive)
REMARK    1  A    between atoms: O_2  and  C_3 
REMARK    2  A    between atoms: C_3  and  C_4 
REMARK    3  A    between atoms: C_4  and  N_5 
REMARK    4  A    between atoms: C_6  and  N_18 
ROOT
HETATM    1  N   UNL     1     -41.878 -51.290  13.129  1.00  0.00    -0.172 N 
HETATM    2  C   UNL     1     -43.262 -51.138  13.209  1.00  0.00     0.684 A 
HETATM    3  N   UNL     1     -43.594 -49.968  12.661  1.00  0.00    -0.174 N 
ATOM      4  HN  UNL     1     -44.529 -49.565  12.611  1.00  0.00     0.186 HD
HETATM    5  C   UNL     1     -42.441 -49.413  12.180  1.00  0.00     0.160 A 
HETATM    6  N   UNL     1     -42.273 -48.206  11.520  1.00  0.00    -0.287 N 
HETATM    7  C   UNL     1     -43.346 -47.276  11.268  1.00  0.00     0.163 C 
HETATM    8  C   UNL     1     -40.994 -47.837  11.094  1.00  0.00     0.330 A 
HETATM    9  O   UNL     1     -40.749 -46.789  10.501  1.00  0.00    -0.246 OA
HETATM   10  N   UNL     1     -39.965 -48.713  11.349  1.00  0.00    -0.273 N 
HETATM   11  C   UNL     1     -40.055 -49.921  11.990  1.00  0.00     0.280 A 
HETATM   12  O   UNL     1     -39.075 -50.637  12.142  1.00  0.00    -0.265 OA
HETATM   13  C   UNL     1     -41.378 -50.225  12.423  1.00  0.00     0.164 A 
HETATM   14  H   UNL     1     -39.051 -48.440  11.025  1.00  0.00     0.173 HD
ENDROOT
BRANCH   2  15
HETATM   15  N   UNL     1     -44.145 -52.044  13.749  1.00  0.00    -0.219 N 
HETATM   16  C   UNL     1     -45.112 -52.856  13.038  1.00  0.00     0.141 C 
HETATM   17  C   UNL     1     -44.464 -54.213  12.843  1.00  0.00     0.020 C 
HETATM   18  C   UNL     1     -44.424 -54.909  14.191  1.00  0.00     0.003 C 
HETATM   19  C   UNL     1     -44.095 -53.984  15.393  1.00  0.00     0.039 A 
HETATM   20  C   UNL     1     -42.833 -54.474  16.103  1.00  0.00     0.004 A 
HETATM   21  C   UNL     1     -44.016 -52.439  15.159  1.00  0.00     0.120 A 
ENDBRANCH   2  15
BRANCH   1  22
HETATM   22  C   UNL     1     -41.016 -52.306  13.688  1.00  0.00     0.174 C 
BRANCH  22  23
HETATM   23  C   UNL     1     -40.935 -53.553  12.815  1.00  0.00     0.187 C 
BRANCH  23  24
HETATM   24  O   UNL     1     -39.756 -54.271  13.180  1.00  0.00    -0.394 OA
HETATM   25  C   UNL     1     -39.130 -53.705  14.322  1.00  0.00     0.201 C 
ENDBRANCH  23  24
ENDBRANCH  22  23
ENDBRANCH   1  22
TORSDOF 4
ENDMDL
MODEL 5
REMARK VINA RESULT:      -5.7      1.808      5.650
REMARK  4 active torsions:
REMARK  status: ('A' for Active; 'I' for Inactive)
REMARK    1  A    between atoms: O_2  and  C_3 
REMARK    2  A    between atoms: C_3  and  C_4 
REMARK    3  A    between atoms: C_4  and  N_5 
REMARK    4  A    between atoms: C_6  and  N_18 
ROOT
HETATM    1  N   UNL     1     -41.997 -51.464  12.534  1.00  0.00    -0.172 N 
HETATM    2  C   UNL     1     -42.605 -50.209  12.516  1.00  0.00     0.684 A 
HETATM    3  N   UNL     1     -43.883 -50.350  12.870  1.00  0.00    -0.174 N 
ATOM      4  HN  UNL     1     -44.587 -49.613  12.908  1.00  0.00     0.186 HD
HETATM    5  C   UNL     1     -44.068 -51.671  13.173  1.00  0.00     0.160 A 
HETATM    6  N   UNL     1     -45.224 -52.304  13.601  1.00  0.00    -0.287 N 
HETATM    7  C   UNL     1     -46.494 -51.637  13.752  1.00  0.00     0.163 C 
HETATM    8  C   UNL     1     -45.185 -53.675  13.874  1.00  0.00     0.330 A 
HETATM    9  O   UNL     1     -46.158 -54.321  14.258  1.00  0.00    -0.246 OA
HETATM   10  N   UNL     1     -43.981 -54.318  13.712  1.00  0.00    -0.273 N 
HETATM   11  C   UNL     1     -42.800 -53.758  13.300  1.00  0.00     0.280 A 
HETATM   12  O   UNL     1     -41.776 -54.422  13.213  1.00  0.00    -0.265 OA
HETATM   13  C   UNL     1     -42.913 -52.368  13.010  1.00  0.00     0.164 A 
HETATM   14  H   UNL     1     -43.965 -55.303  13.926  1.00  0.00     0.173 HD
ENDROOT
BRANCH   2  15
HETATM   15  N   UNL     1     -41.993 -49.019  12.199  1.00  0.00    -0.219 N 
HETATM   16  C   UNL     1     -41.713 -48.502  10.874  1.00  0.00     0.141 C 
HETATM   17  C   UNL     1     -42.842 -47.545  10.546  1.00  0.00     0.020 C 
HETATM   18  C   UNL     1     -42.660 -46.300  11.396  1.00  0.00     0.003 C 
HETATM   19  C   UNL     1     -42.177 -46.566  12.847  1.00  0.00     0.039 A 
HETATM   20  C   UNL     1     -43.194 -46.018  13.849  1.00  0.00     0.004 A 
HETATM   21  C   UNL     1     -41.754 -48.018  13.249  1.00  0.00     0.120 A 
ENDBRANCH   2  15
BRANCH   1  22
HETATM   22  C   UNL     1     -40.677 -51.869  12.108  1.00  0.00     0.174 C 
BRANCH  22  23
HETATM   23  C   UNL     1     -39.603 -51.548  13.140  1.00  0.00     0.187 C 
BRANCH  23  24
HETATM   24  O   UNL     1     -38.375 -51.330  12.445  1.00  0.00    -0.394 OA
HETATM   25  C   UNL     1     -38.363 -50.075  11.781  1.00  0.00     0.201 C 
ENDBRANCH  23  24
ENDBRANCH  22  23
ENDBRANCH   1  22
TORSDOF 4
ENDMDL
MODEL 6
REMARK VINA RESULT:      -5.5      2.141      3.159
REMARK  4 active torsions:
REMARK  status: ('A' for Active; 'I' for Inactive)
REMARK    1  A    between atoms: O_2  and  C_3 
REMARK    2  A    between atoms: C_3  and  C_4 
REMARK    3  A    between atoms: C_4  and  N_5 
REMARK    4  A    between atoms: C_6  and  N_18 
ROOT
HETATM    1  N   UNL     1     -42.407 -52.502  14.085  1.00  0.00    -0.172 N 
HETATM    2  C   UNL     1     -43.282 -51.902  13.179  1.00  0.00     0.684 A 
HETATM    3  N   UNL     1     -42.578 -51.108  12.371  1.00  0.00    -0.174 N 
ATOM      4  HN  UNL     1     -42.950 -50.508  11.634  1.00  0.00     0.186 HD
HETATM    5  C   UNL     1     -41.263 -51.252  12.718  1.00  0.00     0.160 A 
HETATM    6  N   UNL     1     -40.151 -50.640  12.162  1.00  0.00    -0.287 N 
HETATM    7  C   UNL     1     -40.221 -49.664  11.102  1.00  0.00     0.163 C 
HETATM    8  C   UNL     1     -38.884 -50.949  12.665  1.00  0.00     0.330 A 
HETATM    9  O   UNL     1     -37.842 -50.458  12.235  1.00  0.00    -0.246 OA
HETATM   10  N   UNL     1     -38.816 -51.865  13.688  1.00  0.00    -0.273 N 
HETATM   11  C   UNL     1     -39.867 -52.512  14.283  1.00  0.00     0.280 A 
HETATM   12  O   UNL     1     -39.690 -53.331  15.174  1.00  0.00    -0.265 OA
HETATM   13  C   UNL     1     -41.130 -52.133  13.745  1.00  0.00     0.164 A 
HETATM   14  H   UNL     1     -37.895 -52.088  14.032  1.00  0.00     0.173 HD
ENDROOT
BRANCH   2  15
HETATM   15  N   UNL     1     -44.641 -52.101  13.115  1.00  0.00    -0.219 N 
HETATM   16  C   UNL     1     -45.333 -53.280  12.632  1.00  0.00     0.141 C 
HETATM   17  C   UNL     1     -45.676 -54.102  13.859  1.00  0.00     0.020 C 
HETATM   18  C   UNL     1     -46.790 -53.386  14.603  1.00  0.00     0.003 C 
HETATM   19  C   UNL     1     -46.665 -51.839  14.633  1.00  0.00     0.039 A 
HETATM   20  C   UNL     1     -46.595 -51.346  16.079  1.00  0.00     0.004 A 
HETATM   21  C   UNL     1     -45.550 -51.154  13.775  1.00  0.00     0.120 A 
ENDBRANCH   2  15
BRANCH   1  22
HETATM   22  C   UNL     1     -42.680 -53.332  15.237  1.00  0.00     0.174 C 
BRANCH  22  23
HETATM   23  C   UNL     1     -42.551 -54.819  14.931  1.00  0.00     0.187 C 
BRANCH  23  24
HETATM   24  O   UNL     1     -43.062 -55.545  16.049  1.00  0.00    -0.394 OA
HETATM   25  C   UNL     1     -42.039 -56.268  16.718  1.00  0.00     0.201 C 
ENDBRANCH  23  24
ENDBRANCH  22  23
ENDBRANCH   1  22
TORSDOF 4
ENDMDL
MODEL 7
REMARK VINA RESULT:      -5.4      3.363      6.789
REMARK  4 active torsions:
REMARK  status: ('A' for Active; 'I' for Inactive)
REMARK    1  A    between atoms: O_2  and  C_3 
REMARK    2  A    between atoms: C_3  and  C_4 
REMARK    3  A    between atoms: C_4  and  N_5 
REMARK    4  A    between atoms: C_6  and  N_18 
ROOT
HETATM    1  N   UNL     1     -40.452 -53.834  14.606  1.00  0.00    -0.172 N 
HETATM    2  C   UNL     1     -40.911 -54.508  15.738  1.00  0.00     0.684 A 
HETATM    3  N   UNL     1     -42.237 -54.627  15.653  1.00  0.00    -0.174 N 
ATOM      4  HN  UNL     1     -42.855 -55.039  16.352  1.00  0.00     0.186 HD
HETATM    5  C   UNL     1     -42.608 -54.093  14.451  1.00  0.00     0.160 A 
HETATM    6  N   UNL     1     -43.878 -53.993  13.905  1.00  0.00    -0.287 N 
HETATM    7  C   UNL     1     -45.077 -54.418  14.585  1.00  0.00     0.163 C 
HETATM    8  C   UNL     1     -44.029 -53.420  12.639  1.00  0.00     0.330 A 
HETATM    9  O   UNL     1     -45.115 -53.291  12.075  1.00  0.00    -0.246 OA
HETATM   10  N   UNL     1     -42.891 -52.996  11.996  1.00  0.00    -0.273 N 
HETATM   11  C   UNL     1     -41.607 -53.067  12.468  1.00  0.00     0.280 A 
HETATM   12  O   UNL     1     -40.658 -52.680  11.799  1.00  0.00    -0.265 OA
HETATM   13  C   UNL     1     -41.523 -53.633  13.773  1.00  0.00     0.164 A 
HETATM   14  H   UNL     1     -43.014 -52.598  11.078  1.00  0.00     0.173 HD
ENDROOT
BRANCH   2  15
HETATM   15  N   UNL     1     -40.132 -54.984  16.767  1.00  0.00    -0.219 N 
HETATM   16  C   UNL     1     -39.393 -56.231  16.802  1.00  0.00     0.141 C 
HETATM   17  C   UNL     1     -37.967 -55.888  16.418  1.00  0.00     0.020 C 
HETATM   18  C   UNL     1     -37.339 -55.136  17.577  1.00  0.00     0.003 C 
HETATM   19  C   UNL     1     -38.283 -54.131  18.291  1.00  0.00     0.039 A 
HETATM   20  C   UNL     1     -37.698 -52.720  18.223  1.00  0.00     0.004 A 
HETATM   21  C   UNL     1     -39.798 -54.106  17.897  1.00  0.00     0.120 A 
ENDBRANCH   2  15
BRANCH   1  22
HETATM   22  C   UNL     1     -39.132 -53.342  14.284  1.00  0.00     0.174 C 
BRANCH  22  23
HETATM   23  C   UNL     1     -38.895 -51.924  14.790  1.00  0.00     0.187 C 
BRANCH  23  24
HETATM   24  O   UNL     1     -38.380 -51.150  13.706  1.00  0.00    -0.394 OA
HETATM   25  C   UNL     1     -38.958 -49.853  13.667  1.00  0.00     0.201 C 
ENDBRANCH  23  24
ENDBRANCH  22  23
ENDBRANCH   1  22
TORSDOF 4
ENDMDL
MODEL 8
REMARK VINA RESULT:      -5.3      2.559      5.457
REMARK  4 active torsions:
REMARK  status: ('A' for Active; 'I' for Inactive)
REMARK    1  A    between atoms: O_2  and  C_3 
REMARK    2  A    between atoms: C_3  and  C_4 
REMARK    3  A    between atoms: C_4  and  N_5 
REMARK    4  A    between atoms: C_6  and  N_18 
ROOT
HETATM    1  N   UNL     1     -41.579 -52.048  14.314  1.00  0.00    -0.172 N 
HETATM    2  C   UNL     1     -42.871 -52.272  14.788  1.00  0.00     0.684 A 
HETATM    3  N   UNL     1     -42.897 -53.450  15.413  1.00  0.00    -0.174 N 
ATOM      4  HN  UNL     1     -43.712 -53.900  15.828  1.00  0.00     0.186 HD
HETATM    5  C   UNL     1     -41.620 -53.940  15.391  1.00  0.00     0.160 A 
HETATM    6  N   UNL     1     -41.141 -55.128  15.920  1.00  0.00    -0.287 N 
HETATM    7  C   UNL     1     -41.976 -56.109  16.569  1.00  0.00     0.163 C 
HETATM    8  C   UNL     1     -39.781 -55.425  15.798  1.00  0.00     0.330 A 
HETATM    9  O   UNL     1     -39.267 -56.453  16.237  1.00  0.00    -0.246 OA
HETATM   10  N   UNL     1     -38.985 -54.501  15.163  1.00  0.00    -0.273 N 
HETATM   11  C   UNL     1     -39.385 -53.308  14.622  1.00  0.00     0.280 A 
HETATM   12  O   UNL     1     -38.585 -52.545  14.099  1.00  0.00    -0.265 OA
HETATM   13  C   UNL     1     -40.785 -53.077  14.753  1.00  0.00     0.164 A 
HETATM   14  H   UNL     1     -38.004 -54.723  15.096  1.00  0.00     0.173 HD
ENDROOT
BRANCH   2  15
HETATM   15  N   UNL     1     -43.942 -51.419  14.652  1.00  0.00    -0.219 N 
HETATM   16  C   UNL     1     -44.570 -50.992  13.418  1.00  0.00     0.141 C 
HETATM   17  C   UNL     1     -45.776 -51.890  13.223  1.00  0.00     0.020 C 
HETATM   18  C   UNL     1     -46.824 -51.491  14.245  1.00  0.00     0.003 C 
HETATM   19  C   UNL     1     -46.264 -51.126  15.646  1.00  0.00     0.039 A 
HETATM   20  C   UNL     1     -46.865 -52.046  16.709  1.00  0.00     0.004 A 
HETATM   21  C   UNL     1     -44.714 -51.022  15.837  1.00  0.00     0.120 A 
ENDBRANCH   2  15
BRANCH   1  22
HETATM   22  C   UNL     1     -41.064 -50.997  13.466  1.00  0.00     0.174 C 
BRANCH  22  23
HETATM   23  C   UNL     1     -41.187 -51.326  11.983  1.00  0.00     0.187 C 
BRANCH  23  24
HETATM   24  O   UNL     1     -40.328 -50.442  11.263  1.00  0.00    -0.394 OA
HETATM   25  C   UNL     1     -39.602 -49.588  12.135  1.00  0.00     0.201 C 
ENDBRANCH  23  24
ENDBRANCH  22  23
ENDBRANCH   1  22
TORSDOF 4
ENDMDL
MODEL 9
REMARK VINA RESULT:      -5.3      1.945      2.851
REMARK  4 active torsions:
REMARK  status: ('A' for Active; 'I' for Inactive)
REMARK    1  A    between atoms: O_2  and  C_3 
REMARK    2  A    between atoms: C_3  and  C_4 
REMARK    3  A    between atoms: C_4  and  N_5 
REMARK    4  A    between atoms: C_6  and  N_18 
ROOT
HETATM    1  N   UNL     1     -40.269 -51.247  12.510  1.00  0.00    -0.172 N 
HETATM    2  C   UNL     1     -41.579 -51.702  12.365  1.00  0.00     0.684 A 
HETATM    3  N   UNL     1     -42.332 -50.697  11.917  1.00  0.00    -0.174 N 
ATOM      4  HN  UNL     1     -43.338 -50.717  11.753  1.00  0.00     0.186 HD
HETATM    5  C   UNL     1     -41.496 -49.632  11.718  1.00  0.00     0.160 A 
HETATM    6  N   UNL     1     -41.808 -48.365  11.252  1.00  0.00    -0.287 N 
HETATM    7  C   UNL     1     -43.148 -47.936  10.933  1.00  0.00     0.163 C 
HETATM    8  C   UNL     1     -40.784 -47.425  11.107  1.00  0.00     0.330 A 
HETATM    9  O   UNL     1     -40.964 -46.279  10.700  1.00  0.00    -0.246 OA
HETATM   10  N   UNL     1     -39.508 -47.824  11.428  1.00  0.00    -0.273 N 
HETATM   11  C   UNL     1     -39.125 -49.057  11.887  1.00  0.00     0.280 A 
HETATM   12  O   UNL     1     -37.952 -49.315  12.120  1.00  0.00    -0.265 OA
HETATM   13  C   UNL     1     -40.217 -49.959  12.040  1.00  0.00     0.164 A 
HETATM   14  H   UNL     1     -38.778 -47.140  11.305  1.00  0.00     0.173 HD
ENDROOT
BRANCH   2  15
HETATM   15  N   UNL     1     -42.026 -52.977  12.625  1.00  0.00    -0.219 N 
HETATM   16  C   UNL     1     -41.292 -54.049  13.268  1.00  0.00     0.141 C 
HETATM   17  C   UNL     1     -41.714 -54.037  14.724  1.00  0.00     0.020 C 
HETATM   18  C   UNL     1     -43.136 -54.561  14.802  1.00  0.00     0.003 C 
HETATM   19  C   UNL     1     -44.068 -54.093  13.652  1.00  0.00     0.039 A 
HETATM   20  C   UNL     1     -45.265 -53.332  14.222  1.00  0.00     0.004 A 
HETATM   21  C   UNL     1     -43.448 -53.302  12.452  1.00  0.00     0.120 A 
ENDBRANCH   2  15
BRANCH   1  22
HETATM   22  C   UNL     1     -39.112 -51.897  13.082  1.00  0.00     0.174 C 
BRANCH  22  23
HETATM   23  C   UNL     1     -39.009 -51.690  14.589  1.00  0.00     0.187 C 
BRANCH  23  24
HETATM   24  O   UNL     1     -37.870 -50.867  14.843  1.00  0.00    -0.394 OA
HETATM   25  C   UNL     1     -38.214 -49.715  15.601  1.00  0.00     0.201 C 
ENDBRANCH  23  24
ENDBRANCH  22  23
ENDBRANCH   1  22
TORSDOF 4
ENDMDL
