MODEL 1
REMARK VINA RESULT:      -5.4      0.000      0.000
REMARK  3 active torsions:
REMARK  status: ('A' for Active; 'I' for Inactive)
REMARK    1  A    between atoms: C_2  and  N_5 
REMARK       I    between atoms: N_5  and  C_6 
REMARK    2  A    between atoms: C_6  and  C_8 
REMARK    3  A    between atoms: C_8  and  N_9 
ROOT
HETATM    1  N   UNL     1     -42.100 -53.065  12.522  1.00  0.00    -0.246 N 
HETATM    2  N   UNL     1     -43.409 -52.905  12.043  1.00  0.00    -0.261 N 
HETATM    3  C   UNL     1     -44.490 -53.493  12.640  1.00  0.00     0.260 A 
HETATM    4  O   UNL     1     -45.638 -53.336  12.240  1.00  0.00    -0.267 OA
HETATM    5  C   UNL     1     -44.206 -54.348  13.804  1.00  0.00     0.081 A 
HETATM    6  C   UNL     1     -42.956 -54.539  14.238  1.00  0.00     0.081 A 
HETATM    7  C   UNL     1     -41.804 -53.868  13.600  1.00  0.00     0.262 A 
HETATM    8  O   UNL     1     -40.675 -54.022  14.053  1.00  0.00    -0.267 OA
HETATM    9  H   UNL     1     -43.560 -52.426  11.160  1.00  0.00     0.190 HD
ENDROOT
BRANCH   1  10
HETATM   10  C   UNL     1     -41.079 -52.258  11.874  1.00  0.00     0.255 C 
BRANCH  10  11
HETATM   11  C   UNL     1     -41.232 -50.790  12.267  1.00  0.00     0.238 C 
HETATM   12  N   UNL     1     -41.547 -49.938  11.221  1.00  0.00    -0.352 N 
HETATM   13  H   UNL     1     -41.849 -50.364  10.350  1.00  0.00     0.163 HD
HETATM   14  O   UNL     1     -41.069 -50.419  13.428  1.00  0.00    -0.272 OA
BRANCH  12  15
HETATM   15  C   UNL     1     -41.791 -48.493  11.375  1.00  0.00     0.022 C 
HETATM   16  C   UNL     1     -40.500 -47.764  11.780  1.00  0.00     0.037 C 
HETATM   17  C   UNL     1     -42.902 -48.230  12.404  1.00  0.00     0.037 C 
HETATM   18  C   UNL     1     -42.252 -47.922  10.019  1.00  0.00     0.037 C 
ENDBRANCH  12  15
ENDBRANCH  10  11
ENDBRANCH   1  10
TORSDOF 3
ENDMDL
MODEL 2
REMARK VINA RESULT:      -5.4      1.550      2.015
REMARK  3 active torsions:
REMARK  status: ('A' for Active; 'I' for Inactive)
REMARK    1  A    between atoms: C_2  and  N_5 
REMARK       I    between atoms: N_5  and  C_6 
REMARK    2  A    between atoms: C_6  and  C_8 
REMARK    3  A    between atoms: C_8  and  N_9 
ROOT
HETATM    1  N   UNL     1     -42.263 -53.516  12.718  1.00  0.00    -0.246 N 
HETATM    2  N   UNL     1     -43.443 -53.113  12.076  1.00  0.00    -0.261 N 
HETATM    3  C   UNL     1     -44.685 -53.341  12.602  1.00  0.00     0.260 A 
HETATM    4  O   UNL     1     -45.717 -52.969  12.057  1.00  0.00    -0.267 OA
HETATM    5  C   UNL     1     -44.727 -54.078  13.876  1.00  0.00     0.081 A 
HETATM    6  C   UNL     1     -43.607 -54.503  14.470  1.00  0.00     0.081 A 
HETATM    7  C   UNL     1     -42.273 -54.217  13.903  1.00  0.00     0.262 A 
HETATM    8  O   UNL     1     -41.262 -54.575  14.498  1.00  0.00    -0.267 OA
HETATM    9  H   UNL     1     -43.392 -52.733  11.136  1.00  0.00     0.190 HD
ENDROOT
BRANCH   1  10
HETATM   10  C   UNL     1     -41.020 -53.070  12.111  1.00  0.00     0.255 C 
BRANCH  10  11
HETATM   11  C   UNL     1     -40.749 -51.608  12.466  1.00  0.00     0.238 C 
HETATM   12  N   UNL     1     -39.519 -51.128  12.050  1.00  0.00    -0.352 N 
HETATM   13  H   UNL     1     -39.000 -51.693  11.385  1.00  0.00     0.163 HD
HETATM   14  O   UNL     1     -41.573 -50.938  13.085  1.00  0.00    -0.272 OA
BRANCH  12  15
HETATM   15  C   UNL     1     -39.066 -49.739  12.238  1.00  0.00     0.022 C 
HETATM   16  C   UNL     1     -38.892 -49.421  13.733  1.00  0.00     0.037 C 
HETATM   17  C   UNL     1     -40.046 -48.748  11.589  1.00  0.00     0.037 C 
HETATM   18  C   UNL     1     -37.694 -49.568  11.555  1.00  0.00     0.037 C 
ENDBRANCH  12  15
ENDBRANCH  10  11
ENDBRANCH   1  10
TORSDOF 3
ENDMDL
MODEL 3
REMARK VINA RESULT:      -5.3      3.192      4.886
REMARK  3 active torsions:
REMARK  status: ('A' for Active; 'I' for Inactive)
REMARK    1  A    between atoms: C_2  and  N_5 
REMARK       I    between atoms: N_5  and  C_6 
REMARK    2  A    between atoms: C_6  and  C_8 
REMARK    3  A    between atoms: C_8  and  N_9 
ROOT
HETATM    1  N   UNL     1     -42.658 -54.984  14.739  1.00  0.00    -0.246 N 
HETATM    2  N   UNL     1     -41.879 -54.309  13.789  1.00  0.00    -0.261 N 
HETATM    3  C   UNL     1     -40.532 -54.122  13.937  1.00  0.00     0.260 A 
HETATM    4  O   UNL     1     -39.842 -53.554  13.099  1.00  0.00    -0.267 OA
HETATM    5  C   UNL     1     -39.937 -54.638  15.181  1.00  0.00     0.081 A 
HETATM    6  C   UNL     1     -40.683 -55.244  16.110  1.00  0.00     0.081 A 
HETATM    7  C   UNL     1     -42.131 -55.466  15.915  1.00  0.00     0.262 A 
HETATM    8  O   UNL     1     -42.780 -56.071  16.762  1.00  0.00    -0.267 OA
HETATM    9  H   UNL     1     -42.336 -53.842  13.011  1.00  0.00     0.190 HD
ENDROOT
BRANCH   1  10
HETATM   10  C   UNL     1     -44.042 -55.234  14.369  1.00  0.00     0.255 C 
BRANCH  10  11
HETATM   11  C   UNL     1     -44.590 -54.073  13.540  1.00  0.00     0.238 C 
HETATM   12  N   UNL     1     -45.239 -53.093  14.272  1.00  0.00    -0.352 N 
HETATM   13  H   UNL     1     -45.122 -53.111  15.280  1.00  0.00     0.163 HD
HETATM   14  O   UNL     1     -44.461 -54.044  12.318  1.00  0.00    -0.272 OA
BRANCH  12  15
HETATM   15  C   UNL     1     -45.800 -51.861  13.690  1.00  0.00     0.022 C 
HETATM   16  C   UNL     1     -46.541 -52.168  12.379  1.00  0.00     0.037 C 
HETATM   17  C   UNL     1     -44.700 -50.814  13.453  1.00  0.00     0.037 C 
HETATM   18  C   UNL     1     -46.820 -51.266  14.682  1.00  0.00     0.037 C 
ENDBRANCH  12  15
ENDBRANCH  10  11
ENDBRANCH   1  10
TORSDOF 3
ENDMDL
MODEL 4
REMARK VINA RESULT:      -5.3      2.023      4.977
REMARK  3 active torsions:
REMARK  status: ('A' for Active; 'I' for Inactive)
REMARK    1  A    between atoms: C_2  and  N_5 
REMARK       I    between atoms: N_5  and  C_6 
REMARK    2  A    between atoms: C_6  and  C_8 
REMARK    3  A    between atoms: C_8  and  N_9 
ROOT
HETATM    1  N   UNL     1     -40.999 -51.252  11.969  1.00  0.00    -0.246 N 
HETATM    2  N   UNL     1     -41.605 -50.154  11.341  1.00  0.00    -0.261 N 
HETATM    3  C   UNL     1     -40.971 -48.953  11.181  1.00  0.00     0.260 A 
HETATM    4  O   UNL     1     -41.487 -47.998  10.612  1.00  0.00    -0.267 OA
HETATM    5  C   UNL     1     -39.614 -48.853  11.743  1.00  0.00     0.081 A 
HETATM    6  C   UNL     1     -39.048 -49.883  12.380  1.00  0.00     0.081 A 
HETATM    7  C   UNL     1     -39.736 -51.183  12.513  1.00  0.00     0.262 A 
HETATM    8  O   UNL     1     -39.171 -52.126  13.058  1.00  0.00    -0.267 OA
HETATM    9  H   UNL     1     -42.587 -50.206  11.089  1.00  0.00     0.190 HD
ENDROOT
BRANCH   1  10
HETATM   10  C   UNL     1     -41.741 -52.502  11.928  1.00  0.00     0.255 C 
BRANCH  10  11
HETATM   11  C   UNL     1     -42.898 -52.466  12.925  1.00  0.00     0.238 C 
HETATM   12  N   UNL     1     -44.154 -52.359  12.352  1.00  0.00    -0.352 N 
HETATM   13  H   UNL     1     -44.225 -52.521  11.353  1.00  0.00     0.163 HD
HETATM   14  O   UNL     1     -42.699 -52.516  14.137  1.00  0.00    -0.272 OA
BRANCH  12  15
HETATM   15  C   UNL     1     -45.414 -52.357  13.116  1.00  0.00     0.022 C 
HETATM   16  C   UNL     1     -45.397 -51.258  14.191  1.00  0.00     0.037 C 
HETATM   17  C   UNL     1     -45.672 -53.731  13.756  1.00  0.00     0.037 C 
HETATM   18  C   UNL     1     -46.578 -52.056  12.150  1.00  0.00     0.037 C 
ENDBRANCH  12  15
ENDBRANCH  10  11
ENDBRANCH   1  10
TORSDOF 3
ENDMDL
MODEL 5
REMARK VINA RESULT:      -5.0      2.518      6.049
REMARK  3 active torsions:
REMARK  status: ('A' for Active; 'I' for Inactive)
REMARK    1  A    between atoms: C_2  and  N_5 
REMARK       I    between atoms: N_5  and  C_6 
REMARK    2  A    between atoms: C_6  and  C_8 
REMARK    3  A    between atoms: C_8  and  N_9 
ROOT
HETATM    1  N   UNL     1     -41.518 -48.139  10.611  1.00  0.00    -0.246 N 
HETATM    2  N   UNL     1     -42.702 -48.357   9.891  1.00  0.00    -0.261 N 
HETATM    3  C   UNL     1     -43.435 -47.337   9.351  1.00  0.00     0.260 A 
HETATM    4  O   UNL     1     -44.458 -47.523   8.701  1.00  0.00    -0.267 OA
HETATM    5  C   UNL     1     -42.937 -45.974   9.600  1.00  0.00     0.081 A 
HETATM    6  C   UNL     1     -41.832 -45.759  10.322  1.00  0.00     0.081 A 
HETATM    7  C   UNL     1     -41.035 -46.876  10.868  1.00  0.00     0.262 A 
HETATM    8  O   UNL     1     -39.998 -46.649  11.483  1.00  0.00    -0.267 OA
HETATM    9  H   UNL     1     -43.097 -49.292   9.855  1.00  0.00     0.190 HD
ENDROOT
BRANCH   1  10
HETATM   10  C   UNL     1     -40.773 -49.329  10.991  1.00  0.00     0.255 C 
BRANCH  10  11
HETATM   11  C   UNL     1     -41.599 -50.194  11.941  1.00  0.00     0.238 C 
HETATM   12  N   UNL     1     -41.242 -51.532  11.967  1.00  0.00    -0.352 N 
HETATM   13  H   UNL     1     -40.360 -51.786  11.534  1.00  0.00     0.163 HD
HETATM   14  O   UNL     1     -42.514 -49.715  12.609  1.00  0.00    -0.272 OA
BRANCH  12  15
HETATM   15  C   UNL     1     -41.867 -52.537  12.844  1.00  0.00     0.022 C 
HETATM   16  C   UNL     1     -43.316 -52.811  12.411  1.00  0.00     0.037 C 
HETATM   17  C   UNL     1     -41.820 -52.091  14.314  1.00  0.00     0.037 C 
HETATM   18  C   UNL     1     -41.079 -53.858  12.722  1.00  0.00     0.037 C 
ENDBRANCH  12  15
ENDBRANCH  10  11
ENDBRANCH   1  10
TORSDOF 3
ENDMDL
MODEL 6
REMARK VINA RESULT:      -5.0      3.556      4.848
REMARK  3 active torsions:
REMARK  status: ('A' for Active; 'I' for Inactive)
REMARK    1  A    between atoms: C_2  and  N_5 
REMARK       I    between atoms: N_5  and  C_6 
REMARK    2  A    between atoms: C_6  and  C_8 
REMARK    3  A    between atoms: C_8  and  N_9 
ROOT
HETATM    1  N   UNL     1     -44.792 -53.532  14.331  1.00  0.00    -0.246 N 
HETATM    2  N   UNL     1     -45.324 -53.476  13.035  1.00  0.00    -0.261 N 
HETATM    3  C   UNL     1     -46.177 -52.486  12.629  1.00  0.00     0.260 A 
HETATM    4  O   UNL     1     -46.626 -52.419  11.491  1.00  0.00    -0.267 OA
HETATM    5  C   UNL     1     -46.547 -51.488  13.646  1.00  0.00     0.081 A 
HETATM    6  C   UNL     1     -46.076 -51.562  14.895  1.00  0.00     0.081 A 
HETATM    7  C   UNL     1     -45.130 -52.620  15.305  1.00  0.00     0.262 A 
HETATM    8  O   UNL     1     -44.674 -52.631  16.444  1.00  0.00    -0.267 OA
HETATM    9  H   UNL     1     -45.165 -54.251  12.398  1.00  0.00     0.190 HD
ENDROOT
BRANCH   1  10
HETATM   10  C   UNL     1     -43.785 -54.555  14.565  1.00  0.00     0.255 C 
BRANCH  10  11
HETATM   11  C   UNL     1     -42.410 -54.060  14.118  1.00  0.00     0.238 C 
HETATM   12  N   UNL     1     -41.465 -53.981  15.127  1.00  0.00    -0.352 N 
HETATM   13  H   UNL     1     -41.684 -54.439  16.006  1.00  0.00     0.163 HD
HETATM   14  O   UNL     1     -42.192 -53.751  12.948  1.00  0.00    -0.272 OA
BRANCH  12  15
HETATM   15  C   UNL     1     -40.063 -53.579  14.918  1.00  0.00     0.022 C 
HETATM   16  C   UNL     1     -39.984 -52.135  14.397  1.00  0.00     0.037 C 
HETATM   17  C   UNL     1     -39.354 -54.540  13.949  1.00  0.00     0.037 C 
HETATM   18  C   UNL     1     -39.325 -53.636  16.270  1.00  0.00     0.037 C 
ENDBRANCH  12  15
ENDBRANCH  10  11
ENDBRANCH   1  10
TORSDOF 3
ENDMDL
MODEL 7
REMARK VINA RESULT:      -4.9      4.064      5.922
REMARK  3 active torsions:
REMARK  status: ('A' for Active; 'I' for Inactive)
REMARK    1  A    between atoms: C_2  and  N_5 
REMARK       I    between atoms: N_5  and  C_6 
REMARK    2  A    between atoms: C_6  and  C_8 
REMARK    3  A    between atoms: C_8  and  N_9 
ROOT
HETATM    1  N   UNL     1     -42.127 -47.541  10.527  1.00  0.00    -0.246 N 
HETATM    2  N   UNL     1     -42.139 -47.846   9.158  1.00  0.00    -0.261 N 
HETATM    3  C   UNL     1     -43.291 -47.885   8.422  1.00  0.00     0.260 A 
HETATM    4  O   UNL     1     -43.305 -48.128   7.220  1.00  0.00    -0.267 OA
HETATM    5  C   UNL     1     -44.541 -47.627   9.154  1.00  0.00     0.081 A 
HETATM    6  C   UNL     1     -44.539 -47.378  10.468  1.00  0.00     0.081 A 
HETATM    7  C   UNL     1     -43.281 -47.307  11.239  1.00  0.00     0.262 A 
HETATM    8  O   UNL     1     -43.307 -47.026  12.433  1.00  0.00    -0.267 OA
HETATM    9  H   UNL     1     -41.282 -48.156   8.710  1.00  0.00     0.190 HD
ENDROOT
BRANCH   1  10
HETATM   10  C   UNL     1     -40.815 -47.390  11.136  1.00  0.00     0.255 C 
BRANCH  10  11
HETATM   11  C   UNL     1     -40.194 -48.759  11.409  1.00  0.00     0.238 C 
HETATM   12  N   UNL     1     -39.181 -48.758  12.354  1.00  0.00    -0.352 N 
HETATM   13  H   UNL     1     -39.077 -47.925  12.924  1.00  0.00     0.163 HD
HETATM   14  O   UNL     1     -40.574 -49.763  10.812  1.00  0.00    -0.272 OA
BRANCH  12  15
HETATM   15  C   UNL     1     -38.476 -49.969  12.811  1.00  0.00     0.022 C 
HETATM   16  C   UNL     1     -37.497 -50.466  11.735  1.00  0.00     0.037 C 
HETATM   17  C   UNL     1     -39.473 -51.078  13.185  1.00  0.00     0.037 C 
HETATM   18  C   UNL     1     -37.658 -49.619  14.071  1.00  0.00     0.037 C 
ENDBRANCH  12  15
ENDBRANCH  10  11
ENDBRANCH   1  10
TORSDOF 3
ENDMDL
MODEL 8
REMARK VINA RESULT:      -4.7      1.870      2.447
REMARK  3 active torsions:
REMARK  status: ('A' for Active; 'I' for Inactive)
REMARK    1  A    between atoms: C_2  and  N_5 
REMARK       I    between atoms: N_5  and  C_6 
REMARK    2  A    between atoms: C_6  and  C_8 
REMARK    3  A    between atoms: C_8  and  N_9 
ROOT
HETATM    1  N   UNL     1     -40.750 -51.325  11.942  1.00  0.00    -0.246 N 
HETATM    2  N   UNL     1     -42.109 -51.626  11.776  1.00  0.00    -0.261 N 
HETATM    3  C   UNL     1     -42.762 -52.543  12.554  1.00  0.00     0.260 A 
HETATM    4  O   UNL     1     -43.956 -52.793  12.429  1.00  0.00    -0.267 OA
HETATM    5  C   UNL     1     -41.947 -53.238  13.564  1.00  0.00     0.081 A 
HETATM    6  C   UNL     1     -40.641 -52.985  13.697  1.00  0.00     0.081 A 
HETATM    7  C   UNL     1     -39.962 -51.968  12.870  1.00  0.00     0.262 A 
HETATM    8  O   UNL     1     -38.774 -51.721  13.051  1.00  0.00    -0.267 OA
HETATM    9  H   UNL     1     -42.612 -51.237  10.984  1.00  0.00     0.190 HD
ENDROOT
BRANCH   1  10
HETATM   10  C   UNL     1     -40.237 -50.223  11.143  1.00  0.00     0.255 C 
BRANCH  10  11
HETATM   11  C   UNL     1     -40.863 -48.904  11.591  1.00  0.00     0.238 C 
HETATM   12  N   UNL     1     -40.329 -47.775  10.993  1.00  0.00    -0.352 N 
HETATM   13  H   UNL     1     -39.736 -47.915  10.181  1.00  0.00     0.163 HD
HETATM   14  O   UNL     1     -41.762 -48.875  12.430  1.00  0.00    -0.272 OA
BRANCH  12  15
HETATM   15  C   UNL     1     -40.811 -46.404  11.236  1.00  0.00     0.022 C 
HETATM   16  C   UNL     1     -40.745 -46.061  12.733  1.00  0.00     0.037 C 
HETATM   17  C   UNL     1     -42.242 -46.222  10.706  1.00  0.00     0.037 C 
HETATM   18  C   UNL     1     -39.895 -45.417  10.483  1.00  0.00     0.037 C 
ENDBRANCH  12  15
ENDBRANCH  10  11
ENDBRANCH   1  10
TORSDOF 3
ENDMDL
MODEL 9
REMARK VINA RESULT:      -4.7      2.438      5.107
REMARK  3 active torsions:
REMARK  status: ('A' for Active; 'I' for Inactive)
REMARK    1  A    between atoms: C_2  and  N_5 
REMARK       I    between atoms: N_5  and  C_6 
REMARK    2  A    between atoms: C_6  and  C_8 
REMARK    3  A    between atoms: C_8  and  N_9 
ROOT
HETATM    1  N   UNL     1     -40.369 -52.884  12.956  1.00  0.00    -0.246 N 
HETATM    2  N   UNL     1     -40.669 -51.919  11.984  1.00  0.00    -0.261 N 
HETATM    3  C   UNL     1     -40.013 -50.721  11.905  1.00  0.00     0.260 A 
HETATM    4  O   UNL     1     -40.255 -49.884  11.043  1.00  0.00    -0.267 OA
HETATM    5  C   UNL     1     -38.986 -50.473  12.930  1.00  0.00     0.081 A 
HETATM    6  C   UNL     1     -38.726 -51.372  13.885  1.00  0.00     0.081 A 
HETATM    7  C   UNL     1     -39.423 -52.674  13.933  1.00  0.00     0.262 A 
HETATM    8  O   UNL     1     -39.126 -53.499  14.790  1.00  0.00    -0.267 OA
HETATM    9  H   UNL     1     -41.473 -52.055  11.378  1.00  0.00     0.190 HD
ENDROOT
BRANCH   1  10
HETATM   10  C   UNL     1     -41.046 -54.163  12.817  1.00  0.00     0.255 C 
BRANCH  10  11
HETATM   11  C   UNL     1     -42.325 -54.181  13.653  1.00  0.00     0.238 C 
HETATM   12  N   UNL     1     -43.440 -53.661  13.018  1.00  0.00    -0.352 N 
HETATM   13  H   UNL     1     -43.377 -53.510  12.016  1.00  0.00     0.163 HD
HETATM   14  O   UNL     1     -42.331 -54.618  14.802  1.00  0.00    -0.272 OA
BRANCH  12  15
HETATM   15  C   UNL     1     -44.788 -53.623  13.612  1.00  0.00     0.022 C 
HETATM   16  C   UNL     1     -44.763 -52.904  14.971  1.00  0.00     0.037 C 
HETATM   17  C   UNL     1     -45.362 -55.041  13.765  1.00  0.00     0.037 C 
HETATM   18  C   UNL     1     -45.720 -52.830  12.675  1.00  0.00     0.037 C 
ENDBRANCH  12  15
ENDBRANCH  10  11
ENDBRANCH   1  10
TORSDOF 3
ENDMDL
