MODEL 1
REMARK VINA RESULT:      -5.2      0.000      0.000
REMARK  7 active torsions:
REMARK  status: ('A' for Active; 'I' for Inactive)
REMARK    1  A    between atoms: O_2  and  C_3 
REMARK    2  A    between atoms: C_3  and  C_4 
REMARK    3  A    between atoms: C_4  and  N_5 
REMARK    4  A    between atoms: C_8  and  C_9 
REMARK    5  A    between atoms: C_9  and  N_10 
REMARK       I    between atoms: N_10  and  C_11 
REMARK    6  A    between atoms: C_11  and  C_13 
REMARK    7  A    between atoms: C_13  and  N_14 
ROOT
HETATM    1  C   UNL     1     -41.755 -50.965  12.513  1.00  0.00     0.127 C 
ENDROOT
BRANCH   1   2
HETATM    2  C   UNL     1     -42.772 -51.285  13.628  1.00  0.00     0.007 C 
HETATM    3  C   UNL     1     -42.236 -52.292  14.654  1.00  0.00     0.036 C 
HETATM    4  C   UNL     1     -42.039 -53.679  14.036  1.00  0.00     0.273 C 
HETATM    5  N   UNL     1     -43.244 -54.221  13.398  1.00  0.00     0.090 N 
HETATM    6  C   UNL     1     -43.894 -53.274  12.491  1.00  0.00     0.273 C 
HETATM    7  C   UNL     1     -44.074 -51.857  13.047  1.00  0.00     0.036 C 
BRANCH   5   8
HETATM    8  C   UNL     1     -44.121 -54.892  14.373  1.00  0.00     0.298 C 
BRANCH   8   9
HETATM    9  C   UNL     1     -45.586 -55.140  13.956  1.00  0.00     0.197 C 
BRANCH   9  10
HETATM   10  O   UNL     1     -46.485 -54.806  15.013  1.00  0.00    -0.394 OA
HETATM   11  C   UNL     1     -45.928 -53.839  15.892  1.00  0.00     0.201 C 
ENDBRANCH   9  10
ENDBRANCH   8   9
ENDBRANCH   5   8
ENDBRANCH   1   2
BRANCH   1  12
HETATM   12  N   UNL     1     -42.172 -49.863  11.666  1.00  0.00    -0.359 N 
HETATM   13  C   UNL     1     -41.275 -48.941  11.166  1.00  0.00     0.237 C 
HETATM   14  O   UNL     1     -40.075 -48.950  11.438  1.00  0.00    -0.272 OA
HETATM   15  H   UNL     1     -43.094 -49.911  11.242  1.00  0.00     0.162 HD
BRANCH  13  16
HETATM   16  C   UNL     1     -41.885 -47.886  10.275  1.00  0.00     0.250 C 
BRANCH  16  17
HETATM   17  N   UNL     1     -41.361 -46.577  10.603  1.00  0.00    -0.295 N 
HETATM   18  C   UNL     1     -42.055 -45.525  11.129  1.00  0.00     0.112 A 
HETATM   19  C   UNL     1     -41.163 -44.483  11.209  1.00  0.00     0.037 A 
HETATM   20  C   UNL     1     -39.959 -45.003  10.701  1.00  0.00     0.108 A 
HETATM   21  N   UNL     1     -40.073 -46.281  10.324  1.00  0.00    -0.310 N 
ATOM     22  HN  UNL     1     -39.358 -46.887   9.923  1.00  0.00     0.186 HD
ENDBRANCH  16  17
ENDBRANCH  13  16
ENDBRANCH   1  12
TORSDOF 7
ENDMDL
MODEL 2
REMARK VINA RESULT:      -5.1      3.000      3.897
REMARK  7 active torsions:
REMARK  status: ('A' for Active; 'I' for Inactive)
REMARK    1  A    between atoms: O_2  and  C_3 
REMARK    2  A    between atoms: C_3  and  C_4 
REMARK    3  A    between atoms: C_4  and  N_5 
REMARK    4  A    between atoms: C_8  and  C_9 
REMARK    5  A    between atoms: C_9  and  N_10 
REMARK       I    between atoms: N_10  and  C_11 
REMARK    6  A    between atoms: C_11  and  C_13 
REMARK    7  A    between atoms: C_13  and  N_14 
ROOT
HETATM    1  C   UNL     1     -41.958 -51.695  12.119  1.00  0.00     0.127 C 
ENDROOT
BRANCH   1   2
HETATM    2  C   UNL     1     -42.297 -52.378  13.460  1.00  0.00     0.007 C 
HETATM    3  C   UNL     1     -41.514 -51.795  14.643  1.00  0.00     0.036 C 
HETATM    4  C   UNL     1     -40.017 -52.097  14.535  1.00  0.00     0.273 C 
HETATM    5  N   UNL     1     -39.709 -53.526  14.398  1.00  0.00     0.090 N 
HETATM    6  C   UNL     1     -40.507 -54.193  13.368  1.00  0.00     0.273 C 
HETATM    7  C   UNL     1     -42.009 -53.887  13.406  1.00  0.00     0.036 C 
BRANCH   5   8
HETATM    8  C   UNL     1     -39.646 -54.198  15.707  1.00  0.00     0.298 C 
BRANCH   8   9
HETATM    9  C   UNL     1     -38.508 -55.215  15.928  1.00  0.00     0.197 C 
BRANCH   9  10
HETATM   10  O   UNL     1     -39.027 -56.528  16.144  1.00  0.00    -0.394 OA
HETATM   11  C   UNL     1     -40.243 -56.499  16.878  1.00  0.00     0.201 C 
ENDBRANCH   9  10
ENDBRANCH   8   9
ENDBRANCH   5   8
ENDBRANCH   1   2
BRANCH   1  12
HETATM   12  N   UNL     1     -42.422 -50.321  12.051  1.00  0.00    -0.359 N 
HETATM   13  C   UNL     1     -41.672 -49.321  11.467  1.00  0.00     0.237 C 
HETATM   14  O   UNL     1     -40.544 -49.502  11.011  1.00  0.00    -0.272 OA
HETATM   15  H   UNL     1     -43.408 -50.143  12.218  1.00  0.00     0.162 HD
BRANCH  13  16
HETATM   16  C   UNL     1     -42.331 -47.963  11.456  1.00  0.00     0.250 C 
BRANCH  16  17
HETATM   17  N   UNL     1     -43.087 -47.773  10.236  1.00  0.00    -0.295 N 
HETATM   18  C   UNL     1     -44.417 -47.481  10.135  1.00  0.00     0.112 A 
HETATM   19  C   UNL     1     -44.699 -47.457   8.790  1.00  0.00     0.037 A 
HETATM   20  C   UNL     1     -43.476 -47.753   8.163  1.00  0.00     0.108 A 
HETATM   21  N   UNL     1     -42.487 -47.952   9.040  1.00  0.00    -0.310 N 
ATOM     22  HN  UNL     1     -41.512 -48.183   8.851  1.00  0.00     0.186 HD
ENDBRANCH  16  17
ENDBRANCH  13  16
ENDBRANCH   1  12
TORSDOF 7
ENDMDL
MODEL 3
REMARK VINA RESULT:      -5.1      3.437      5.335
REMARK  7 active torsions:
REMARK  status: ('A' for Active; 'I' for Inactive)
REMARK    1  A    between atoms: O_2  and  C_3 
REMARK    2  A    between atoms: C_3  and  C_4 
REMARK    3  A    between atoms: C_4  and  N_5 
REMARK    4  A    between atoms: C_8  and  C_9 
REMARK    5  A    between atoms: C_9  and  N_10 
REMARK       I    between atoms: N_10  and  C_11 
REMARK    6  A    between atoms: C_11  and  C_13 
REMARK    7  A    between atoms: C_13  and  N_14 
ROOT
HETATM    1  C   UNL     1     -41.375 -47.398  11.188  1.00  0.00     0.127 C 
ENDROOT
BRANCH   1   2
HETATM    2  C   UNL     1     -40.088 -48.235  11.337  1.00  0.00     0.007 C 
HETATM    3  C   UNL     1     -40.333 -49.741  11.186  1.00  0.00     0.036 C 
HETATM    4  C   UNL     1     -41.173 -50.296  12.341  1.00  0.00     0.273 C 
HETATM    5  N   UNL     1     -40.613 -50.019  13.668  1.00  0.00     0.090 N 
HETATM    6  C   UNL     1     -40.232 -48.618  13.855  1.00  0.00     0.273 C 
HETATM    7  C   UNL     1     -39.427 -48.002  12.704  1.00  0.00     0.036 C 
BRANCH   5   8
HETATM    8  C   UNL     1     -39.605 -51.022  14.054  1.00  0.00     0.298 C 
BRANCH   8   9
HETATM    9  C   UNL     1     -40.097 -52.465  14.291  1.00  0.00     0.197 C 
BRANCH   9  10
HETATM   10  O   UNL     1     -39.907 -53.270  13.127  1.00  0.00    -0.394 OA
HETATM   11  C   UNL     1     -41.001 -54.150  12.911  1.00  0.00     0.201 C 
ENDBRANCH   9  10
ENDBRANCH   8   9
ENDBRANCH   5   8
ENDBRANCH   1   2
BRANCH   1  12
HETATM   12  N   UNL     1     -42.091 -47.675   9.956  1.00  0.00    -0.359 N 
HETATM   13  C   UNL     1     -42.802 -46.702   9.284  1.00  0.00     0.237 C 
HETATM   14  O   UNL     1     -42.926 -45.551   9.699  1.00  0.00    -0.272 OA
HETATM   15  H   UNL     1     -41.866 -48.532   9.458  1.00  0.00     0.162 HD
BRANCH  13  16
HETATM   16  C   UNL     1     -43.451 -47.165   8.002  1.00  0.00     0.250 C 
BRANCH  16  17
HETATM   17  N   UNL     1     -44.772 -47.696   8.262  1.00  0.00    -0.295 N 
HETATM   18  C   UNL     1     -45.528 -47.496   9.382  1.00  0.00     0.112 A 
HETATM   19  C   UNL     1     -46.670 -48.241   9.206  1.00  0.00     0.037 A 
HETATM   20  C   UNL     1     -46.504 -48.860   7.953  1.00  0.00     0.108 A 
HETATM   21  N   UNL     1     -45.345 -48.535   7.373  1.00  0.00    -0.310 N 
ATOM     22  HN  UNL     1     -44.980 -48.846   6.473  1.00  0.00     0.186 HD
ENDBRANCH  16  17
ENDBRANCH  13  16
ENDBRANCH   1  12
TORSDOF 7
ENDMDL
MODEL 4
REMARK VINA RESULT:      -5.1      2.837      7.355
REMARK  7 active torsions:
REMARK  status: ('A' for Active; 'I' for Inactive)
REMARK    1  A    between atoms: O_2  and  C_3 
REMARK    2  A    between atoms: C_3  and  C_4 
REMARK    3  A    between atoms: C_4  and  N_5 
REMARK    4  A    between atoms: C_8  and  C_9 
REMARK    5  A    between atoms: C_9  and  N_10 
REMARK       I    between atoms: N_10  and  C_11 
REMARK    6  A    between atoms: C_11  and  C_13 
REMARK    7  A    between atoms: C_13  and  N_14 
ROOT
HETATM    1  C   UNL     1     -41.769 -53.819  14.517  1.00  0.00     0.127 C 
ENDROOT
BRANCH   1   2
HETATM    2  C   UNL     1     -40.654 -53.909  13.455  1.00  0.00     0.007 C 
HETATM    3  C   UNL     1     -39.267 -53.567  14.014  1.00  0.00     0.036 C 
HETATM    4  C   UNL     1     -39.167 -52.092  14.414  1.00  0.00     0.273 C 
HETATM    5  N   UNL     1     -39.505 -51.159  13.333  1.00  0.00     0.090 N 
HETATM    6  C   UNL     1     -40.762 -51.488  12.658  1.00  0.00     0.273 C 
HETATM    7  C   UNL     1     -40.930 -52.963  12.276  1.00  0.00     0.036 C 
BRANCH   5   8
HETATM    8  C   UNL     1     -38.349 -50.895  12.459  1.00  0.00     0.298 C 
BRANCH   8   9
HETATM    9  C   UNL     1     -37.931 -49.423  12.263  1.00  0.00     0.197 C 
BRANCH   9  10
HETATM   10  O   UNL     1     -38.876 -48.536  12.863  1.00  0.00    -0.394 OA
HETATM   11  C   UNL     1     -39.615 -47.816  11.887  1.00  0.00     0.201 C 
ENDBRANCH   9  10
ENDBRANCH   8   9
ENDBRANCH   5   8
ENDBRANCH   1   2
BRANCH   1  12
HETATM   12  N   UNL     1     -43.101 -53.923  13.950  1.00  0.00    -0.359 N 
HETATM   13  C   UNL     1     -44.006 -54.877  14.369  1.00  0.00     0.237 C 
HETATM   14  O   UNL     1     -43.740 -55.736  15.208  1.00  0.00    -0.272 OA
HETATM   15  H   UNL     1     -43.452 -53.135  13.413  1.00  0.00     0.162 HD
BRANCH  13  16
HETATM   16  C   UNL     1     -45.353 -54.810  13.692  1.00  0.00     0.250 C 
BRANCH  16  17
HETATM   17  N   UNL     1     -45.861 -53.454  13.701  1.00  0.00    -0.295 N 
HETATM   18  C   UNL     1     -46.212 -52.719  14.797  1.00  0.00     0.112 A 
HETATM   19  C   UNL     1     -46.693 -51.525  14.314  1.00  0.00     0.037 A 
HETATM   20  C   UNL     1     -46.599 -51.640  12.916  1.00  0.00     0.108 A 
HETATM   21  N   UNL     1     -46.095 -52.818  12.533  1.00  0.00    -0.310 N 
ATOM     22  HN  UNL     1     -45.927 -53.155  11.586  1.00  0.00     0.186 HD
ENDBRANCH  16  17
ENDBRANCH  13  16
ENDBRANCH   1  12
TORSDOF 7
ENDMDL
MODEL 5
REMARK VINA RESULT:      -4.9      2.240      7.434
REMARK  7 active torsions:
REMARK  status: ('A' for Active; 'I' for Inactive)
REMARK    1  A    between atoms: O_2  and  C_3 
REMARK    2  A    between atoms: C_3  and  C_4 
REMARK    3  A    between atoms: C_4  and  N_5 
REMARK    4  A    between atoms: C_8  and  C_9 
REMARK    5  A    between atoms: C_9  and  N_10 
REMARK       I    between atoms: N_10  and  C_11 
REMARK    6  A    between atoms: C_11  and  C_13 
REMARK    7  A    between atoms: C_13  and  N_14 
ROOT
HETATM    1  C   UNL     1     -41.039 -52.420  12.057  1.00  0.00     0.127 C 
ENDROOT
BRANCH   1   2
HETATM    2  C   UNL     1     -40.785 -51.335  13.124  1.00  0.00     0.007 C 
HETATM    3  C   UNL     1     -41.755 -50.152  13.015  1.00  0.00     0.036 C 
HETATM    4  C   UNL     1     -41.528 -49.351  11.730  1.00  0.00     0.273 C 
HETATM    5  N   UNL     1     -40.150 -48.875  11.563  1.00  0.00     0.090 N 
HETATM    6  C   UNL     1     -39.148 -49.920  11.774  1.00  0.00     0.273 C 
HETATM    7  C   UNL     1     -39.356 -50.781  13.026  1.00  0.00     0.036 C 
BRANCH   5   8
HETATM    8  C   UNL     1     -39.923 -47.605  12.273  1.00  0.00     0.298 C 
BRANCH   8   9
HETATM    9  C   UNL     1     -40.772 -46.391  11.843  1.00  0.00     0.197 C 
BRANCH   9  10
HETATM   10  O   UNL     1     -40.599 -46.109  10.454  1.00  0.00    -0.394 OA
HETATM   11  C   UNL     1     -39.711 -45.020  10.245  1.00  0.00     0.201 C 
ENDBRANCH   9  10
ENDBRANCH   8   9
ENDBRANCH   5   8
ENDBRANCH   1   2
BRANCH   1  12
HETATM   12  N   UNL     1     -42.410 -52.896  12.048  1.00  0.00    -0.359 N 
HETATM   13  C   UNL     1     -42.865 -53.840  12.946  1.00  0.00     0.237 C 
HETATM   14  O   UNL     1     -42.141 -54.384  13.778  1.00  0.00    -0.272 OA
HETATM   15  H   UNL     1     -43.099 -52.353  11.536  1.00  0.00     0.162 HD
BRANCH  13  16
HETATM   16  C   UNL     1     -44.328 -54.186  12.811  1.00  0.00     0.250 C 
BRANCH  16  17
HETATM   17  N   UNL     1     -45.154 -53.029  13.087  1.00  0.00    -0.295 N 
HETATM   18  C   UNL     1     -45.322 -52.414  14.294  1.00  0.00     0.112 A 
HETATM   19  C   UNL     1     -46.235 -51.409  14.084  1.00  0.00     0.037 A 
HETATM   20  C   UNL     1     -46.564 -51.504  12.719  1.00  0.00     0.108 A 
HETATM   21  N   UNL     1     -45.910 -52.494  12.104  1.00  0.00    -0.310 N 
ATOM     22  HN  UNL     1     -45.968 -52.779  11.127  1.00  0.00     0.186 HD
ENDBRANCH  16  17
ENDBRANCH  13  16
ENDBRANCH   1  12
TORSDOF 7
ENDMDL
MODEL 6
REMARK VINA RESULT:      -4.9      4.727      6.242
REMARK  7 active torsions:
REMARK  status: ('A' for Active; 'I' for Inactive)
REMARK    1  A    between atoms: O_2  and  C_3 
REMARK    2  A    between atoms: C_3  and  C_4 
REMARK    3  A    between atoms: C_4  and  N_5 
REMARK    4  A    between atoms: C_8  and  C_9 
REMARK    5  A    between atoms: C_9  and  N_10 
REMARK       I    between atoms: N_10  and  C_11 
REMARK    6  A    between atoms: C_11  and  C_13 
REMARK    7  A    between atoms: C_13  and  N_14 
ROOT
HETATM    1  C   UNL     1     -41.853 -48.617  11.515  1.00  0.00     0.127 C 
ENDROOT
BRANCH   1   2
HETATM    2  C   UNL     1     -40.324 -48.779  11.377  1.00  0.00     0.007 C 
HETATM    3  C   UNL     1     -39.803 -50.080  11.999  1.00  0.00     0.036 C 
HETATM    4  C   UNL     1     -39.957 -50.079  13.523  1.00  0.00     0.273 C 
HETATM    5  N   UNL     1     -39.325 -48.930  14.182  1.00  0.00     0.090 N 
HETATM    6  C   UNL     1     -39.673 -47.648  13.569  1.00  0.00     0.273 C 
HETATM    7  C   UNL     1     -39.578 -47.611  12.038  1.00  0.00     0.036 C 
BRANCH   5   8
HETATM    8  C   UNL     1     -37.892 -49.164  14.429  1.00  0.00     0.298 C 
BRANCH   8   9
HETATM    9  C   UNL     1     -37.475 -50.571  14.906  1.00  0.00     0.197 C 
BRANCH   9  10
HETATM   10  O   UNL     1     -37.489 -50.656  16.331  1.00  0.00    -0.394 OA
HETATM   11  C   UNL     1     -36.233 -50.301  16.892  1.00  0.00     0.201 C 
ENDBRANCH   9  10
ENDBRANCH   8   9
ENDBRANCH   5   8
ENDBRANCH   1   2
BRANCH   1  12
HETATM   12  N   UNL     1     -42.509 -48.340  10.250  1.00  0.00    -0.359 N 
HETATM   13  C   UNL     1     -42.793 -47.055   9.836  1.00  0.00     0.237 C 
HETATM   14  O   UNL     1     -42.563 -46.059  10.521  1.00  0.00    -0.272 OA
HETATM   15  H   UNL     1     -42.539 -49.083   9.557  1.00  0.00     0.162 HD
BRANCH  13  16
HETATM   16  C   UNL     1     -43.444 -46.958   8.477  1.00  0.00     0.250 C 
BRANCH  16  17
HETATM   17  N   UNL     1     -44.794 -47.479   8.521  1.00  0.00    -0.295 N 
HETATM   18  C   UNL     1     -45.787 -47.107   9.382  1.00  0.00     0.112 A 
HETATM   19  C   UNL     1     -46.864 -47.910   9.088  1.00  0.00     0.037 A 
HETATM   20  C   UNL     1     -46.418 -48.737   8.041  1.00  0.00     0.108 A 
HETATM   21  N   UNL     1     -45.153 -48.482   7.691  1.00  0.00    -0.310 N 
ATOM     22  HN  UNL     1     -44.593 -48.936   6.971  1.00  0.00     0.186 HD
ENDBRANCH  16  17
ENDBRANCH  13  16
ENDBRANCH   1  12
TORSDOF 7
ENDMDL
MODEL 7
REMARK VINA RESULT:      -4.9      4.551      6.518
REMARK  7 active torsions:
REMARK  status: ('A' for Active; 'I' for Inactive)
REMARK    1  A    between atoms: O_2  and  C_3 
REMARK    2  A    between atoms: C_3  and  C_4 
REMARK    3  A    between atoms: C_4  and  N_5 
REMARK    4  A    between atoms: C_8  and  C_9 
REMARK    5  A    between atoms: C_9  and  N_10 
REMARK       I    between atoms: N_10  and  C_11 
REMARK    6  A    between atoms: C_11  and  C_13 
REMARK    7  A    between atoms: C_13  and  N_14 
ROOT
HETATM    1  C   UNL     1     -42.057 -52.648  12.436  1.00  0.00     0.127 C 
ENDROOT
BRANCH   1   2
HETATM    2  C   UNL     1     -41.355 -52.185  13.730  1.00  0.00     0.007 C 
HETATM    3  C   UNL     1     -39.877 -52.591  13.786  1.00  0.00     0.036 C 
HETATM    4  C   UNL     1     -39.711 -54.109  13.896  1.00  0.00     0.273 C 
HETATM    5  N   UNL     1     -40.429 -54.705  15.030  1.00  0.00     0.090 N 
HETATM    6  C   UNL     1     -41.823 -54.270  15.124  1.00  0.00     0.273 C 
HETATM    7  C   UNL     1     -42.047 -52.760  14.976  1.00  0.00     0.036 C 
BRANCH   5   8
HETATM    8  C   UNL     1     -39.640 -54.631  16.272  1.00  0.00     0.298 C 
BRANCH   8   9
HETATM    9  C   UNL     1     -38.789 -55.863  16.644  1.00  0.00     0.197 C 
BRANCH   9  10
HETATM   10  O   UNL     1     -39.564 -57.060  16.586  1.00  0.00    -0.394 OA
HETATM   11  C   UNL     1     -39.355 -57.879  17.728  1.00  0.00     0.201 C 
ENDBRANCH   9  10
ENDBRANCH   8   9
ENDBRANCH   5   8
ENDBRANCH   1   2
BRANCH   1  12
HETATM   12  N   UNL     1     -43.450 -52.248  12.374  1.00  0.00    -0.359 N 
HETATM   13  C   UNL     1     -44.480 -53.166  12.387  1.00  0.00     0.237 C 
HETATM   14  O   UNL     1     -44.299 -54.383  12.399  1.00  0.00    -0.272 OA
HETATM   15  H   UNL     1     -43.675 -51.276  12.566  1.00  0.00     0.162 HD
BRANCH  13  16
HETATM   16  C   UNL     1     -45.864 -52.564  12.352  1.00  0.00     0.250 C 
BRANCH  16  17
HETATM   17  N   UNL     1     -46.347 -52.319  13.695  1.00  0.00    -0.295 N 
HETATM   18  C   UNL     1     -46.179 -51.180  14.430  1.00  0.00     0.112 A 
HETATM   19  C   UNL     1     -46.750 -51.432  15.654  1.00  0.00     0.037 A 
HETATM   20  C   UNL     1     -47.229 -52.751  15.562  1.00  0.00     0.108 A 
HETATM   21  N   UNL     1     -46.983 -53.301  14.368  1.00  0.00    -0.310 N 
ATOM     22  HN  UNL     1     -47.220 -54.238  14.044  1.00  0.00     0.186 HD
ENDBRANCH  16  17
ENDBRANCH  13  16
ENDBRANCH   1  12
TORSDOF 7
ENDMDL
MODEL 8
REMARK VINA RESULT:      -4.9      1.737      2.528
REMARK  7 active torsions:
REMARK  status: ('A' for Active; 'I' for Inactive)
REMARK    1  A    between atoms: O_2  and  C_3 
REMARK    2  A    between atoms: C_3  and  C_4 
REMARK    3  A    between atoms: C_4  and  N_5 
REMARK    4  A    between atoms: C_8  and  C_9 
REMARK    5  A    between atoms: C_9  and  N_10 
REMARK       I    between atoms: N_10  and  C_11 
REMARK    6  A    between atoms: C_11  and  C_13 
REMARK    7  A    between atoms: C_13  and  N_14 
ROOT
HETATM    1  C   UNL     1     -40.599 -50.212  13.237  1.00  0.00     0.127 C 
ENDROOT
BRANCH   1   2
HETATM    2  C   UNL     1     -40.709 -51.631  12.642  1.00  0.00     0.007 C 
HETATM    3  C   UNL     1     -42.149 -52.018  12.284  1.00  0.00     0.036 C 
HETATM    4  C   UNL     1     -43.024 -52.160  13.533  1.00  0.00     0.273 C 
HETATM    5  N   UNL     1     -42.493 -53.102  14.526  1.00  0.00     0.090 N 
HETATM    6  C   UNL     1     -41.080 -52.880  14.835  1.00  0.00     0.273 C 
HETATM    7  C   UNL     1     -40.168 -52.688  13.617  1.00  0.00     0.036 C 
BRANCH   5   8
HETATM    8  C   UNL     1     -42.881 -54.490  14.221  1.00  0.00     0.298 C 
BRANCH   8   9
HETATM    9  C   UNL     1     -44.357 -54.750  13.857  1.00  0.00     0.197 C 
BRANCH   9  10
HETATM   10  O   UNL     1     -45.149 -54.946  15.029  1.00  0.00    -0.394 OA
HETATM   11  C   UNL     1     -46.422 -54.327  14.913  1.00  0.00     0.201 C 
ENDBRANCH   9  10
ENDBRANCH   8   9
ENDBRANCH   5   8
ENDBRANCH   1   2
BRANCH   1  12
HETATM   12  N   UNL     1     -40.441 -49.184  12.224  1.00  0.00    -0.359 N 
HETATM   13  C   UNL     1     -41.491 -48.387  11.816  1.00  0.00     0.237 C 
HETATM   14  O   UNL     1     -42.640 -48.518  12.235  1.00  0.00    -0.272 OA
HETATM   15  H   UNL     1     -39.498 -48.888  11.990  1.00  0.00     0.162 HD
BRANCH  13  16
HETATM   16  C   UNL     1     -41.131 -47.349  10.781  1.00  0.00     0.250 C 
BRANCH  16  17
HETATM   17  N   UNL     1     -42.248 -47.108   9.891  1.00  0.00    -0.295 N 
HETATM   18  C   UNL     1     -42.999 -45.971   9.811  1.00  0.00     0.112 A 
HETATM   19  C   UNL     1     -43.975 -46.226   8.877  1.00  0.00     0.037 A 
HETATM   20  C   UNL     1     -43.731 -47.546   8.457  1.00  0.00     0.108 A 
HETATM   21  N   UNL     1     -42.680 -48.093   9.075  1.00  0.00    -0.310 N 
ATOM     22  HN  UNL     1     -42.296 -49.030   8.959  1.00  0.00     0.186 HD
ENDBRANCH  16  17
ENDBRANCH  13  16
ENDBRANCH   1  12
TORSDOF 7
ENDMDL
MODEL 9
REMARK VINA RESULT:      -4.9      2.953      4.462
REMARK  7 active torsions:
REMARK  status: ('A' for Active; 'I' for Inactive)
REMARK    1  A    between atoms: O_2  and  C_3 
REMARK    2  A    between atoms: C_3  and  C_4 
REMARK    3  A    between atoms: C_4  and  N_5 
REMARK    4  A    between atoms: C_8  and  C_9 
REMARK    5  A    between atoms: C_9  and  N_10 
REMARK       I    between atoms: N_10  and  C_11 
REMARK    6  A    between atoms: C_11  and  C_13 
REMARK    7  A    between atoms: C_13  and  N_14 
ROOT
HETATM    1  C   UNL     1     -44.583 -53.649  12.683  1.00  0.00     0.127 C 
ENDROOT
BRANCH   1   2
HETATM    2  C   UNL     1     -44.948 -54.782  13.665  1.00  0.00     0.007 C 
HETATM    3  C   UNL     1     -46.313 -54.575  14.335  1.00  0.00     0.036 C 
HETATM    4  C   UNL     1     -46.304 -53.368  15.277  1.00  0.00     0.273 C 
HETATM    5  N   UNL     1     -45.255 -53.424  16.303  1.00  0.00     0.090 N 
HETATM    6  C   UNL     1     -43.933 -53.741  15.761  1.00  0.00     0.273 C 
HETATM    7  C   UNL     1     -43.896 -54.916  14.776  1.00  0.00     0.036 C 
BRANCH   5   8
HETATM    8  C   UNL     1     -45.682 -54.207  17.475  1.00  0.00     0.298 C 
BRANCH   8   9
HETATM    9  C   UNL     1     -46.436 -53.457  18.592  1.00  0.00     0.197 C 
BRANCH   9  10
HETATM   10  O   UNL     1     -47.028 -54.370  19.516  1.00  0.00    -0.394 OA
HETATM   11  C   UNL     1     -46.267 -55.563  19.638  1.00  0.00     0.201 C 
ENDBRANCH   9  10
ENDBRANCH   8   9
ENDBRANCH   5   8
ENDBRANCH   1   2
BRANCH   1  12
HETATM   12  N   UNL     1     -43.172 -53.626  12.345  1.00  0.00    -0.359 N 
HETATM   13  C   UNL     1     -42.395 -52.498  12.509  1.00  0.00     0.237 C 
HETATM   14  O   UNL     1     -42.843 -51.422  12.901  1.00  0.00    -0.272 OA
HETATM   15  H   UNL     1     -42.700 -54.517  12.215  1.00  0.00     0.162 HD
BRANCH  13  16
HETATM   16  C   UNL     1     -40.942 -52.672  12.139  1.00  0.00     0.250 C 
BRANCH  16  17
HETATM   17  N   UNL     1     -40.272 -51.390  12.087  1.00  0.00    -0.295 N 
HETATM   18  C   UNL     1     -39.384 -50.893  12.997  1.00  0.00     0.112 A 
HETATM   19  C   UNL     1     -39.064 -49.628  12.564  1.00  0.00     0.037 A 
HETATM   20  C   UNL     1     -39.817 -49.452  11.389  1.00  0.00     0.108 A 
HETATM   21  N   UNL     1     -40.561 -50.522  11.093  1.00  0.00    -0.310 N 
ATOM     22  HN  UNL     1     -41.195 -50.653  10.305  1.00  0.00     0.186 HD
ENDBRANCH  16  17
ENDBRANCH  13  16
ENDBRANCH   1  12
TORSDOF 7
ENDMDL
