MODEL 1
REMARK VINA RESULT:      -6.0      0.000      0.000
REMARK  4 active torsions:
REMARK  status: ('A' for Active; 'I' for Inactive)
REMARK    1  A    between atoms: S_2  and  N_5 
REMARK    2  A    between atoms: N_8  and  C_11 
REMARK    3  A    between atoms: C_14  and  N_15 
REMARK       I    between atoms: N_15  and  C_16 
REMARK       I    between atoms: C_16  and  N_18 
REMARK    4  A    between atoms: N_18  and  C_19 
ROOT
HETATM    1  C   UNL     1     -39.423 -52.410  13.738  1.00  0.00     0.103 A 
HETATM    2  C   UNL     1     -38.633 -51.316  13.398  1.00  0.00     0.051 A 
HETATM    3  C   UNL     1     -39.005 -50.443  12.376  1.00  0.00     0.035 A 
HETATM    4  C   UNL     1     -40.169 -50.664  11.658  1.00  0.00     0.051 A 
HETATM    5  C   UNL     1     -40.897 -51.785  12.023  1.00  0.00     0.119 A 
HETATM    6  N   UNL     1     -40.555 -52.640  13.030  1.00  0.00    -0.350 N 
ATOM      7  HN  UNL     1     -41.145 -53.444  13.247  1.00  0.00     0.166 HD
ENDROOT
BRANCH   1   8
HETATM    8  N   UNL     1     -39.129 -53.214  14.818  1.00  0.00    -0.365 N 
HETATM    9  C   UNL     1     -39.058 -54.673  14.654  1.00  0.00     0.140 C 
HETATM   10  C   UNL     1     -39.758 -55.381  15.840  1.00  0.00     0.127 C 
HETATM   11  N   UNL     1     -39.314 -54.889  17.194  1.00  0.00    -0.208 NA
HETATM   12  C   UNL     1     -39.408 -53.390  17.247  1.00  0.00     0.127 C 
HETATM   13  C   UNL     1     -38.613 -52.730  16.106  1.00  0.00     0.140 C 
BRANCH  11  14
HETATM   14  S   UNL     1     -37.872 -55.518  17.827  1.00  0.00     0.207 S 
HETATM   15  C   UNL     1     -38.435 -56.934  18.747  1.00  0.00     0.180 C 
HETATM   16  O   UNL     1     -37.358 -54.559  18.782  1.00  0.00    -0.212 OA
HETATM   17  O   UNL     1     -37.056 -55.979  16.727  1.00  0.00    -0.212 OA
ENDBRANCH  11  14
ENDBRANCH   1   8
BRANCH   4  18
HETATM   18  N   UNL     1     -40.618 -49.787  10.640  1.00  0.00    -0.308 N 
HETATM   19  C   UNL     1     -41.552 -48.791  10.829  1.00  0.00     0.321 C 
HETATM   20  O   UNL     1     -41.987 -48.423  11.917  1.00  0.00    -0.247 OA
HETATM   21  N   UNL     1     -41.967 -48.196   9.657  1.00  0.00    -0.338 N 
HETATM   22  H   UNL     1     -41.736 -48.616   8.770  1.00  0.00     0.164 HD
HETATM   23  H   UNL     1     -40.093 -49.765   9.777  1.00  0.00     0.170 HD
BRANCH  21  24
HETATM   24  C   UNL     1     -42.911 -47.117   9.700  1.00  0.00     0.086 A 
HETATM   25  C   UNL     1     -44.327 -47.304   9.227  1.00  0.00     0.027 A 
HETATM   26  C   UNL     1     -43.391 -46.414   8.465  1.00  0.00     0.027 A 
ENDBRANCH  21  24
ENDBRANCH   4  18
TORSDOF 4
ENDMDL
MODEL 2
REMARK VINA RESULT:      -5.8      4.015      4.807
REMARK  4 active torsions:
REMARK  status: ('A' for Active; 'I' for Inactive)
REMARK    1  A    between atoms: S_2  and  N_5 
REMARK    2  A    between atoms: N_8  and  C_11 
REMARK    3  A    between atoms: C_14  and  N_15 
REMARK       I    between atoms: N_15  and  C_16 
REMARK       I    between atoms: C_16  and  N_18 
REMARK    4  A    between atoms: N_18  and  C_19 
ROOT
HETATM    1  C   UNL     1     -38.977 -48.332  13.527  1.00  0.00     0.103 A 
HETATM    2  C   UNL     1     -39.314 -47.061  13.071  1.00  0.00     0.051 A 
HETATM    3  C   UNL     1     -40.245 -46.881  12.048  1.00  0.00     0.035 A 
HETATM    4  C   UNL     1     -40.841 -47.978  11.445  1.00  0.00     0.051 A 
HETATM    5  C   UNL     1     -40.441 -49.216  11.922  1.00  0.00     0.119 A 
HETATM    6  N   UNL     1     -39.543 -49.408  12.932  1.00  0.00    -0.350 N 
ATOM      7  HN  UNL     1     -39.302 -50.352  13.235  1.00  0.00     0.166 HD
ENDROOT
BRANCH   1   8
HETATM    8  N   UNL     1     -38.147 -48.520  14.611  1.00  0.00    -0.365 N 
HETATM    9  C   UNL     1     -37.307 -49.724  14.697  1.00  0.00     0.140 C 
HETATM   10  C   UNL     1     -37.336 -50.296  16.135  1.00  0.00     0.127 C 
HETATM   11  N   UNL     1     -37.059 -49.272  17.207  1.00  0.00    -0.208 NA
HETATM   12  C   UNL     1     -37.953 -48.080  17.015  1.00  0.00     0.127 C 
HETATM   13  C   UNL     1     -37.815 -47.487  15.601  1.00  0.00     0.140 C 
BRANCH  11  14
HETATM   14  S   UNL     1     -35.439 -48.881  17.523  1.00  0.00     0.207 S 
HETATM   15  C   UNL     1     -35.582 -47.438  18.556  1.00  0.00     0.180 C 
HETATM   16  O   UNL     1     -34.839 -48.462  16.275  1.00  0.00    -0.212 OA
HETATM   17  O   UNL     1     -34.858 -49.949  18.304  1.00  0.00    -0.212 OA
ENDBRANCH  11  14
ENDBRANCH   1   8
BRANCH   4  18
HETATM   18  N   UNL     1     -41.824 -47.854  10.433  1.00  0.00    -0.308 N 
HETATM   19  C   UNL     1     -43.176 -47.745  10.674  1.00  0.00     0.321 C 
HETATM   20  O   UNL     1     -43.690 -47.571  11.776  1.00  0.00    -0.247 OA
HETATM   21  N   UNL     1     -43.947 -47.827   9.534  1.00  0.00    -0.338 N 
HETATM   22  H   UNL     1     -43.534 -48.138   8.669  1.00  0.00     0.164 HD
HETATM   23  H   UNL     1     -41.506 -47.647   9.497  1.00  0.00     0.170 HD
BRANCH  21  24
HETATM   24  C   UNL     1     -45.372 -47.693   9.625  1.00  0.00     0.086 A 
HETATM   25  C   UNL     1     -46.270 -48.155   8.509  1.00  0.00     0.027 A 
HETATM   26  C   UNL     1     -46.143 -46.693   8.816  1.00  0.00     0.027 A 
ENDBRANCH  21  24
ENDBRANCH   4  18
TORSDOF 4
ENDMDL
MODEL 3
REMARK VINA RESULT:      -5.7      4.172      4.922
REMARK  4 active torsions:
REMARK  status: ('A' for Active; 'I' for Inactive)
REMARK    1  A    between atoms: S_2  and  N_5 
REMARK    2  A    between atoms: N_8  and  C_11 
REMARK    3  A    between atoms: C_14  and  N_15 
REMARK       I    between atoms: N_15  and  C_16 
REMARK       I    between atoms: C_16  and  N_18 
REMARK    4  A    between atoms: N_18  and  C_19 
ROOT
HETATM    1  C   UNL     1     -37.966 -48.531  14.482  1.00  0.00     0.103 A 
HETATM    2  C   UNL     1     -37.917 -49.321  13.338  1.00  0.00     0.051 A 
HETATM    3  C   UNL     1     -38.646 -48.989  12.196  1.00  0.00     0.035 A 
HETATM    4  C   UNL     1     -39.458 -47.866  12.188  1.00  0.00     0.051 A 
HETATM    5  C   UNL     1     -39.488 -47.138  13.366  1.00  0.00     0.119 A 
HETATM    6  N   UNL     1     -38.769 -47.441  14.486  1.00  0.00    -0.350 N 
ATOM      7  HN  UNL     1     -38.837 -46.853  15.318  1.00  0.00     0.166 HD
ENDROOT
BRANCH   1   8
HETATM    8  N   UNL     1     -37.165 -48.782  15.575  1.00  0.00    -0.365 N 
HETATM    9  C   UNL     1     -36.873 -47.710  16.537  1.00  0.00     0.140 C 
HETATM   10  C   UNL     1     -35.377 -47.743  16.939  1.00  0.00     0.127 C 
HETATM   11  N   UNL     1     -34.888 -49.105  17.363  1.00  0.00    -0.208 NA
HETATM   12  C   UNL     1     -35.255 -50.125  16.322  1.00  0.00     0.127 C 
HETATM   13  C   UNL     1     -36.767 -50.121  16.031  1.00  0.00     0.140 C 
BRANCH  11  14
HETATM   14  S   UNL     1     -35.202 -49.594  18.956  1.00  0.00     0.207 S 
HETATM   15  C   UNL     1     -35.182 -48.053  19.848  1.00  0.00     0.180 C 
HETATM   16  O   UNL     1     -34.067 -50.370  19.408  1.00  0.00    -0.212 OA
HETATM   17  O   UNL     1     -36.540 -50.137  19.009  1.00  0.00    -0.212 OA
ENDBRANCH  11  14
ENDBRANCH   1   8
BRANCH   4  18
HETATM   18  N   UNL     1     -40.186 -47.457  11.043  1.00  0.00    -0.308 N 
HETATM   19  C   UNL     1     -41.487 -47.825  10.779  1.00  0.00     0.321 C 
HETATM   20  O   UNL     1     -42.235 -48.403  11.562  1.00  0.00    -0.247 OA
HETATM   21  N   UNL     1     -41.917 -47.462   9.520  1.00  0.00    -0.338 N 
HETATM   22  H   UNL     1     -41.250 -47.146   8.833  1.00  0.00     0.164 HD
HETATM   23  H   UNL     1     -39.798 -46.708  10.487  1.00  0.00     0.170 HD
BRANCH  21  24
HETATM   24  C   UNL     1     -43.263 -47.747   9.116  1.00  0.00     0.086 A 
HETATM   25  C   UNL     1     -43.653 -47.759   7.662  1.00  0.00     0.027 A 
HETATM   26  C   UNL     1     -44.184 -46.694   8.574  1.00  0.00     0.027 A 
ENDBRANCH  21  24
ENDBRANCH   4  18
TORSDOF 4
ENDMDL
MODEL 4
REMARK VINA RESULT:      -5.6      4.662      6.401
REMARK  4 active torsions:
REMARK  status: ('A' for Active; 'I' for Inactive)
REMARK    1  A    between atoms: S_2  and  N_5 
REMARK    2  A    between atoms: N_8  and  C_11 
REMARK    3  A    between atoms: C_14  and  N_15 
REMARK       I    between atoms: N_15  and  C_16 
REMARK       I    between atoms: C_16  and  N_18 
REMARK    4  A    between atoms: N_18  and  C_19 
ROOT
HETATM    1  C   UNL     1     -39.777 -47.080  11.948  1.00  0.00     0.103 A 
HETATM    2  C   UNL     1     -39.499 -46.074  12.868  1.00  0.00     0.051 A 
HETATM    3  C   UNL     1     -39.673 -44.728  12.544  1.00  0.00     0.035 A 
HETATM    4  C   UNL     1     -40.108 -44.364  11.280  1.00  0.00     0.051 A 
HETATM    5  C   UNL     1     -40.338 -45.409  10.400  1.00  0.00     0.119 A 
HETATM    6  N   UNL     1     -40.188 -46.731  10.705  1.00  0.00    -0.350 N 
ATOM      7  HN  UNL     1     -40.383 -47.447  10.005  1.00  0.00     0.166 HD
ENDROOT
BRANCH   1   8
HETATM    8  N   UNL     1     -39.720 -48.414  12.288  1.00  0.00    -0.365 N 
HETATM    9  C   UNL     1     -38.448 -49.013  12.718  1.00  0.00     0.140 C 
HETATM   10  C   UNL     1     -38.262 -50.404  12.063  1.00  0.00     0.127 C 
HETATM   11  N   UNL     1     -39.455 -51.315  12.211  1.00  0.00    -0.208 NA
HETATM   12  C   UNL     1     -40.698 -50.600  11.764  1.00  0.00     0.127 C 
HETATM   13  C   UNL     1     -40.892 -49.271  12.516  1.00  0.00     0.140 C 
BRANCH  11  14
HETATM   14  S   UNL     1     -39.625 -52.158  13.672  1.00  0.00     0.207 S 
HETATM   15  C   UNL     1     -41.299 -52.757  13.583  1.00  0.00     0.180 C 
HETATM   16  O   UNL     1     -39.569 -51.190  14.746  1.00  0.00    -0.212 OA
HETATM   17  O   UNL     1     -38.730 -53.292  13.650  1.00  0.00    -0.212 OA
ENDBRANCH  11  14
ENDBRANCH   1   8
BRANCH   4  18
HETATM   18  N   UNL     1     -40.344 -43.016  10.911  1.00  0.00    -0.308 N 
HETATM   19  C   UNL     1     -41.399 -42.259  11.371  1.00  0.00     0.321 C 
HETATM   20  O   UNL     1     -42.165 -42.582  12.275  1.00  0.00    -0.247 OA
HETATM   21  N   UNL     1     -41.526 -41.046  10.729  1.00  0.00    -0.338 N 
HETATM   22  H   UNL     1     -41.006 -40.867   9.884  1.00  0.00     0.164 HD
HETATM   23  H   UNL     1     -39.600 -42.527  10.434  1.00  0.00     0.170 HD
BRANCH  21  24
HETATM   24  C   UNL     1     -42.559 -40.133  11.127  1.00  0.00     0.086 A 
HETATM   25  C   UNL     1     -42.562 -38.706  10.648  1.00  0.00     0.027 A 
HETATM   26  C   UNL     1     -42.318 -39.014  12.096  1.00  0.00     0.027 A 
ENDBRANCH  21  24
ENDBRANCH   4  18
TORSDOF 4
ENDMDL
MODEL 5
REMARK VINA RESULT:      -5.5      4.748     10.336
REMARK  4 active torsions:
REMARK  status: ('A' for Active; 'I' for Inactive)
REMARK    1  A    between atoms: S_2  and  N_5 
REMARK    2  A    between atoms: N_8  and  C_11 
REMARK    3  A    between atoms: C_14  and  N_15 
REMARK       I    between atoms: N_15  and  C_16 
REMARK       I    between atoms: C_16  and  N_18 
REMARK    4  A    between atoms: N_18  and  C_19 
ROOT
HETATM    1  C   UNL     1     -42.184 -54.907  15.326  1.00  0.00     0.103 A 
HETATM    2  C   UNL     1     -42.485 -55.821  16.330  1.00  0.00     0.051 A 
HETATM    3  C   UNL     1     -41.481 -56.412  17.098  1.00  0.00     0.035 A 
HETATM    4  C   UNL     1     -40.150 -56.110  16.857  1.00  0.00     0.051 A 
HETATM    5  C   UNL     1     -39.913 -55.217  15.826  1.00  0.00     0.119 A 
HETATM    6  N   UNL     1     -40.884 -54.620  15.075  1.00  0.00    -0.350 N 
ATOM      7  HN  UNL     1     -40.634 -53.965  14.333  1.00  0.00     0.166 HD
ENDROOT
BRANCH   1   8
HETATM    8  N   UNL     1     -43.168 -54.231  14.637  1.00  0.00    -0.365 N 
HETATM    9  C   UNL     1     -44.585 -54.533  14.888  1.00  0.00     0.140 C 
HETATM   10  C   UNL     1     -45.364 -54.597  13.551  1.00  0.00     0.127 C 
HETATM   11  N   UNL     1     -45.135 -53.410  12.651  1.00  0.00    -0.208 NA
HETATM   12  C   UNL     1     -43.660 -53.179  12.478  1.00  0.00     0.127 C 
HETATM   13  C   UNL     1     -42.946 -53.021  13.833  1.00  0.00     0.140 C 
BRANCH  11  14
HETATM   14  S   UNL     1     -46.026 -52.001  12.964  1.00  0.00     0.207 S 
HETATM   15  C   UNL     1     -47.037 -51.848  11.506  1.00  0.00     0.180 C 
HETATM   16  O   UNL     1     -45.100 -50.888  12.966  1.00  0.00    -0.212 OA
HETATM   17  O   UNL     1     -46.888 -52.250  14.096  1.00  0.00    -0.212 OA
ENDBRANCH  11  14
ENDBRANCH   1   8
BRANCH   4  18
HETATM   18  N   UNL     1     -39.092 -56.645  17.634  1.00  0.00    -0.308 N 
HETATM   19  C   UNL     1     -38.913 -57.989  17.879  1.00  0.00     0.321 C 
HETATM   20  O   UNL     1     -39.527 -58.900  17.330  1.00  0.00    -0.247 OA
HETATM   21  N   UNL     1     -37.932 -58.252  18.811  1.00  0.00    -0.338 N 
HETATM   22  H   UNL     1     -37.559 -57.504  19.374  1.00  0.00     0.164 HD
HETATM   23  H   UNL     1     -38.326 -56.030  17.865  1.00  0.00     0.170 HD
BRANCH  21  24
HETATM   24  C   UNL     1     -37.607 -59.610  19.141  1.00  0.00     0.086 A 
HETATM   25  C   UNL     1     -37.004 -59.963  20.475  1.00  0.00     0.027 A 
HETATM   26  C   UNL     1     -36.194 -60.106  19.220  1.00  0.00     0.027 A 
ENDBRANCH  21  24
ENDBRANCH   4  18
TORSDOF 4
ENDMDL
MODEL 6
REMARK VINA RESULT:      -5.4     16.962     18.873
REMARK  4 active torsions:
REMARK  status: ('A' for Active; 'I' for Inactive)
REMARK    1  A    between atoms: S_2  and  N_5 
REMARK    2  A    between atoms: N_8  and  C_11 
REMARK    3  A    between atoms: C_14  and  N_15 
REMARK       I    between atoms: N_15  and  C_16 
REMARK       I    between atoms: C_16  and  N_18 
REMARK    4  A    between atoms: N_18  and  C_19 
ROOT
HETATM    1  C   UNL     1     -49.559 -49.913  -0.158  1.00  0.00     0.103 A 
HETATM    2  C   UNL     1     -50.437 -50.972   0.050  1.00  0.00     0.051 A 
HETATM    3  C   UNL     1     -50.109 -52.272  -0.336  1.00  0.00     0.035 A 
HETATM    4  C   UNL     1     -48.899 -52.531  -0.959  1.00  0.00     0.051 A 
HETATM    5  C   UNL     1     -48.082 -51.432  -1.166  1.00  0.00     0.119 A 
HETATM    6  N   UNL     1     -48.382 -50.156  -0.781  1.00  0.00    -0.350 N 
ATOM      7  HN  UNL     1     -47.726 -49.396  -0.961  1.00  0.00     0.166 HD
ENDROOT
BRANCH   1   8
HETATM    8  N   UNL     1     -49.819 -48.646   0.319  1.00  0.00    -0.365 N 
HETATM    9  C   UNL     1     -50.375 -48.465   1.668  1.00  0.00     0.140 C 
HETATM   10  C   UNL     1     -51.489 -47.389   1.649  1.00  0.00     0.127 C 
HETATM   11  N   UNL     1     -51.086 -46.105   0.968  1.00  0.00    -0.208 NA
HETATM   12  C   UNL     1     -50.515 -46.405  -0.388  1.00  0.00     0.127 C 
HETATM   13  C   UNL     1     -49.346 -47.403  -0.306  1.00  0.00     0.140 C 
BRANCH  11  14
HETATM   14  S   UNL     1     -50.185 -44.985   1.869  1.00  0.00     0.207 S 
HETATM   15  C   UNL     1     -51.437 -44.165   2.835  1.00  0.00     0.180 C 
HETATM   16  O   UNL     1     -49.647 -44.011   0.944  1.00  0.00    -0.212 OA
HETATM   17  O   UNL     1     -49.318 -45.715   2.765  1.00  0.00    -0.212 OA
ENDBRANCH  11  14
ENDBRANCH   1   8
BRANCH   4  18
HETATM   18  N   UNL     1     -48.496 -53.837  -1.333  1.00  0.00    -0.308 N 
HETATM   19  C   UNL     1     -48.964 -54.506  -2.442  1.00  0.00     0.321 C 
HETATM   20  O   UNL     1     -49.648 -54.012  -3.334  1.00  0.00    -0.247 OA
HETATM   21  N   UNL     1     -48.573 -55.827  -2.493  1.00  0.00    -0.338 N 
HETATM   22  H   UNL     1     -48.162 -56.262  -1.682  1.00  0.00     0.164 HD
HETATM   23  H   UNL     1     -47.686 -54.225  -0.869  1.00  0.00     0.170 HD
BRANCH  21  24
HETATM   24  C   UNL     1     -48.955 -56.641  -3.611  1.00  0.00     0.086 A 
HETATM   25  C   UNL     1     -48.315 -57.983  -3.850  1.00  0.00     0.027 A 
HETATM   26  C   UNL     1     -48.065 -56.849  -4.800  1.00  0.00     0.027 A 
ENDBRANCH  21  24
ENDBRANCH   4  18
TORSDOF 4
ENDMDL
MODEL 7
REMARK VINA RESULT:      -5.2      4.517      9.345
REMARK  4 active torsions:
REMARK  status: ('A' for Active; 'I' for Inactive)
REMARK    1  A    between atoms: S_2  and  N_5 
REMARK    2  A    between atoms: N_8  and  C_11 
REMARK    3  A    between atoms: C_14  and  N_15 
REMARK       I    between atoms: N_15  and  C_16 
REMARK       I    between atoms: C_16  and  N_18 
REMARK    4  A    between atoms: N_18  and  C_19 
ROOT
HETATM    1  C   UNL     1     -41.354 -54.255  14.780  1.00  0.00     0.103 A 
HETATM    2  C   UNL     1     -40.158 -53.951  14.140  1.00  0.00     0.051 A 
HETATM    3  C   UNL     1     -38.944 -54.474  14.586  1.00  0.00     0.035 A 
HETATM    4  C   UNL     1     -38.905 -55.297  15.700  1.00  0.00     0.051 A 
HETATM    5  C   UNL     1     -40.124 -55.537  16.311  1.00  0.00     0.119 A 
HETATM    6  N   UNL     1     -41.322 -55.046  15.879  1.00  0.00    -0.350 N 
ATOM      7  HN  UNL     1     -42.183 -55.271  16.378  1.00  0.00     0.166 HD
ENDROOT
BRANCH   1   8
HETATM    8  N   UNL     1     -42.572 -53.839  14.285  1.00  0.00    -0.365 N 
HETATM    9  C   UNL     1     -43.819 -54.283  14.925  1.00  0.00     0.140 C 
HETATM   10  C   UNL     1     -44.864 -54.670  13.850  1.00  0.00     0.127 C 
HETATM   11  N   UNL     1     -45.056 -53.625  12.779  1.00  0.00    -0.208 NA
HETATM   12  C   UNL     1     -43.724 -53.230  12.209  1.00  0.00     0.127 C 
HETATM   13  C   UNL     1     -42.752 -52.758  13.306  1.00  0.00     0.140 C 
BRANCH  11  14
HETATM   14  S   UNL     1     -46.077 -52.317  13.129  1.00  0.00     0.207 S 
HETATM   15  C   UNL     1     -47.082 -52.951  14.456  1.00  0.00     0.180 C 
HETATM   16  O   UNL     1     -46.944 -52.121  11.987  1.00  0.00    -0.212 OA
HETATM   17  O   UNL     1     -45.270 -51.234  13.642  1.00  0.00    -0.212 OA
ENDBRANCH  11  14
ENDBRANCH   1   8
BRANCH   4  18
HETATM   18  N   UNL     1     -37.708 -55.891  16.170  1.00  0.00    -0.308 N 
HETATM   19  C   UNL     1     -37.012 -55.461  17.279  1.00  0.00     0.321 C 
HETATM   20  O   UNL     1     -37.414 -54.634  18.093  1.00  0.00    -0.247 OA
HETATM   21  N   UNL     1     -35.785 -56.070  17.429  1.00  0.00    -0.338 N 
HETATM   22  H   UNL     1     -35.397 -56.612  16.673  1.00  0.00     0.164 HD
HETATM   23  H   UNL     1     -37.450 -56.789  15.787  1.00  0.00     0.170 HD
BRANCH  21  24
HETATM   24  C   UNL     1     -34.963 -55.749  18.560  1.00  0.00     0.086 A 
HETATM   25  C   UNL     1     -33.462 -55.727  18.449  1.00  0.00     0.027 A 
HETATM   26  C   UNL     1     -34.140 -56.778  19.278  1.00  0.00     0.027 A 
ENDBRANCH  21  24
ENDBRANCH   4  18
TORSDOF 4
ENDMDL
MODEL 8
REMARK VINA RESULT:      -5.2      3.480      9.326
REMARK  4 active torsions:
REMARK  status: ('A' for Active; 'I' for Inactive)
REMARK    1  A    between atoms: S_2  and  N_5 
REMARK    2  A    between atoms: N_8  and  C_11 
REMARK    3  A    between atoms: C_14  and  N_15 
REMARK       I    between atoms: N_15  and  C_16 
REMARK       I    between atoms: C_16  and  N_18 
REMARK    4  A    between atoms: N_18  and  C_19 
ROOT
HETATM    1  C   UNL     1     -40.375 -50.346  12.518  1.00  0.00     0.103 A 
HETATM    2  C   UNL     1     -41.214 -51.424  12.255  1.00  0.00     0.051 A 
HETATM    3  C   UNL     1     -40.948 -52.692  12.773  1.00  0.00     0.035 A 
HETATM    4  C   UNL     1     -39.820 -52.907  13.548  1.00  0.00     0.051 A 
HETATM    5  C   UNL     1     -39.009 -51.802  13.748  1.00  0.00     0.119 A 
HETATM    6  N   UNL     1     -39.262 -50.552  13.262  1.00  0.00    -0.350 N 
ATOM      7  HN  UNL     1     -38.620 -49.783  13.456  1.00  0.00     0.166 HD
ENDROOT
BRANCH   1   8
HETATM    8  N   UNL     1     -40.684 -49.066  12.110  1.00  0.00    -0.365 N 
HETATM    9  C   UNL     1     -39.951 -47.918  12.662  1.00  0.00     0.140 C 
HETATM   10  C   UNL     1     -40.930 -46.765  12.992  1.00  0.00     0.127 C 
HETATM   11  N   UNL     1     -41.866 -46.415  11.862  1.00  0.00    -0.208 NA
HETATM   12  C   UNL     1     -42.545 -47.657  11.361  1.00  0.00     0.127 C 
HETATM   13  C   UNL     1     -41.527 -48.737  10.952  1.00  0.00     0.140 C 
BRANCH  11  14
HETATM   14  S   UNL     1     -41.275 -45.402  10.636  1.00  0.00     0.207 S 
HETATM   15  C   UNL     1     -41.424 -43.784  11.362  1.00  0.00     0.180 C 
HETATM   16  O   UNL     1     -42.206 -45.467   9.529  1.00  0.00    -0.212 OA
HETATM   17  O   UNL     1     -39.873 -45.692  10.443  1.00  0.00    -0.212 OA
ENDBRANCH  11  14
ENDBRANCH   1   8
BRANCH   4  18
HETATM   18  N   UNL     1     -39.524 -54.162  14.135  1.00  0.00    -0.308 N 
HETATM   19  C   UNL     1     -39.818 -54.497  15.439  1.00  0.00     0.321 C 
HETATM   20  O   UNL     1     -40.514 -53.835  16.203  1.00  0.00    -0.247 OA
HETATM   21  N   UNL     1     -39.267 -55.697  15.837  1.00  0.00    -0.338 N 
HETATM   22  H   UNL     1     -38.565 -56.142  15.266  1.00  0.00     0.164 HD
HETATM   23  H   UNL     1     -39.253 -54.914  13.518  1.00  0.00     0.170 HD
BRANCH  21  24
HETATM   24  C   UNL     1     -39.518 -56.194  17.158  1.00  0.00     0.086 A 
HETATM   25  C   UNL     1     -38.557 -57.139  17.829  1.00  0.00     0.027 A 
HETATM   26  C   UNL     1     -39.921 -57.614  17.424  1.00  0.00     0.027 A 
ENDBRANCH  21  24
ENDBRANCH   4  18
TORSDOF 4
ENDMDL
MODEL 9
REMARK VINA RESULT:      -5.1      5.744     10.576
REMARK  4 active torsions:
REMARK  status: ('A' for Active; 'I' for Inactive)
REMARK    1  A    between atoms: S_2  and  N_5 
REMARK    2  A    between atoms: N_8  and  C_11 
REMARK    3  A    between atoms: C_14  and  N_15 
REMARK       I    between atoms: N_15  and  C_16 
REMARK       I    between atoms: C_16  and  N_18 
REMARK    4  A    between atoms: N_18  and  C_19 
ROOT
HETATM    1  C   UNL     1     -41.859 -45.439  11.649  1.00  0.00     0.103 A 
HETATM    2  C   UNL     1     -42.830 -46.155  12.340  1.00  0.00     0.051 A 
HETATM    3  C   UNL     1     -42.907 -47.545  12.251  1.00  0.00     0.035 A 
HETATM    4  C   UNL     1     -42.020 -48.244  11.447  1.00  0.00     0.051 A 
HETATM    5  C   UNL     1     -41.097 -47.472  10.761  1.00  0.00     0.119 A 
HETATM    6  N   UNL     1     -40.999 -46.113  10.848  1.00  0.00    -0.350 N 
ATOM      7  HN  UNL     1     -40.287 -45.612  10.316  1.00  0.00     0.166 HD
ENDROOT
BRANCH   1   8
HETATM    8  N   UNL     1     -41.699 -44.080  11.815  1.00  0.00    -0.365 N 
HETATM    9  C   UNL     1     -40.497 -43.410  11.297  1.00  0.00     0.140 C 
HETATM   10  C   UNL     1     -39.965 -42.389  12.333  1.00  0.00     0.127 C 
HETATM   11  N   UNL     1     -41.018 -41.449  12.863  1.00  0.00    -0.208 NA
HETATM   12  C   UNL     1     -42.205 -42.233  13.345  1.00  0.00     0.127 C 
HETATM   13  C   UNL     1     -42.759 -43.159  12.247  1.00  0.00     0.140 C 
BRANCH  11  14
HETATM   14  S   UNL     1     -41.416 -40.099  11.916  1.00  0.00     0.207 S 
HETATM   15  C   UNL     1     -42.729 -39.341  12.850  1.00  0.00     0.180 C 
HETATM   16  O   UNL     1     -41.990 -40.585  10.680  1.00  0.00    -0.212 OA
HETATM   17  O   UNL     1     -40.283 -39.201  11.906  1.00  0.00    -0.212 OA
ENDBRANCH  11  14
ENDBRANCH   1   8
BRANCH   4  18
HETATM   18  N   UNL     1     -42.023 -49.657  11.353  1.00  0.00    -0.308 N 
HETATM   19  C   UNL     1     -41.266 -50.489  12.149  1.00  0.00     0.321 C 
HETATM   20  O   UNL     1     -40.630 -50.139  13.139  1.00  0.00    -0.247 OA
HETATM   21  N   UNL     1     -41.291 -51.807  11.747  1.00  0.00    -0.338 N 
HETATM   22  H   UNL     1     -41.671 -52.052  10.846  1.00  0.00     0.164 HD
HETATM   23  H   UNL     1     -42.755 -50.087  10.805  1.00  0.00     0.170 HD
BRANCH  21  24
HETATM   24  C   UNL     1     -40.578 -52.797  12.502  1.00  0.00     0.086 A 
HETATM   25  C   UNL     1     -41.119 -54.193  12.660  1.00  0.00     0.027 A 
HETATM   26  C   UNL     1     -41.042 -53.277  13.845  1.00  0.00     0.027 A 
ENDBRANCH  21  24
ENDBRANCH   4  18
TORSDOF 4
ENDMDL
