MODEL 1
REMARK VINA RESULT:      -5.8      0.000      0.000
REMARK  7 active torsions:
REMARK  status: ('A' for Active; 'I' for Inactive)
REMARK    1  A    between atoms: C_2  and  C_4 
REMARK    2  A    between atoms: C_4  and  C_5 
REMARK    3  A    between atoms: C_5  and  N_6 
REMARK       I    between atoms: N_6  and  C_7 
REMARK    4  A    between atoms: C_7  and  C_9 
REMARK    5  A    between atoms: C_9  and  C_10 
REMARK    6  A    between atoms: C_13  and  N_14 
REMARK       I    between atoms: N_14  and  C_15 
REMARK    7  A    between atoms: C_15  and  C_17 
ROOT
HETATM    1  C   UNL     1     -40.714 -50.845  11.887  1.00  0.00     0.026 A 
HETATM    2  C   UNL     1     -39.920 -51.596  12.734  1.00  0.00     0.078 A 
HETATM    3  S   UNL     1     -40.854 -52.839  13.460  1.00  0.00    -0.064 SA
HETATM    4  C   UNL     1     -42.205 -52.327  12.551  1.00  0.00     0.151 A 
HETATM    5  N   UNL     1     -42.032 -51.273  11.795  1.00  0.00    -0.339 N 
ATOM      6  HN  UNL     1     -42.754 -50.833  11.225  1.00  0.00     0.168 HD
ENDROOT
BRANCH   1   7
HETATM    7  C   UNL     1     -40.296 -49.657  11.090  1.00  0.00     0.160 C 
BRANCH   7   8
HETATM    8  C   UNL     1     -41.200 -48.468  11.351  1.00  0.00     0.223 C 
HETATM    9  N   UNL     1     -41.274 -47.560  10.317  1.00  0.00    -0.361 N 
HETATM   10  H   UNL     1     -40.757 -47.758   9.463  1.00  0.00     0.162 HD
HETATM   11  O   UNL     1     -41.798 -48.329  12.417  1.00  0.00    -0.273 OA
BRANCH   9  12
HETATM   12  C   UNL     1     -42.081 -46.362  10.390  1.00  0.00     0.123 C 
BRANCH  12  13
HETATM   13  C   UNL     1     -43.073 -46.247   9.229  1.00  0.00     0.023 C 
BRANCH  13  14
HETATM   14  C   UNL     1     -43.851 -47.541   8.916  1.00  0.00    -0.021 C 
HETATM   15  C   UNL     1     -45.362 -47.365   9.077  1.00  0.00     0.009 C 
HETATM   16  C   UNL     1     -43.539 -48.008   7.492  1.00  0.00     0.009 C 
ENDBRANCH  13  14
ENDBRANCH  12  13
ENDBRANCH   9  12
ENDBRANCH   7   8
ENDBRANCH   1   7
BRANCH   4  17
HETATM   17  N   UNL     1     -43.317 -53.098  12.730  1.00  0.00    -0.307 N 
HETATM   18  C   UNL     1     -44.519 -52.573  13.128  1.00  0.00     0.227 C 
HETATM   19  O   UNL     1     -44.789 -51.402  13.352  1.00  0.00    -0.273 OA
HETATM   20  H   UNL     1     -43.240 -54.069  12.478  1.00  0.00     0.171 HD
BRANCH  18  21
HETATM   21  C   UNL     1     -45.586 -53.618  13.236  1.00  0.00     0.078 A 
HETATM   22  C   UNL     1     -46.056 -54.071  14.600  1.00  0.00     0.015 A 
HETATM   23  C   UNL     1     -45.257 -55.005  13.739  1.00  0.00     0.015 A 
ENDBRANCH  18  21
ENDBRANCH   4  17
TORSDOF 7
ENDMDL
MODEL 2
REMARK VINA RESULT:      -5.7      1.879      6.481
REMARK  7 active torsions:
REMARK  status: ('A' for Active; 'I' for Inactive)
REMARK    1  A    between atoms: C_2  and  C_4 
REMARK    2  A    between atoms: C_4  and  C_5 
REMARK    3  A    between atoms: C_5  and  N_6 
REMARK       I    between atoms: N_6  and  C_7 
REMARK    4  A    between atoms: C_7  and  C_9 
REMARK    5  A    between atoms: C_9  and  C_10 
REMARK    6  A    between atoms: C_13  and  N_14 
REMARK       I    between atoms: N_14  and  C_15 
REMARK    7  A    between atoms: C_15  and  C_17 
ROOT
HETATM    1  C   UNL     1     -41.624 -52.868  12.874  1.00  0.00     0.026 A 
HETATM    2  C   UNL     1     -40.353 -52.461  13.236  1.00  0.00     0.078 A 
HETATM    3  S   UNL     1     -40.048 -50.888  12.626  1.00  0.00    -0.064 SA
HETATM    4  C   UNL     1     -41.632 -50.847  11.994  1.00  0.00     0.151 A 
HETATM    5  N   UNL     1     -42.349 -51.930  12.152  1.00  0.00    -0.339 N 
ATOM      6  HN  UNL     1     -43.297 -52.064  11.799  1.00  0.00     0.168 HD
ENDROOT
BRANCH   1   7
HETATM    7  C   UNL     1     -42.264 -54.179  13.179  1.00  0.00     0.160 C 
BRANCH   7   8
HETATM    8  C   UNL     1     -43.776 -54.067  13.196  1.00  0.00     0.223 C 
HETATM    9  N   UNL     1     -44.360 -54.312  14.420  1.00  0.00    -0.361 N 
HETATM   10  H   UNL     1     -43.754 -54.515  15.212  1.00  0.00     0.162 HD
HETATM   11  O   UNL     1     -44.418 -53.799  12.182  1.00  0.00    -0.273 OA
BRANCH   9  12
HETATM   12  C   UNL     1     -45.791 -54.258  14.624  1.00  0.00     0.123 C 
BRANCH  12  13
HETATM   13  C   UNL     1     -46.189 -53.315  15.763  1.00  0.00     0.023 C 
BRANCH  13  14
HETATM   14  C   UNL     1     -47.150 -52.181  15.354  1.00  0.00    -0.021 C 
HETATM   15  C   UNL     1     -47.422 -51.206  16.502  1.00  0.00     0.009 C 
HETATM   16  C   UNL     1     -46.578 -51.416  14.158  1.00  0.00     0.009 C 
ENDBRANCH  13  14
ENDBRANCH  12  13
ENDBRANCH   9  12
ENDBRANCH   7   8
ENDBRANCH   1   7
BRANCH   4  17
HETATM   17  N   UNL     1     -41.959 -49.665  11.393  1.00  0.00    -0.307 N 
HETATM   18  C   UNL     1     -42.807 -48.757  11.970  1.00  0.00     0.227 C 
HETATM   19  O   UNL     1     -43.360 -48.832  13.058  1.00  0.00    -0.273 OA
HETATM   20  H   UNL     1     -41.482 -49.448  10.533  1.00  0.00     0.171 HD
BRANCH  18  21
HETATM   21  C   UNL     1     -42.991 -47.536  11.122  1.00  0.00     0.078 A 
HETATM   22  C   UNL     1     -44.184 -47.439  10.197  1.00  0.00     0.015 A 
HETATM   23  C   UNL     1     -42.807 -47.605   9.623  1.00  0.00     0.015 A 
ENDBRANCH  18  21
ENDBRANCH   4  17
TORSDOF 7
ENDMDL
MODEL 3
REMARK VINA RESULT:      -5.7      1.898      6.166
REMARK  7 active torsions:
REMARK  status: ('A' for Active; 'I' for Inactive)
REMARK    1  A    between atoms: C_2  and  C_4 
REMARK    2  A    between atoms: C_4  and  C_5 
REMARK    3  A    between atoms: C_5  and  N_6 
REMARK       I    between atoms: N_6  and  C_7 
REMARK    4  A    between atoms: C_7  and  C_9 
REMARK    5  A    between atoms: C_9  and  C_10 
REMARK    6  A    between atoms: C_13  and  N_14 
REMARK       I    between atoms: N_14  and  C_15 
REMARK    7  A    between atoms: C_15  and  C_17 
ROOT
HETATM    1  C   UNL     1     -40.521 -51.155  12.403  1.00  0.00     0.026 A 
HETATM    2  C   UNL     1     -39.448 -50.331  12.690  1.00  0.00     0.078 A 
HETATM    3  S   UNL     1     -39.520 -48.920  11.718  1.00  0.00    -0.064 SA
HETATM    4  C   UNL     1     -40.987 -49.479  11.049  1.00  0.00     0.151 A 
HETATM    5  N   UNL     1     -41.398 -50.655  11.450  1.00  0.00    -0.339 N 
ATOM      6  HN  UNL     1     -42.235 -51.131  11.114  1.00  0.00     0.168 HD
ENDROOT
BRANCH   1   7
HETATM    7  C   UNL     1     -40.811 -52.488  13.006  1.00  0.00     0.160 C 
BRANCH   7   8
HETATM    8  C   UNL     1     -42.300 -52.692  13.207  1.00  0.00     0.223 C 
HETATM    9  N   UNL     1     -42.750 -52.436  14.483  1.00  0.00    -0.361 N 
HETATM   10  H   UNL     1     -42.081 -52.107  15.176  1.00  0.00     0.162 HD
HETATM   11  O   UNL     1     -43.031 -53.079  12.297  1.00  0.00    -0.273 OA
BRANCH   9  12
HETATM   12  C   UNL     1     -44.139 -52.584  14.863  1.00  0.00     0.123 C 
BRANCH  12  13
HETATM   13  C   UNL     1     -44.866 -51.241  14.974  1.00  0.00     0.023 C 
BRANCH  13  14
HETATM   14  C   UNL     1     -46.336 -51.264  14.509  1.00  0.00    -0.021 C 
HETATM   15  C   UNL     1     -46.480 -51.733  13.059  1.00  0.00     0.009 C 
HETATM   16  C   UNL     1     -47.162 -52.171  15.425  1.00  0.00     0.009 C 
ENDBRANCH  13  14
ENDBRANCH  12  13
ENDBRANCH   9  12
ENDBRANCH   7   8
ENDBRANCH   1   7
BRANCH   4  17
HETATM   17  N   UNL     1     -41.559 -48.611  10.165  1.00  0.00    -0.307 N 
HETATM   18  C   UNL     1     -42.750 -47.982  10.417  1.00  0.00     0.227 C 
HETATM   19  O   UNL     1     -43.446 -48.067  11.419  1.00  0.00    -0.273 OA
HETATM   20  H   UNL     1     -41.024 -48.385   9.342  1.00  0.00     0.171 HD
BRANCH  18  21
HETATM   21  C   UNL     1     -43.156 -47.069   9.302  1.00  0.00     0.078 A 
HETATM   22  C   UNL     1     -44.582 -47.089   8.798  1.00  0.00     0.015 A 
HETATM   23  C   UNL     1     -43.478 -47.621   7.932  1.00  0.00     0.015 A 
ENDBRANCH  18  21
ENDBRANCH   4  17
TORSDOF 7
ENDMDL
MODEL 4
REMARK VINA RESULT:      -5.4      1.890      6.343
REMARK  7 active torsions:
REMARK  status: ('A' for Active; 'I' for Inactive)
REMARK    1  A    between atoms: C_2  and  C_4 
REMARK    2  A    between atoms: C_4  and  C_5 
REMARK    3  A    between atoms: C_5  and  N_6 
REMARK       I    between atoms: N_6  and  C_7 
REMARK    4  A    between atoms: C_7  and  C_9 
REMARK    5  A    between atoms: C_9  and  C_10 
REMARK    6  A    between atoms: C_13  and  N_14 
REMARK       I    between atoms: N_14  and  C_15 
REMARK    7  A    between atoms: C_15  and  C_17 
ROOT
HETATM    1  C   UNL     1     -40.642 -51.876  12.254  1.00  0.00     0.026 A 
HETATM    2  C   UNL     1     -39.605 -51.458  13.069  1.00  0.00     0.078 A 
HETATM    3  S   UNL     1     -39.178 -49.842  12.686  1.00  0.00    -0.064 SA
HETATM    4  C   UNL     1     -40.431 -49.805  11.528  1.00  0.00     0.151 A 
HETATM    5  N   UNL     1     -41.104 -50.915  11.365  1.00  0.00    -0.339 N 
ATOM      6  HN  UNL     1     -41.855 -51.053  10.689  1.00  0.00     0.168 HD
ENDROOT
BRANCH   1   7
HETATM    7  C   UNL     1     -41.285 -53.221  12.245  1.00  0.00     0.160 C 
BRANCH   7   8
HETATM    8  C   UNL     1     -42.626 -53.198  12.954  1.00  0.00     0.223 C 
HETATM    9  N   UNL     1     -43.715 -53.055  12.124  1.00  0.00    -0.361 N 
HETATM   10  H   UNL     1     -43.555 -53.007  11.120  1.00  0.00     0.162 HD
HETATM   11  O   UNL     1     -42.714 -53.278  14.178  1.00  0.00    -0.273 OA
BRANCH   9  12
HETATM   12  C   UNL     1     -45.073 -53.004  12.622  1.00  0.00     0.123 C 
BRANCH  12  13
HETATM   13  C   UNL     1     -45.517 -51.584  12.981  1.00  0.00     0.023 C 
BRANCH  13  14
HETATM   14  C   UNL     1     -46.285 -51.465  14.313  1.00  0.00    -0.021 C 
HETATM   15  C   UNL     1     -46.943 -52.784  14.725  1.00  0.00     0.009 C 
HETATM   16  C   UNL     1     -45.339 -50.997  15.422  1.00  0.00     0.009 C 
ENDBRANCH  13  14
ENDBRANCH  12  13
ENDBRANCH   9  12
ENDBRANCH   7   8
ENDBRANCH   1   7
BRANCH   4  17
HETATM   17  N   UNL     1     -40.577 -48.598  10.907  1.00  0.00    -0.307 N 
HETATM   18  C   UNL     1     -41.783 -47.952  10.829  1.00  0.00     0.227 C 
HETATM   19  O   UNL     1     -42.857 -48.310  11.292  1.00  0.00    -0.273 OA
HETATM   20  H   UNL     1     -39.735 -48.156  10.574  1.00  0.00     0.171 HD
BRANCH  18  21
HETATM   21  C   UNL     1     -41.677 -46.640  10.115  1.00  0.00     0.078 A 
HETATM   22  C   UNL     1     -41.485 -45.368  10.909  1.00  0.00     0.015 A 
HETATM   23  C   UNL     1     -42.788 -45.620  10.211  1.00  0.00     0.015 A 
ENDBRANCH  18  21
ENDBRANCH   4  17
TORSDOF 7
ENDMDL
MODEL 5
REMARK VINA RESULT:      -5.3      3.020      6.786
REMARK  7 active torsions:
REMARK  status: ('A' for Active; 'I' for Inactive)
REMARK    1  A    between atoms: C_2  and  C_4 
REMARK    2  A    between atoms: C_4  and  C_5 
REMARK    3  A    between atoms: C_5  and  N_6 
REMARK       I    between atoms: N_6  and  C_7 
REMARK    4  A    between atoms: C_7  and  C_9 
REMARK    5  A    between atoms: C_9  and  C_10 
REMARK    6  A    between atoms: C_13  and  N_14 
REMARK       I    between atoms: N_14  and  C_15 
REMARK    7  A    between atoms: C_15  and  C_17 
ROOT
HETATM    1  C   UNL     1     -42.169 -54.325  14.155  1.00  0.00     0.026 A 
HETATM    2  C   UNL     1     -40.968 -54.607  14.782  1.00  0.00     0.078 A 
HETATM    3  S   UNL     1     -39.712 -53.667  14.088  1.00  0.00    -0.064 SA
HETATM    4  C   UNL     1     -40.860 -52.923  13.067  1.00  0.00     0.151 A 
HETATM    5  N   UNL     1     -42.091 -53.357  13.163  1.00  0.00    -0.339 N 
ATOM      6  HN  UNL     1     -42.874 -53.032  12.595  1.00  0.00     0.168 HD
ENDROOT
BRANCH   1   7
HETATM    7  C   UNL     1     -43.493 -54.947  14.439  1.00  0.00     0.160 C 
BRANCH   7   8
HETATM    8  C   UNL     1     -44.608 -54.241  13.692  1.00  0.00     0.223 C 
HETATM    9  N   UNL     1     -45.442 -53.481  14.482  1.00  0.00    -0.361 N 
HETATM   10  H   UNL     1     -45.242 -53.422  15.478  1.00  0.00     0.162 HD
HETATM   11  O   UNL     1     -44.755 -54.366  12.477  1.00  0.00    -0.273 OA
BRANCH   9  12
HETATM   12  C   UNL     1     -46.565 -52.743  13.945  1.00  0.00     0.123 C 
BRANCH  12  13
HETATM   13  C   UNL     1     -46.788 -51.407  14.658  1.00  0.00     0.023 C 
BRANCH  13  14
HETATM   14  C   UNL     1     -46.646 -51.463  16.192  1.00  0.00    -0.021 C 
HETATM   15  C   UNL     1     -45.562 -50.517  16.712  1.00  0.00     0.009 C 
HETATM   16  C   UNL     1     -47.984 -51.123  16.854  1.00  0.00     0.009 C 
ENDBRANCH  13  14
ENDBRANCH  12  13
ENDBRANCH   9  12
ENDBRANCH   7   8
ENDBRANCH   1   7
BRANCH   4  17
HETATM   17  N   UNL     1     -40.339 -51.949  12.265  1.00  0.00    -0.307 N 
HETATM   18  C   UNL     1     -40.726 -50.637  12.355  1.00  0.00     0.227 C 
HETATM   19  O   UNL     1     -41.531 -50.144  13.132  1.00  0.00    -0.273 OA
HETATM   20  H   UNL     1     -39.589 -52.222  11.650  1.00  0.00     0.171 HD
BRANCH  18  21
HETATM   21  C   UNL     1     -39.997 -49.764  11.381  1.00  0.00     0.078 A 
HETATM   22  C   UNL     1     -38.658 -49.174  11.760  1.00  0.00     0.015 A 
HETATM   23  C   UNL     1     -39.856 -48.280  11.632  1.00  0.00     0.015 A 
ENDBRANCH  18  21
ENDBRANCH   4  17
TORSDOF 7
ENDMDL
MODEL 6
REMARK VINA RESULT:      -5.2      2.719      6.177
REMARK  7 active torsions:
REMARK  status: ('A' for Active; 'I' for Inactive)
REMARK    1  A    between atoms: C_2  and  C_4 
REMARK    2  A    between atoms: C_4  and  C_5 
REMARK    3  A    between atoms: C_5  and  N_6 
REMARK       I    between atoms: N_6  and  C_7 
REMARK    4  A    between atoms: C_7  and  C_9 
REMARK    5  A    between atoms: C_9  and  C_10 
REMARK    6  A    between atoms: C_13  and  N_14 
REMARK       I    between atoms: N_14  and  C_15 
REMARK    7  A    between atoms: C_15  and  C_17 
ROOT
HETATM    1  C   UNL     1     -40.809 -48.379  11.636  1.00  0.00     0.026 A 
HETATM    2  C   UNL     1     -41.103 -47.194  12.287  1.00  0.00     0.078 A 
HETATM    3  S   UNL     1     -42.641 -46.621  11.788  1.00  0.00    -0.064 SA
HETATM    4  C   UNL     1     -42.819 -48.008  10.811  1.00  0.00     0.151 A 
HETATM    5  N   UNL     1     -41.805 -48.834  10.784  1.00  0.00    -0.339 N 
ATOM      6  HN  UNL     1     -41.754 -49.684  10.221  1.00  0.00     0.168 HD
ENDROOT
BRANCH   1   7
HETATM    7  C   UNL     1     -39.561 -49.183  11.766  1.00  0.00     0.160 C 
BRANCH   7   8
HETATM    8  C   UNL     1     -39.811 -50.474  12.522  1.00  0.00     0.223 C 
HETATM    9  N   UNL     1     -40.799 -50.402  13.479  1.00  0.00    -0.361 N 
HETATM   10  H   UNL     1     -41.301 -49.523  13.589  1.00  0.00     0.162 HD
HETATM   11  O   UNL     1     -39.157 -51.493  12.301  1.00  0.00    -0.273 OA
BRANCH   9  12
HETATM   12  C   UNL     1     -41.170 -51.532  14.303  1.00  0.00     0.123 C 
BRANCH  12  13
HETATM   13  C   UNL     1     -42.555 -52.086  13.955  1.00  0.00     0.023 C 
BRANCH  13  14
HETATM   14  C   UNL     1     -42.556 -53.191  12.881  1.00  0.00    -0.021 C 
HETATM   15  C   UNL     1     -41.392 -54.170  13.050  1.00  0.00     0.009 C 
HETATM   16  C   UNL     1     -43.879 -53.958  12.920  1.00  0.00     0.009 C 
ENDBRANCH  13  14
ENDBRANCH  12  13
ENDBRANCH   9  12
ENDBRANCH   7   8
ENDBRANCH   1   7
BRANCH   4  17
HETATM   17  N   UNL     1     -44.023 -48.084  10.171  1.00  0.00    -0.307 N 
HETATM   18  C   UNL     1     -44.228 -47.548   8.926  1.00  0.00     0.227 C 
HETATM   19  O   UNL     1     -43.418 -46.972   8.215  1.00  0.00    -0.273 OA
HETATM   20  H   UNL     1     -44.742 -48.626  10.622  1.00  0.00     0.171 HD
BRANCH  18  21
HETATM   21  C   UNL     1     -45.624 -47.776   8.435  1.00  0.00     0.078 A 
HETATM   22  C   UNL     1     -46.766 -46.980   9.024  1.00  0.00     0.015 A 
HETATM   23  C   UNL     1     -46.652 -48.447   9.318  1.00  0.00     0.015 A 
ENDBRANCH  18  21
ENDBRANCH   4  17
TORSDOF 7
ENDMDL
MODEL 7
REMARK VINA RESULT:      -5.1      2.922      7.363
REMARK  7 active torsions:
REMARK  status: ('A' for Active; 'I' for Inactive)
REMARK    1  A    between atoms: C_2  and  C_4 
REMARK    2  A    between atoms: C_4  and  C_5 
REMARK    3  A    between atoms: C_5  and  N_6 
REMARK       I    between atoms: N_6  and  C_7 
REMARK    4  A    between atoms: C_7  and  C_9 
REMARK    5  A    between atoms: C_9  and  C_10 
REMARK    6  A    between atoms: C_13  and  N_14 
REMARK       I    between atoms: N_14  and  C_15 
REMARK    7  A    between atoms: C_15  and  C_17 
ROOT
HETATM    1  C   UNL     1     -38.926 -50.997  13.261  1.00  0.00     0.026 A 
HETATM    2  C   UNL     1     -37.661 -51.020  12.701  1.00  0.00     0.078 A 
HETATM    3  S   UNL     1     -37.544 -49.827  11.474  1.00  0.00    -0.064 SA
HETATM    4  C   UNL     1     -39.141 -49.337  11.825  1.00  0.00     0.151 A 
HETATM    5  N   UNL     1     -39.771 -50.025  12.742  1.00  0.00    -0.339 N 
ATOM      6  HN  UNL     1     -40.738 -49.872  13.031  1.00  0.00     0.168 HD
ENDROOT
BRANCH   1   7
HETATM    7  C   UNL     1     -39.444 -51.890  14.335  1.00  0.00     0.160 C 
BRANCH   7   8
HETATM    8  C   UNL     1     -40.341 -52.975  13.768  1.00  0.00     0.223 C 
HETATM    9  N   UNL     1     -41.145 -53.601  14.694  1.00  0.00    -0.361 N 
HETATM   10  H   UNL     1     -41.108 -53.283  15.661  1.00  0.00     0.162 HD
HETATM   11  O   UNL     1     -40.322 -53.275  12.576  1.00  0.00    -0.273 OA
BRANCH   9  12
HETATM   12  C   UNL     1     -42.060 -54.664  14.339  1.00  0.00     0.123 C 
BRANCH  12  13
HETATM   13  C   UNL     1     -43.463 -54.453  14.915  1.00  0.00     0.023 C 
BRANCH  13  14
HETATM   14  C   UNL     1     -44.613 -54.697  13.918  1.00  0.00    -0.021 C 
HETATM   15  C   UNL     1     -45.986 -54.424  14.534  1.00  0.00     0.009 C 
HETATM   16  C   UNL     1     -44.425 -53.821  12.677  1.00  0.00     0.009 C 
ENDBRANCH  13  14
ENDBRANCH  12  13
ENDBRANCH   9  12
ENDBRANCH   7   8
ENDBRANCH   1   7
BRANCH   4  17
HETATM   17  N   UNL     1     -39.566 -48.267  11.092  1.00  0.00    -0.307 N 
HETATM   18  C   UNL     1     -40.154 -47.170  11.665  1.00  0.00     0.227 C 
HETATM   19  O   UNL     1     -40.363 -46.965  12.852  1.00  0.00    -0.273 OA
HETATM   20  H   UNL     1     -39.354 -48.280  10.107  1.00  0.00     0.171 HD
BRANCH  18  21
HETATM   21  C   UNL     1     -40.515 -46.127  10.653  1.00  0.00     0.078 A 
HETATM   22  C   UNL     1     -39.505 -45.067  10.277  1.00  0.00     0.015 A 
HETATM   23  C   UNL     1     -40.722 -44.689  11.069  1.00  0.00     0.015 A 
ENDBRANCH  18  21
ENDBRANCH   4  17
TORSDOF 7
ENDMDL
MODEL 8
REMARK VINA RESULT:      -5.0      2.458      3.207
REMARK  7 active torsions:
REMARK  status: ('A' for Active; 'I' for Inactive)
REMARK    1  A    between atoms: C_2  and  C_4 
REMARK    2  A    between atoms: C_4  and  C_5 
REMARK    3  A    between atoms: C_5  and  N_6 
REMARK       I    between atoms: N_6  and  C_7 
REMARK    4  A    between atoms: C_7  and  C_9 
REMARK    5  A    between atoms: C_9  and  C_10 
REMARK    6  A    between atoms: C_13  and  N_14 
REMARK       I    between atoms: N_14  and  C_15 
REMARK    7  A    between atoms: C_15  and  C_17 
ROOT
HETATM    1  C   UNL     1     -40.971 -51.126  11.924  1.00  0.00     0.026 A 
HETATM    2  C   UNL     1     -40.649 -52.401  12.354  1.00  0.00     0.078 A 
HETATM    3  S   UNL     1     -42.038 -53.164  13.009  1.00  0.00    -0.064 SA
HETATM    4  C   UNL     1     -42.959 -51.782  12.615  1.00  0.00     0.151 A 
HETATM    5  N   UNL     1     -42.306 -50.779  12.087  1.00  0.00    -0.339 N 
ATOM      6  HN  UNL     1     -42.715 -49.880  11.833  1.00  0.00     0.168 HD
ENDROOT
BRANCH   1   7
HETATM    7  C   UNL     1     -40.045 -50.125  11.323  1.00  0.00     0.160 C 
BRANCH   7   8
HETATM    8  C   UNL     1     -40.700 -48.762  11.211  1.00  0.00     0.223 C 
HETATM    9  N   UNL     1     -40.219 -47.816  12.089  1.00  0.00    -0.361 N 
HETATM   10  H   UNL     1     -39.458 -48.078  12.713  1.00  0.00     0.162 HD
HETATM   11  O   UNL     1     -41.605 -48.541  10.408  1.00  0.00    -0.273 OA
BRANCH   9  12
HETATM   12  C   UNL     1     -40.729 -46.462  12.132  1.00  0.00     0.123 C 
BRANCH  12  13
HETATM   13  C   UNL     1     -40.115 -45.566  11.053  1.00  0.00     0.023 C 
BRANCH  13  14
HETATM   14  C   UNL     1     -39.620 -44.196  11.559  1.00  0.00    -0.021 C 
HETATM   15  C   UNL     1     -40.659 -43.090  11.356  1.00  0.00     0.009 C 
HETATM   16  C   UNL     1     -39.253 -44.286  13.042  1.00  0.00     0.009 C 
ENDBRANCH  13  14
ENDBRANCH  12  13
ENDBRANCH   9  12
ENDBRANCH   7   8
ENDBRANCH   1   7
BRANCH   4  17
HETATM   17  N   UNL     1     -44.288 -51.901  12.905  1.00  0.00    -0.307 N 
HETATM   18  C   UNL     1     -44.900 -51.144  13.869  1.00  0.00     0.227 C 
HETATM   19  O   UNL     1     -44.402 -50.275  14.570  1.00  0.00    -0.273 OA
HETATM   20  H   UNL     1     -44.825 -52.520  12.320  1.00  0.00     0.171 HD
BRANCH  18  21
HETATM   21  C   UNL     1     -46.362 -51.449  13.985  1.00  0.00     0.078 A 
HETATM   22  C   UNL     1     -47.008 -51.512  15.351  1.00  0.00     0.015 A 
HETATM   23  C   UNL     1     -46.830 -52.770  14.552  1.00  0.00     0.015 A 
ENDBRANCH  18  21
ENDBRANCH   4  17
TORSDOF 7
ENDMDL
MODEL 9
REMARK VINA RESULT:      -4.9      3.326      7.171
REMARK  7 active torsions:
REMARK  status: ('A' for Active; 'I' for Inactive)
REMARK    1  A    between atoms: C_2  and  C_4 
REMARK    2  A    between atoms: C_4  and  C_5 
REMARK    3  A    between atoms: C_5  and  N_6 
REMARK       I    between atoms: N_6  and  C_7 
REMARK    4  A    between atoms: C_7  and  C_9 
REMARK    5  A    between atoms: C_9  and  C_10 
REMARK    6  A    between atoms: C_13  and  N_14 
REMARK       I    between atoms: N_14  and  C_15 
REMARK    7  A    between atoms: C_15  and  C_17 
ROOT
HETATM    1  C   UNL     1     -43.490 -53.425  12.790  1.00  0.00     0.026 A 
HETATM    2  C   UNL     1     -42.619 -54.295  13.421  1.00  0.00     0.078 A 
HETATM    3  S   UNL     1     -41.000 -53.880  13.037  1.00  0.00    -0.064 SA
HETATM    4  C   UNL     1     -41.575 -52.555  12.129  1.00  0.00     0.151 A 
HETATM    5  N   UNL     1     -42.874 -52.429  12.043  1.00  0.00    -0.339 N 
ATOM      6  HN  UNL     1     -43.361 -51.710  11.509  1.00  0.00     0.168 HD
ENDROOT
BRANCH   1   7
HETATM    7  C   UNL     1     -44.979 -53.459  12.840  1.00  0.00     0.160 C 
BRANCH   7   8
HETATM    8  C   UNL     1     -45.539 -52.212  13.498  1.00  0.00     0.223 C 
HETATM    9  N   UNL     1     -46.509 -52.447  14.447  1.00  0.00    -0.361 N 
HETATM   10  H   UNL     1     -46.755 -53.412  14.659  1.00  0.00     0.162 HD
HETATM   11  O   UNL     1     -45.162 -51.085  13.180  1.00  0.00    -0.273 OA
BRANCH   9  12
HETATM   12  C   UNL     1     -47.162 -51.379  15.173  1.00  0.00     0.123 C 
BRANCH  12  13
HETATM   13  C   UNL     1     -46.690 -51.279  16.626  1.00  0.00     0.023 C 
BRANCH  13  14
HETATM   14  C   UNL     1     -47.823 -51.220  17.670  1.00  0.00    -0.021 C 
HETATM   15  C   UNL     1     -47.618 -52.220  18.809  1.00  0.00     0.009 C 
HETATM   16  C   UNL     1     -47.934 -49.805  18.244  1.00  0.00     0.009 C 
ENDBRANCH  13  14
ENDBRANCH  12  13
ENDBRANCH   9  12
ENDBRANCH   7   8
ENDBRANCH   1   7
BRANCH   4  17
HETATM   17  N   UNL     1     -40.587 -51.776  11.599  1.00  0.00    -0.307 N 
HETATM   18  C   UNL     1     -40.203 -50.588  12.164  1.00  0.00     0.227 C 
HETATM   19  O   UNL     1     -40.634 -50.069  13.183  1.00  0.00    -0.273 OA
HETATM   20  H   UNL     1     -40.088 -52.154  10.809  1.00  0.00     0.171 HD
BRANCH  18  21
HETATM   21  C   UNL     1     -39.091 -49.933  11.405  1.00  0.00     0.078 A 
HETATM   22  C   UNL     1     -37.656 -50.280  11.731  1.00  0.00     0.015 A 
HETATM   23  C   UNL     1     -38.191 -48.922  12.077  1.00  0.00     0.015 A 
ENDBRANCH  18  21
ENDBRANCH   4  17
TORSDOF 7
ENDMDL
