MODEL 1
REMARK VINA RESULT:      -7.0      0.000      0.000
REMARK  7 active torsions:
REMARK  status: ('A' for Active; 'I' for Inactive)
REMARK       I    between atoms: N_1  and  C_2 
REMARK    1  A    between atoms: C_2  and  C_4 
REMARK    2  A    between atoms: N_9  and  C_10 
REMARK    3  A    between atoms: C_10  and  C_11 
REMARK       I    between atoms: C_11  and  N_13 
REMARK    4  A    between atoms: N_13  and  C_14 
REMARK    5  A    between atoms: C_14  and  C_15 
REMARK    6  A    between atoms: C_15  and  C_16 
REMARK    7  A    between atoms: C_16  and  C_17 
ROOT
HETATM    1  C   UNL     1     -42.975 -48.432  12.336  1.00  0.00     0.255 C 
ENDROOT
BRANCH   1   2
HETATM    2  N   UNL     1     -43.318 -47.698  11.130  1.00  0.00    -0.248 N 
HETATM    3  C   UNL     1     -42.576 -46.572  10.795  1.00  0.00     0.262 C 
HETATM    4  C   UNL     1     -43.000 -45.851   9.576  1.00  0.00     0.078 C 
HETATM    5  O   UNL     1     -41.607 -46.166  11.434  1.00  0.00    -0.267 OA
HETATM    6  C   UNL     1     -44.094 -46.223   8.910  1.00  0.00     0.042 C 
HETATM    7  C   UNL     1     -44.845 -47.368   9.455  1.00  0.00     0.116 C 
HETATM    8  N   UNL     1     -44.489 -48.067  10.491  1.00  0.00    -0.290 N 
ATOM      9  HN  UNL     1     -45.048 -48.854  10.819  1.00  0.00     0.187 HD
BRANCH   7  10
HETATM   10  C   UNL     1     -46.147 -47.746   8.742  1.00  0.00     0.267 C 
HETATM   11  N   UNL     1     -46.023 -48.754   7.827  1.00  0.00    -0.365 N 
HETATM   12  H   UNL     1     -46.826 -49.043   7.288  1.00  0.00     0.159 HD
HETATM   13  H   UNL     1     -45.111 -49.154   7.639  1.00  0.00     0.159 HD
HETATM   14  O   UNL     1     -47.198 -47.183   8.992  1.00  0.00    -0.266 OA
ENDBRANCH   7  10
ENDBRANCH   1   2
BRANCH   1  15
HETATM   15  C   UNL     1     -42.167 -49.685  12.003  1.00  0.00     0.237 C 
HETATM   16  O   UNL     1     -41.081 -49.645  11.430  1.00  0.00    -0.272 OA
HETATM   17  N   UNL     1     -42.752 -50.859  12.439  1.00  0.00    -0.360 N 
HETATM   18  H   UNL     1     -43.402 -50.777  13.220  1.00  0.00     0.162 HD
BRANCH  17  19
HETATM   19  C   UNL     1     -42.122 -52.145  12.227  1.00  0.00     0.122 C 
BRANCH  19  20
HETATM   20  C   UNL     1     -43.110 -53.296  12.399  1.00  0.00     0.020 C 
BRANCH  20  21
HETATM   21  C   UNL     1     -44.017 -53.065  13.611  1.00  0.00     0.006 C 
BRANCH  21  22
HETATM   22  C   UNL     1     -45.484 -53.495  13.385  1.00  0.00    -0.014 C 
HETATM   23  C   UNL     1     -46.366 -52.276  13.050  1.00  0.00     0.004 C 
HETATM   24  C   UNL     1     -46.623 -51.374  14.259  1.00  0.00     0.000 C 
HETATM   25  C   UNL     1     -47.179 -52.156  15.445  1.00  0.00     0.000 C 
HETATM   26  C   UNL     1     -46.315 -53.365  15.792  1.00  0.00     0.000 C 
HETATM   27  C   UNL     1     -46.098 -54.258  14.571  1.00  0.00     0.004 C 
ENDBRANCH  21  22
ENDBRANCH  20  21
ENDBRANCH  19  20
ENDBRANCH  17  19
ENDBRANCH   1  15
TORSDOF 7
ENDMDL
MODEL 2
REMARK VINA RESULT:      -6.8      1.785      2.011
REMARK  7 active torsions:
REMARK  status: ('A' for Active; 'I' for Inactive)
REMARK       I    between atoms: N_1  and  C_2 
REMARK    1  A    between atoms: C_2  and  C_4 
REMARK    2  A    between atoms: N_9  and  C_10 
REMARK    3  A    between atoms: C_10  and  C_11 
REMARK       I    between atoms: C_11  and  N_13 
REMARK    4  A    between atoms: N_13  and  C_14 
REMARK    5  A    between atoms: C_14  and  C_15 
REMARK    6  A    between atoms: C_15  and  C_16 
REMARK    7  A    between atoms: C_16  and  C_17 
ROOT
HETATM    1  C   UNL     1     -40.282 -49.493  11.470  1.00  0.00     0.255 C 
ENDROOT
BRANCH   1   2
HETATM    2  N   UNL     1     -40.899 -48.291  10.933  1.00  0.00    -0.248 N 
HETATM    3  C   UNL     1     -40.665 -47.077  11.565  1.00  0.00     0.262 C 
HETATM    4  C   UNL     1     -41.350 -45.900  10.991  1.00  0.00     0.078 C 
HETATM    5  O   UNL     1     -39.928 -46.934  12.541  1.00  0.00    -0.267 OA
HETATM    6  C   UNL     1     -42.215 -46.039   9.985  1.00  0.00     0.042 C 
HETATM    7  C   UNL     1     -42.447 -47.410   9.495  1.00  0.00     0.116 C 
HETATM    8  N   UNL     1     -41.834 -48.470   9.929  1.00  0.00    -0.290 N 
ATOM      9  HN  UNL     1     -42.034 -49.393   9.546  1.00  0.00     0.187 HD
BRANCH   7  10
HETATM   10  C   UNL     1     -43.501 -47.584   8.397  1.00  0.00     0.267 C 
HETATM   11  N   UNL     1     -43.049 -48.208   7.268  1.00  0.00    -0.365 N 
HETATM   12  H   UNL     1     -43.670 -48.335   6.482  1.00  0.00     0.159 HD
HETATM   13  H   UNL     1     -42.073 -48.474   7.196  1.00  0.00     0.159 HD
HETATM   14  O   UNL     1     -44.646 -47.193   8.543  1.00  0.00    -0.266 OA
ENDBRANCH   7  10
ENDBRANCH   1   2
BRANCH   1  15
HETATM   15  C   UNL     1     -41.341 -50.513  11.887  1.00  0.00     0.237 C 
HETATM   16  O   UNL     1     -42.404 -50.192  12.413  1.00  0.00    -0.272 OA
HETATM   17  N   UNL     1     -41.007 -51.820  11.585  1.00  0.00    -0.360 N 
HETATM   18  H   UNL     1     -40.341 -51.951  10.824  1.00  0.00     0.162 HD
BRANCH  17  19
HETATM   19  C   UNL     1     -41.896 -52.920  11.891  1.00  0.00     0.122 C 
BRANCH  19  20
HETATM   20  C   UNL     1     -41.817 -53.320  13.362  1.00  0.00     0.020 C 
BRANCH  20  21
HETATM   21  C   UNL     1     -43.187 -53.207  14.036  1.00  0.00     0.006 C 
BRANCH  21  22
HETATM   22  C   UNL     1     -44.374 -53.518  13.097  1.00  0.00    -0.014 C 
HETATM   23  C   UNL     1     -45.279 -52.282  12.930  1.00  0.00     0.004 C 
HETATM   24  C   UNL     1     -46.108 -51.975  14.178  1.00  0.00     0.000 C 
HETATM   25  C   UNL     1     -46.904 -53.190  14.645  1.00  0.00     0.000 C 
HETATM   26  C   UNL     1     -46.022 -54.423  14.818  1.00  0.00     0.000 C 
HETATM   27  C   UNL     1     -45.227 -54.717  13.547  1.00  0.00     0.004 C 
ENDBRANCH  21  22
ENDBRANCH  20  21
ENDBRANCH  19  20
ENDBRANCH  17  19
ENDBRANCH   1  15
TORSDOF 7
ENDMDL
MODEL 3
REMARK VINA RESULT:      -6.5      2.479      4.108
REMARK  7 active torsions:
REMARK  status: ('A' for Active; 'I' for Inactive)
REMARK       I    between atoms: N_1  and  C_2 
REMARK    1  A    between atoms: C_2  and  C_4 
REMARK    2  A    between atoms: N_9  and  C_10 
REMARK    3  A    between atoms: C_10  and  C_11 
REMARK       I    between atoms: C_11  and  N_13 
REMARK    4  A    between atoms: N_13  and  C_14 
REMARK    5  A    between atoms: C_14  and  C_15 
REMARK    6  A    between atoms: C_15  and  C_16 
REMARK    7  A    between atoms: C_16  and  C_17 
ROOT
HETATM    1  C   UNL     1     -40.928 -52.499  12.143  1.00  0.00     0.255 C 
ENDROOT
BRANCH   1   2
HETATM    2  N   UNL     1     -40.418 -51.158  11.913  1.00  0.00    -0.248 N 
HETATM    3  C   UNL     1     -39.148 -50.834  12.372  1.00  0.00     0.262 C 
HETATM    4  C   UNL     1     -38.704 -49.444  12.137  1.00  0.00     0.078 C 
HETATM    5  O   UNL     1     -38.392 -51.624  12.936  1.00  0.00    -0.267 OA
HETATM    6  C   UNL     1     -39.532 -48.546  11.601  1.00  0.00     0.042 C 
HETATM    7  C   UNL     1     -40.891 -49.012  11.270  1.00  0.00     0.116 C 
HETATM    8  N   UNL     1     -41.314 -50.232  11.409  1.00  0.00    -0.290 N 
ATOM      9  HN  UNL     1     -42.267 -50.496  11.157  1.00  0.00     0.187 HD
BRANCH   7  10
HETATM   10  C   UNL     1     -41.871 -47.964  10.732  1.00  0.00     0.267 C 
HETATM   11  N   UNL     1     -42.347 -48.222   9.477  1.00  0.00    -0.365 N 
HETATM   12  H   UNL     1     -42.973 -47.565   9.034  1.00  0.00     0.159 HD
HETATM   13  H   UNL     1     -42.012 -49.031   8.967  1.00  0.00     0.159 HD
HETATM   14  O   UNL     1     -42.189 -46.990  11.391  1.00  0.00    -0.266 OA
ENDBRANCH   7  10
ENDBRANCH   1   2
BRANCH   1  15
HETATM   15  C   UNL     1     -41.585 -52.606  13.519  1.00  0.00     0.237 C 
HETATM   16  O   UNL     1     -42.142 -51.658  14.067  1.00  0.00    -0.272 OA
HETATM   17  N   UNL     1     -41.527 -53.873  14.068  1.00  0.00    -0.360 N 
HETATM   18  H   UNL     1     -41.423 -54.646  13.411  1.00  0.00     0.162 HD
BRANCH  17  19
HETATM   19  C   UNL     1     -42.111 -54.168  15.359  1.00  0.00     0.122 C 
BRANCH  19  20
HETATM   20  C   UNL     1     -43.517 -54.749  15.227  1.00  0.00     0.020 C 
BRANCH  20  21
HETATM   21  C   UNL     1     -44.576 -53.721  15.635  1.00  0.00     0.006 C 
BRANCH  21  22
HETATM   22  C   UNL     1     -45.923 -53.885  14.896  1.00  0.00    -0.014 C 
HETATM   23  C   UNL     1     -45.701 -54.013  13.376  1.00  0.00     0.004 C 
HETATM   24  C   UNL     1     -45.289 -52.695  12.718  1.00  0.00     0.000 C 
HETATM   25  C   UNL     1     -46.263 -51.567  13.047  1.00  0.00     0.000 C 
HETATM   26  C   UNL     1     -46.492 -51.424  14.549  1.00  0.00     0.000 C 
HETATM   27  C   UNL     1     -46.925 -52.751  15.170  1.00  0.00     0.004 C 
ENDBRANCH  21  22
ENDBRANCH  20  21
ENDBRANCH  19  20
ENDBRANCH  17  19
ENDBRANCH   1  15
TORSDOF 7
ENDMDL
MODEL 4
REMARK VINA RESULT:      -6.5      2.794      4.236
REMARK  7 active torsions:
REMARK  status: ('A' for Active; 'I' for Inactive)
REMARK       I    between atoms: N_1  and  C_2 
REMARK    1  A    between atoms: C_2  and  C_4 
REMARK    2  A    between atoms: N_9  and  C_10 
REMARK    3  A    between atoms: C_10  and  C_11 
REMARK       I    between atoms: C_11  and  N_13 
REMARK    4  A    between atoms: N_13  and  C_14 
REMARK    5  A    between atoms: C_14  and  C_15 
REMARK    6  A    between atoms: C_15  and  C_16 
REMARK    7  A    between atoms: C_16  and  C_17 
ROOT
HETATM    1  C   UNL     1     -41.198 -52.402  11.896  1.00  0.00     0.255 C 
ENDROOT
BRANCH   1   2
HETATM    2  N   UNL     1     -40.530 -51.114  11.809  1.00  0.00    -0.248 N 
HETATM    3  C   UNL     1     -39.315 -50.942  12.459  1.00  0.00     0.262 C 
HETATM    4  C   UNL     1     -38.706 -49.599  12.361  1.00  0.00     0.078 C 
HETATM    5  O   UNL     1     -38.731 -51.828  13.082  1.00  0.00    -0.267 OA
HETATM    6  C   UNL     1     -39.355 -48.599  11.761  1.00  0.00     0.042 C 
HETATM    7  C   UNL     1     -40.691 -48.907  11.219  1.00  0.00     0.116 C 
HETATM    8  N   UNL     1     -41.248 -50.080  11.233  1.00  0.00    -0.290 N 
ATOM      9  HN  UNL     1     -42.174 -50.233  10.836  1.00  0.00     0.187 HD
BRANCH   7  10
HETATM   10  C   UNL     1     -41.473 -47.743  10.603  1.00  0.00     0.267 C 
HETATM   11  N   UNL     1     -40.721 -46.638  10.319  1.00  0.00    -0.365 N 
HETATM   12  H   UNL     1     -41.164 -45.813   9.941  1.00  0.00     0.159 HD
HETATM   13  H   UNL     1     -39.736 -46.623  10.560  1.00  0.00     0.159 HD
HETATM   14  O   UNL     1     -42.670 -47.822  10.387  1.00  0.00    -0.266 OA
ENDBRANCH   7  10
ENDBRANCH   1   2
BRANCH   1  15
HETATM   15  C   UNL     1     -42.593 -52.255  12.502  1.00  0.00     0.237 C 
HETATM   16  O   UNL     1     -42.880 -51.374  13.307  1.00  0.00    -0.272 OA
HETATM   17  N   UNL     1     -43.505 -53.182  12.032  1.00  0.00    -0.360 N 
HETATM   18  H   UNL     1     -43.308 -53.587  11.118  1.00  0.00     0.162 HD
BRANCH  17  19
HETATM   19  C   UNL     1     -44.881 -53.187  12.482  1.00  0.00     0.122 C 
BRANCH  19  20
HETATM   20  C   UNL     1     -45.163 -54.346  13.434  1.00  0.00     0.020 C 
BRANCH  20  21
HETATM   21  C   UNL     1     -45.951 -53.872  14.658  1.00  0.00     0.006 C 
BRANCH  21  22
HETATM   22  C   UNL     1     -45.406 -52.571  15.288  1.00  0.00    -0.014 C 
HETATM   23  C   UNL     1     -44.991 -52.804  16.754  1.00  0.00     0.004 C 
HETATM   24  C   UNL     1     -46.186 -52.975  17.693  1.00  0.00     0.000 C 
HETATM   25  C   UNL     1     -47.176 -51.821  17.570  1.00  0.00     0.000 C 
HETATM   26  C   UNL     1     -47.599 -51.579  16.124  1.00  0.00     0.000 C 
HETATM   27  C   UNL     1     -46.385 -51.387  15.217  1.00  0.00     0.004 C 
ENDBRANCH  21  22
ENDBRANCH  20  21
ENDBRANCH  19  20
ENDBRANCH  17  19
ENDBRANCH   1  15
TORSDOF 7
ENDMDL
MODEL 5
REMARK VINA RESULT:      -6.2      3.238      8.038
REMARK  7 active torsions:
REMARK  status: ('A' for Active; 'I' for Inactive)
REMARK       I    between atoms: N_1  and  C_2 
REMARK    1  A    between atoms: C_2  and  C_4 
REMARK    2  A    between atoms: N_9  and  C_10 
REMARK    3  A    between atoms: C_10  and  C_11 
REMARK       I    between atoms: C_11  and  N_13 
REMARK    4  A    between atoms: N_13  and  C_14 
REMARK    5  A    between atoms: C_14  and  C_15 
REMARK    6  A    between atoms: C_15  and  C_16 
REMARK    7  A    between atoms: C_16  and  C_17 
ROOT
HETATM    1  C   UNL     1     -40.585 -51.336  11.548  1.00  0.00     0.255 C 
ENDROOT
BRANCH   1   2
HETATM    2  N   UNL     1     -41.269 -52.309  12.383  1.00  0.00    -0.248 N 
HETATM    3  C   UNL     1     -40.515 -53.140  13.201  1.00  0.00     0.262 C 
HETATM    4  C   UNL     1     -41.270 -54.130  13.997  1.00  0.00     0.078 C 
HETATM    5  O   UNL     1     -39.290 -53.086  13.304  1.00  0.00    -0.267 OA
HETATM    6  C   UNL     1     -42.589 -54.264  13.846  1.00  0.00     0.042 C 
HETATM    7  C   UNL     1     -43.234 -53.387  12.852  1.00  0.00     0.116 C 
HETATM    8  N   UNL     1     -42.627 -52.467  12.165  1.00  0.00    -0.290 N 
ATOM      9  HN  UNL     1     -43.129 -51.886  11.495  1.00  0.00     0.187 HD
BRANCH   7  10
HETATM   10  C   UNL     1     -44.733 -53.594  12.616  1.00  0.00     0.267 C 
HETATM   11  N   UNL     1     -45.392 -52.495  12.141  1.00  0.00    -0.365 N 
HETATM   12  H   UNL     1     -46.389 -52.535  11.988  1.00  0.00     0.159 HD
HETATM   13  H   UNL     1     -44.891 -51.622  12.017  1.00  0.00     0.159 HD
HETATM   14  O   UNL     1     -45.272 -54.665  12.835  1.00  0.00    -0.266 OA
ENDBRANCH   7  10
ENDBRANCH   1   2
BRANCH   1  15
HETATM   15  C   UNL     1     -41.204 -49.947  11.705  1.00  0.00     0.237 C 
HETATM   16  O   UNL     1     -41.774 -49.584  12.731  1.00  0.00    -0.272 OA
HETATM   17  N   UNL     1     -41.030 -49.131  10.604  1.00  0.00    -0.360 N 
HETATM   18  H   UNL     1     -40.239 -49.350   9.999  1.00  0.00     0.162 HD
BRANCH  17  19
HETATM   19  C   UNL     1     -41.535 -47.774  10.577  1.00  0.00     0.122 C 
BRANCH  19  20
HETATM   20  C   UNL     1     -40.449 -46.757  10.916  1.00  0.00     0.020 C 
BRANCH  20  21
HETATM   21  C   UNL     1     -40.954 -45.326  10.715  1.00  0.00     0.006 C 
BRANCH  21  22
HETATM   22  C   UNL     1     -41.577 -44.699  11.982  1.00  0.00    -0.014 C 
HETATM   23  C   UNL     1     -42.220 -43.336  11.659  1.00  0.00     0.004 C 
HETATM   24  C   UNL     1     -41.190 -42.237  11.397  1.00  0.00     0.000 C 
HETATM   25  C   UNL     1     -40.180 -42.121  12.534  1.00  0.00     0.000 C 
HETATM   26  C   UNL     1     -39.531 -43.462  12.865  1.00  0.00     0.000 C 
HETATM   27  C   UNL     1     -40.585 -44.531  13.145  1.00  0.00     0.004 C 
ENDBRANCH  21  22
ENDBRANCH  20  21
ENDBRANCH  19  20
ENDBRANCH  17  19
ENDBRANCH   1  15
TORSDOF 7
ENDMDL
MODEL 6
REMARK VINA RESULT:      -6.2      2.518      2.922
REMARK  7 active torsions:
REMARK  status: ('A' for Active; 'I' for Inactive)
REMARK       I    between atoms: N_1  and  C_2 
REMARK    1  A    between atoms: C_2  and  C_4 
REMARK    2  A    between atoms: N_9  and  C_10 
REMARK    3  A    between atoms: C_10  and  C_11 
REMARK       I    between atoms: C_11  and  N_13 
REMARK    4  A    between atoms: N_13  and  C_14 
REMARK    5  A    between atoms: C_14  and  C_15 
REMARK    6  A    between atoms: C_15  and  C_16 
REMARK    7  A    between atoms: C_16  and  C_17 
ROOT
HETATM    1  C   UNL     1     -40.381 -49.064  11.307  1.00  0.00     0.255 C 
ENDROOT
BRANCH   1   2
HETATM    2  N   UNL     1     -41.198 -47.964  10.821  1.00  0.00    -0.248 N 
HETATM    3  C   UNL     1     -41.193 -46.764  11.521  1.00  0.00     0.262 C 
HETATM    4  C   UNL     1     -42.072 -45.699  10.995  1.00  0.00     0.078 C 
HETATM    5  O   UNL     1     -40.505 -46.546  12.518  1.00  0.00    -0.267 OA
HETATM    6  C   UNL     1     -42.887 -45.934   9.966  1.00  0.00     0.042 C 
HETATM    7  C   UNL     1     -42.864 -47.295   9.400  1.00  0.00     0.116 C 
HETATM    8  N   UNL     1     -42.075 -48.251   9.790  1.00  0.00    -0.290 N 
ATOM      9  HN  UNL     1     -42.101 -49.173   9.355  1.00  0.00     0.187 HD
BRANCH   7  10
HETATM   10  C   UNL     1     -43.857 -47.594   8.273  1.00  0.00     0.267 C 
HETATM   11  N   UNL     1     -45.126 -47.138   8.495  1.00  0.00    -0.365 N 
HETATM   12  H   UNL     1     -45.851 -47.320   7.817  1.00  0.00     0.159 HD
HETATM   13  H   UNL     1     -45.351 -46.685   9.374  1.00  0.00     0.159 HD
HETATM   14  O   UNL     1     -43.517 -48.187   7.263  1.00  0.00    -0.266 OA
ENDBRANCH   7  10
ENDBRANCH   1   2
BRANCH   1  15
HETATM   15  C   UNL     1     -41.253 -50.200  11.839  1.00  0.00     0.237 C 
HETATM   16  O   UNL     1     -42.271 -50.006  12.499  1.00  0.00    -0.272 OA
HETATM   17  N   UNL     1     -40.811 -51.459  11.479  1.00  0.00    -0.360 N 
HETATM   18  H   UNL     1     -40.234 -51.512  10.639  1.00  0.00     0.162 HD
BRANCH  17  19
HETATM   19  C   UNL     1     -41.520 -52.656  11.880  1.00  0.00     0.122 C 
BRANCH  19  20
HETATM   20  C   UNL     1     -40.715 -53.485  12.877  1.00  0.00     0.020 C 
BRANCH  20  21
HETATM   21  C   UNL     1     -41.166 -53.204  14.314  1.00  0.00     0.006 C 
BRANCH  21  22
HETATM   22  C   UNL     1     -42.674 -53.437  14.553  1.00  0.00    -0.014 C 
HETATM   23  C   UNL     1     -43.150 -52.692  15.816  1.00  0.00     0.004 C 
HETATM   24  C   UNL     1     -42.656 -53.338  17.111  1.00  0.00     0.000 C 
HETATM   25  C   UNL     1     -43.003 -54.823  17.175  1.00  0.00     0.000 C 
HETATM   26  C   UNL     1     -42.537 -55.576  15.932  1.00  0.00     0.000 C 
HETATM   27  C   UNL     1     -43.066 -54.921  14.658  1.00  0.00     0.004 C 
ENDBRANCH  21  22
ENDBRANCH  20  21
ENDBRANCH  19  20
ENDBRANCH  17  19
ENDBRANCH   1  15
TORSDOF 7
ENDMDL
MODEL 7
REMARK VINA RESULT:      -6.1      3.748      7.567
REMARK  7 active torsions:
REMARK  status: ('A' for Active; 'I' for Inactive)
REMARK       I    between atoms: N_1  and  C_2 
REMARK    1  A    between atoms: C_2  and  C_4 
REMARK    2  A    between atoms: N_9  and  C_10 
REMARK    3  A    between atoms: C_10  and  C_11 
REMARK       I    between atoms: C_11  and  N_13 
REMARK    4  A    between atoms: N_13  and  C_14 
REMARK    5  A    between atoms: C_14  and  C_15 
REMARK    6  A    between atoms: C_15  and  C_16 
REMARK    7  A    between atoms: C_16  and  C_17 
ROOT
HETATM    1  C   UNL     1     -41.180 -52.846  12.125  1.00  0.00     0.255 C 
ENDROOT
BRANCH   1   2
HETATM    2  N   UNL     1     -41.900 -53.553  13.171  1.00  0.00    -0.248 N 
HETATM    3  C   UNL     1     -41.177 -54.196  14.168  1.00  0.00     0.262 C 
HETATM    4  C   UNL     1     -41.968 -54.925  15.181  1.00  0.00     0.078 C 
HETATM    5  O   UNL     1     -39.950 -54.177  14.255  1.00  0.00    -0.267 OA
HETATM    6  C   UNL     1     -43.293 -55.029  15.065  1.00  0.00     0.042 C 
HETATM    7  C   UNL     1     -43.908 -54.390  13.887  1.00  0.00     0.116 C 
HETATM    8  N   UNL     1     -43.266 -53.695  12.997  1.00  0.00    -0.290 N 
ATOM      9  HN  UNL     1     -43.748 -53.271  12.205  1.00  0.00     0.187 HD
BRANCH   7  10
HETATM   10  C   UNL     1     -45.417 -54.576  13.707  1.00  0.00     0.267 C 
HETATM   11  N   UNL     1     -46.075 -53.476  13.234  1.00  0.00    -0.365 N 
HETATM   12  H   UNL     1     -47.077 -53.502  13.117  1.00  0.00     0.159 HD
HETATM   13  H   UNL     1     -45.565 -52.614  13.076  1.00  0.00     0.159 HD
HETATM   14  O   UNL     1     -45.965 -55.634  13.965  1.00  0.00    -0.266 OA
ENDBRANCH   7  10
ENDBRANCH   1   2
BRANCH   1  15
HETATM   15  C   UNL     1     -41.573 -51.370  12.091  1.00  0.00     0.237 C 
HETATM   16  O   UNL     1     -42.472 -50.904  12.786  1.00  0.00    -0.272 OA
HETATM   17  N   UNL     1     -40.800 -50.606  11.237  1.00  0.00    -0.360 N 
HETATM   18  H   UNL     1     -39.869 -50.965  11.026  1.00  0.00     0.162 HD
BRANCH  17  19
HETATM   19  C   UNL     1     -41.016 -49.183  11.086  1.00  0.00     0.122 C 
BRANCH  19  20
HETATM   20  C   UNL     1     -39.834 -48.371  11.607  1.00  0.00     0.020 C 
BRANCH  20  21
HETATM   21  C   UNL     1     -38.609 -49.264  11.827  1.00  0.00     0.006 C 
BRANCH  21  22
HETATM   22  C   UNL     1     -37.912 -49.045  13.188  1.00  0.00    -0.014 C 
HETATM   23  C   UNL     1     -37.354 -50.373  13.737  1.00  0.00     0.004 C 
HETATM   24  C   UNL     1     -38.446 -51.318  14.240  1.00  0.00     0.000 C 
HETATM   25  C   UNL     1     -39.365 -50.638  15.251  1.00  0.00     0.000 C 
HETATM   26  C   UNL     1     -39.929 -49.323  14.722  1.00  0.00     0.000 C 
HETATM   27  C   UNL     1     -38.812 -48.393  14.251  1.00  0.00     0.004 C 
ENDBRANCH  21  22
ENDBRANCH  20  21
ENDBRANCH  19  20
ENDBRANCH  17  19
ENDBRANCH   1  15
TORSDOF 7
ENDMDL
MODEL 8
REMARK VINA RESULT:      -6.0      5.238      6.156
REMARK  7 active torsions:
REMARK  status: ('A' for Active; 'I' for Inactive)
REMARK       I    between atoms: N_1  and  C_2 
REMARK    1  A    between atoms: C_2  and  C_4 
REMARK    2  A    between atoms: N_9  and  C_10 
REMARK    3  A    between atoms: C_10  and  C_11 
REMARK       I    between atoms: C_11  and  N_13 
REMARK    4  A    between atoms: N_13  and  C_14 
REMARK    5  A    between atoms: C_14  and  C_15 
REMARK    6  A    between atoms: C_15  and  C_16 
REMARK    7  A    between atoms: C_16  and  C_17 
ROOT
HETATM    1  C   UNL     1     -39.115 -52.717  15.936  1.00  0.00     0.255 C 
ENDROOT
BRANCH   1   2
HETATM    2  N   UNL     1     -38.722 -51.528  15.197  1.00  0.00    -0.248 N 
HETATM    3  C   UNL     1     -39.050 -50.280  15.710  1.00  0.00     0.262 C 
HETATM    4  C   UNL     1     -38.653 -49.114  14.892  1.00  0.00     0.078 C 
HETATM    5  O   UNL     1     -39.624 -50.100  16.783  1.00  0.00    -0.267 OA
HETATM    6  C   UNL     1     -38.102 -49.282  13.689  1.00  0.00     0.042 C 
HETATM    7  C   UNL     1     -37.922 -50.671  13.230  1.00  0.00     0.116 C 
HETATM    8  N   UNL     1     -38.206 -51.729  13.929  1.00  0.00    -0.290 N 
ATOM      9  HN  UNL     1     -38.054 -52.667  13.559  1.00  0.00     0.187 HD
BRANCH   7  10
HETATM   10  C   UNL     1     -37.367 -50.868  11.817  1.00  0.00     0.267 C 
HETATM   11  N   UNL     1     -37.713 -49.890  10.927  1.00  0.00    -0.365 N 
HETATM   12  H   UNL     1     -37.416 -49.958   9.965  1.00  0.00     0.159 HD
HETATM   13  H   UNL     1     -38.331 -49.140  11.218  1.00  0.00     0.159 HD
HETATM   14  O   UNL     1     -36.667 -51.825  11.533  1.00  0.00    -0.266 OA
ENDBRANCH   7  10
ENDBRANCH   1   2
BRANCH   1  15
HETATM   15  C   UNL     1     -39.886 -53.687  15.043  1.00  0.00     0.237 C 
HETATM   16  O   UNL     1     -39.331 -54.523  14.333  1.00  0.00    -0.272 OA
HETATM   17  N   UNL     1     -41.259 -53.561  15.135  1.00  0.00    -0.360 N 
HETATM   18  H   UNL     1     -41.618 -53.155  15.999  1.00  0.00     0.162 HD
BRANCH  17  19
HETATM   19  C   UNL     1     -42.152 -54.408  14.373  1.00  0.00     0.122 C 
BRANCH  19  20
HETATM   20  C   UNL     1     -42.604 -53.737  13.078  1.00  0.00     0.020 C 
BRANCH  20  21
HETATM   21  C   UNL     1     -43.711 -52.714  13.347  1.00  0.00     0.006 C 
BRANCH  21  22
HETATM   22  C   UNL     1     -45.113 -53.177  12.895  1.00  0.00    -0.014 C 
HETATM   23  C   UNL     1     -46.085 -51.984  12.816  1.00  0.00     0.004 C 
HETATM   24  C   UNL     1     -46.499 -51.459  14.192  1.00  0.00     0.000 C 
HETATM   25  C   UNL     1     -47.050 -52.569  15.083  1.00  0.00     0.000 C 
HETATM   26  C   UNL     1     -46.098 -53.758  15.173  1.00  0.00     0.000 C 
HETATM   27  C   UNL     1     -45.724 -54.273  13.785  1.00  0.00     0.004 C 
ENDBRANCH  21  22
ENDBRANCH  20  21
ENDBRANCH  19  20
ENDBRANCH  17  19
ENDBRANCH   1  15
TORSDOF 7
ENDMDL
MODEL 9
REMARK VINA RESULT:      -6.0      4.267      7.375
REMARK  7 active torsions:
REMARK  status: ('A' for Active; 'I' for Inactive)
REMARK       I    between atoms: N_1  and  C_2 
REMARK    1  A    between atoms: C_2  and  C_4 
REMARK    2  A    between atoms: N_9  and  C_10 
REMARK    3  A    between atoms: C_10  and  C_11 
REMARK       I    between atoms: C_11  and  N_13 
REMARK    4  A    between atoms: N_13  and  C_14 
REMARK    5  A    between atoms: C_14  and  C_15 
REMARK    6  A    between atoms: C_15  and  C_16 
REMARK    7  A    between atoms: C_16  and  C_17 
ROOT
HETATM    1  C   UNL     1     -40.182 -52.199  15.312  1.00  0.00     0.255 C 
ENDROOT
BRANCH   1   2
HETATM    2  N   UNL     1     -41.229 -53.203  15.222  1.00  0.00    -0.248 N 
HETATM    3  C   UNL     1     -41.180 -54.303  16.069  1.00  0.00     0.262 C 
HETATM    4  C   UNL     1     -42.254 -55.304  15.902  1.00  0.00     0.078 C 
HETATM    5  O   UNL     1     -40.322 -54.473  16.934  1.00  0.00    -0.267 OA
HETATM    6  C   UNL     1     -43.150 -55.184  14.920  1.00  0.00     0.042 C 
HETATM    7  C   UNL     1     -43.003 -54.021  14.026  1.00  0.00     0.116 C 
HETATM    8  N   UNL     1     -42.110 -53.087  14.161  1.00  0.00    -0.290 N 
ATOM      9  HN  UNL     1     -42.061 -52.301  13.513  1.00  0.00     0.187 HD
BRANCH   7  10
HETATM   10  C   UNL     1     -43.978 -53.924  12.849  1.00  0.00     0.267 C 
HETATM   11  N   UNL     1     -43.618 -53.026  11.884  1.00  0.00    -0.365 N 
HETATM   12  H   UNL     1     -44.221 -52.876  11.088  1.00  0.00     0.159 HD
HETATM   13  H   UNL     1     -42.786 -52.460  12.007  1.00  0.00     0.159 HD
HETATM   14  O   UNL     1     -44.986 -54.608  12.797  1.00  0.00    -0.266 OA
ENDBRANCH   7  10
ENDBRANCH   1   2
BRANCH   1  15
HETATM   15  C   UNL     1     -39.215 -52.309  14.135  1.00  0.00     0.237 C 
HETATM   16  O   UNL     1     -39.146 -53.305  13.419  1.00  0.00    -0.272 OA
HETATM   17  N   UNL     1     -38.453 -51.174  13.930  1.00  0.00    -0.360 N 
HETATM   18  H   UNL     1     -38.841 -50.300  14.285  1.00  0.00     0.162 HD
BRANCH  17  19
HETATM   19  C   UNL     1     -37.493 -51.089  12.850  1.00  0.00     0.122 C 
BRANCH  19  20
HETATM   20  C   UNL     1     -37.807 -49.936  11.901  1.00  0.00     0.020 C 
BRANCH  20  21
HETATM   21  C   UNL     1     -39.013 -49.132  12.394  1.00  0.00     0.006 C 
BRANCH  21  22
HETATM   22  C   UNL     1     -40.239 -49.203  11.456  1.00  0.00    -0.014 C 
HETATM   23  C   UNL     1     -40.835 -47.800  11.227  1.00  0.00     0.004 C 
HETATM   24  C   UNL     1     -41.573 -47.258  12.452  1.00  0.00     0.000 C 
HETATM   25  C   UNL     1     -42.627 -48.236  12.961  1.00  0.00     0.000 C 
HETATM   26  C   UNL     1     -42.052 -49.630  13.196  1.00  0.00     0.000 C 
HETATM   27  C   UNL     1     -41.344 -50.153  11.947  1.00  0.00     0.004 C 
ENDBRANCH  21  22
ENDBRANCH  20  21
ENDBRANCH  19  20
ENDBRANCH  17  19
ENDBRANCH   1  15
TORSDOF 7
ENDMDL
