MODEL 1
REMARK VINA RESULT:      -5.7      0.000      0.000
REMARK  5 active torsions:
REMARK  status: ('A' for Active; 'I' for Inactive)
REMARK    1  A    between atoms: O_2  and  C_3 
REMARK    2  A    between atoms: C_9  and  N_10 
REMARK       I    between atoms: N_10  and  C_11 
REMARK    3  A    between atoms: C_11  and  C_13 
REMARK    4  A    between atoms: C_13  and  O_14 
REMARK    5  A    between atoms: O_14  and  C_15 
ROOT
HETATM    1  N   UNL     1     -42.172 -51.938  11.919  1.00  0.00    -0.309 N 
HETATM    2  C   UNL     1     -42.847 -52.303  13.071  1.00  0.00     0.247 C 
HETATM    3  O   UNL     1     -42.844 -51.712  14.152  1.00  0.00    -0.271 OA
HETATM    4  H   UNL     1     -42.276 -52.496  11.084  1.00  0.00     0.170 HD
ENDROOT
BRANCH   1   5
HETATM    5  C   UNL     1     -41.264 -50.861  11.836  1.00  0.00     0.141 A 
HETATM    6  C   UNL     1     -39.938 -51.035  12.271  1.00  0.00     0.112 A 
HETATM    7  C   UNL     1     -39.091 -49.918  12.256  1.00  0.00     0.042 A 
HETATM    8  C   UNL     1     -39.551 -48.703  11.761  1.00  0.00     0.020 A 
HETATM    9  C   UNL     1     -40.851 -48.641  11.309  1.00  0.00     0.090 A 
HETATM   10  N   UNL     1     -41.702 -49.682  11.347  1.00  0.00    -0.350 N 
ATOM     11  HN  UNL     1     -42.661 -49.582  11.013  1.00  0.00     0.166 HD
BRANCH   6  12
HETATM   12  O   UNL     1     -39.531 -52.280  12.688  1.00  0.00    -0.352 OA
HETATM   13  C   UNL     1     -39.122 -52.346  14.057  1.00  0.00     0.210 C 
ENDBRANCH   6  12
ENDBRANCH   1   5
BRANCH   2  14
HETATM   14  C   UNL     1     -43.734 -53.539  12.900  1.00  0.00     0.271 C 
BRANCH  14  15
HETATM   15  O   UNL     1     -44.894 -53.255  12.132  1.00  0.00    -0.377 OA
BRANCH  15  16
HETATM   16  C   UNL     1     -46.036 -52.933  12.915  1.00  0.00     0.122 C 
HETATM   17  C   UNL     1     -46.193 -51.449  13.268  1.00  0.00     0.032 C 
HETATM   18  C   UNL     1     -46.830 -51.410  14.659  1.00  0.00     0.002 C 
HETATM   19  C   UNL     1     -46.915 -52.857  15.131  1.00  0.00     0.002 C 
HETATM   20  C   UNL     1     -45.894 -53.591  14.283  1.00  0.00     0.032 C 
ENDBRANCH  15  16
ENDBRANCH  14  15
ENDBRANCH   2  14
TORSDOF 5
ENDMDL
MODEL 2
REMARK VINA RESULT:      -5.6      1.289      2.285
REMARK  5 active torsions:
REMARK  status: ('A' for Active; 'I' for Inactive)
REMARK    1  A    between atoms: O_2  and  C_3 
REMARK    2  A    between atoms: C_9  and  N_10 
REMARK       I    between atoms: N_10  and  C_11 
REMARK    3  A    between atoms: C_11  and  C_13 
REMARK    4  A    between atoms: C_13  and  O_14 
REMARK    5  A    between atoms: O_14  and  C_15 
ROOT
HETATM    1  N   UNL     1     -42.476 -51.825  12.114  1.00  0.00    -0.309 N 
HETATM    2  C   UNL     1     -42.494 -52.930  12.948  1.00  0.00     0.247 C 
HETATM    3  O   UNL     1     -41.658 -53.230  13.802  1.00  0.00    -0.271 OA
HETATM    4  H   UNL     1     -43.238 -51.677  11.469  1.00  0.00     0.170 HD
ENDROOT
BRANCH   1   5
HETATM    5  C   UNL     1     -41.411 -50.903  12.038  1.00  0.00     0.141 A 
HETATM    6  C   UNL     1     -41.687 -49.525  11.977  1.00  0.00     0.112 A 
HETATM    7  C   UNL     1     -40.607 -48.646  11.813  1.00  0.00     0.042 A 
HETATM    8  C   UNL     1     -39.307 -49.139  11.782  1.00  0.00     0.020 A 
HETATM    9  C   UNL     1     -39.131 -50.501  11.901  1.00  0.00     0.090 A 
HETATM   10  N   UNL     1     -40.147 -51.375  12.017  1.00  0.00    -0.350 N 
ATOM     11  HN  UNL     1     -39.965 -52.377  12.089  1.00  0.00     0.166 HD
BRANCH   6  12
HETATM   12  O   UNL     1     -42.990 -49.102  12.079  1.00  0.00    -0.352 OA
HETATM   13  C   UNL     1     -43.288 -47.906  11.352  1.00  0.00     0.210 C 
ENDBRANCH   6  12
ENDBRANCH   1   5
BRANCH   2  14
HETATM   14  C   UNL     1     -43.748 -53.795  12.798  1.00  0.00     0.271 C 
BRANCH  14  15
HETATM   15  O   UNL     1     -44.746 -53.149  12.023  1.00  0.00    -0.377 OA
BRANCH  15  16
HETATM   16  C   UNL     1     -45.917 -52.815  12.758  1.00  0.00     0.122 C 
HETATM   17  C   UNL     1     -45.984 -51.370  13.267  1.00  0.00     0.032 C 
HETATM   18  C   UNL     1     -46.721 -51.427  14.607  1.00  0.00     0.002 C 
HETATM   19  C   UNL     1     -46.956 -52.904  14.902  1.00  0.00     0.002 C 
HETATM   20  C   UNL     1     -45.933 -53.627  14.048  1.00  0.00     0.032 C 
ENDBRANCH  15  16
ENDBRANCH  14  15
ENDBRANCH   2  14
TORSDOF 5
ENDMDL
MODEL 3
REMARK VINA RESULT:      -5.6      2.883      5.276
REMARK  5 active torsions:
REMARK  status: ('A' for Active; 'I' for Inactive)
REMARK    1  A    between atoms: O_2  and  C_3 
REMARK    2  A    between atoms: C_9  and  N_10 
REMARK       I    between atoms: N_10  and  C_11 
REMARK    3  A    between atoms: C_11  and  C_13 
REMARK    4  A    between atoms: C_13  and  O_14 
REMARK    5  A    between atoms: O_14  and  C_15 
ROOT
HETATM    1  N   UNL     1     -41.876 -50.542  11.778  1.00  0.00    -0.309 N 
HETATM    2  C   UNL     1     -42.494 -49.396  12.250  1.00  0.00     0.247 C 
HETATM    3  O   UNL     1     -43.203 -49.294  13.253  1.00  0.00    -0.271 OA
HETATM    4  H   UNL     1     -41.295 -50.490  10.954  1.00  0.00     0.170 HD
ENDROOT
BRANCH   1   5
HETATM    5  C   UNL     1     -42.057 -51.828  12.329  1.00  0.00     0.141 A 
HETATM    6  C   UNL     1     -40.933 -52.611  12.650  1.00  0.00     0.112 A 
HETATM    7  C   UNL     1     -41.153 -53.916  13.112  1.00  0.00     0.042 A 
HETATM    8  C   UNL     1     -42.452 -54.377  13.303  1.00  0.00     0.020 A 
HETATM    9  C   UNL     1     -43.489 -53.519  13.009  1.00  0.00     0.090 A 
HETATM   10  N   UNL     1     -43.314 -52.276  12.525  1.00  0.00    -0.350 N 
ATOM     11  HN  UNL     1     -44.117 -51.684  12.310  1.00  0.00     0.166 HD
BRANCH   6  12
HETATM   12  O   UNL     1     -39.679 -52.070  12.499  1.00  0.00    -0.352 OA
HETATM   13  C   UNL     1     -39.002 -51.784  13.726  1.00  0.00     0.210 C 
ENDBRANCH   6  12
ENDBRANCH   1   5
BRANCH   2  14
HETATM   14  C   UNL     1     -42.164 -48.140  11.440  1.00  0.00     0.271 C 
BRANCH  14  15
HETATM   15  O   UNL     1     -43.270 -47.252  11.369  1.00  0.00    -0.377 OA
BRANCH  15  16
HETATM   16  C   UNL     1     -43.719 -47.000  10.044  1.00  0.00     0.122 C 
HETATM   17  C   UNL     1     -45.116 -47.539   9.710  1.00  0.00     0.032 C 
HETATM   18  C   UNL     1     -45.070 -47.950   8.237  1.00  0.00     0.002 C 
HETATM   19  C   UNL     1     -43.627 -47.756   7.784  1.00  0.00     0.002 C 
HETATM   20  C   UNL     1     -42.824 -47.759   9.070  1.00  0.00     0.032 C 
ENDBRANCH  15  16
ENDBRANCH  14  15
ENDBRANCH   2  14
TORSDOF 5
ENDMDL
MODEL 4
REMARK VINA RESULT:      -5.6      2.589      3.968
REMARK  5 active torsions:
REMARK  status: ('A' for Active; 'I' for Inactive)
REMARK    1  A    between atoms: O_2  and  C_3 
REMARK    2  A    between atoms: C_9  and  N_10 
REMARK       I    between atoms: N_10  and  C_11 
REMARK    3  A    between atoms: C_11  and  C_13 
REMARK    4  A    between atoms: C_13  and  O_14 
REMARK    5  A    between atoms: O_14  and  C_15 
ROOT
HETATM    1  N   UNL     1     -42.677 -54.491  13.970  1.00  0.00    -0.309 N 
HETATM    2  C   UNL     1     -43.769 -54.957  14.684  1.00  0.00     0.247 C 
HETATM    3  O   UNL     1     -43.790 -55.305  15.866  1.00  0.00    -0.271 OA
HETATM    4  H   UNL     1     -42.796 -54.212  13.007  1.00  0.00     0.170 HD
ENDROOT
BRANCH   1   5
HETATM    5  C   UNL     1     -41.360 -54.445  14.472  1.00  0.00     0.141 A 
HETATM    6  C   UNL     1     -40.317 -53.985  13.648  1.00  0.00     0.112 A 
HETATM    7  C   UNL     1     -39.010 -54.038  14.151  1.00  0.00     0.042 A 
HETATM    8  C   UNL     1     -38.784 -54.473  15.452  1.00  0.00     0.020 A 
HETATM    9  C   UNL     1     -39.873 -54.857  16.203  1.00  0.00     0.090 A 
HETATM   10  N   UNL     1     -41.135 -54.858  15.737  1.00  0.00    -0.350 N 
ATOM     11  HN  UNL     1     -41.908 -55.165  16.329  1.00  0.00     0.166 HD
BRANCH   6  12
HETATM   12  O   UNL     1     -40.620 -53.507  12.395  1.00  0.00    -0.352 OA
HETATM   13  C   UNL     1     -40.662 -52.081  12.295  1.00  0.00     0.210 C 
ENDBRANCH   6  12
ENDBRANCH   1   5
BRANCH   2  14
HETATM   14  C   UNL     1     -45.076 -54.945  13.888  1.00  0.00     0.271 C 
BRANCH  14  15
HETATM   15  O   UNL     1     -46.212 -54.878  14.737  1.00  0.00    -0.377 OA
BRANCH  15  16
HETATM   16  C   UNL     1     -46.893 -53.631  14.689  1.00  0.00     0.122 C 
HETATM   17  C   UNL     1     -46.463 -52.691  13.556  1.00  0.00     0.032 C 
HETATM   18  C   UNL     1     -46.588 -51.272  14.114  1.00  0.00     0.002 C 
HETATM   19  C   UNL     1     -46.966 -51.422  15.583  1.00  0.00     0.002 C 
HETATM   20  C   UNL     1     -46.542 -52.833  15.940  1.00  0.00     0.032 C 
ENDBRANCH  15  16
ENDBRANCH  14  15
ENDBRANCH   2  14
TORSDOF 5
ENDMDL
MODEL 5
REMARK VINA RESULT:      -5.5      3.048      4.796
REMARK  5 active torsions:
REMARK  status: ('A' for Active; 'I' for Inactive)
REMARK    1  A    between atoms: O_2  and  C_3 
REMARK    2  A    between atoms: C_9  and  N_10 
REMARK       I    between atoms: N_10  and  C_11 
REMARK    3  A    between atoms: C_11  and  C_13 
REMARK    4  A    between atoms: C_13  and  O_14 
REMARK    5  A    between atoms: O_14  and  C_15 
ROOT
HETATM    1  N   UNL     1     -41.616 -49.586  11.003  1.00  0.00    -0.309 N 
HETATM    2  C   UNL     1     -41.115 -50.362  12.034  1.00  0.00     0.247 C 
HETATM    3  O   UNL     1     -40.493 -49.970  13.024  1.00  0.00    -0.271 OA
HETATM    4  H   UNL     1     -42.134 -50.026  10.256  1.00  0.00     0.170 HD
ENDROOT
BRANCH   1   5
HETATM    5  C   UNL     1     -41.393 -48.199  10.870  1.00  0.00     0.141 A 
HETATM    6  C   UNL     1     -42.447 -47.361  10.463  1.00  0.00     0.112 A 
HETATM    7  C   UNL     1     -42.163 -46.003  10.257  1.00  0.00     0.042 A 
HETATM    8  C   UNL     1     -40.888 -45.512  10.516  1.00  0.00     0.020 A 
HETATM    9  C   UNL     1     -39.933 -46.400  10.960  1.00  0.00     0.090 A 
HETATM   10  N   UNL     1     -40.160 -47.715  11.129  1.00  0.00    -0.350 N 
ATOM     11  HN  UNL     1     -39.415 -48.335  11.448  1.00  0.00     0.166 HD
BRANCH   6  12
HETATM   12  O   UNL     1     -43.698 -47.901  10.288  1.00  0.00    -0.352 OA
HETATM   13  C   UNL     1     -44.470 -47.291   9.250  1.00  0.00     0.210 C 
ENDBRANCH   6  12
ENDBRANCH   1   5
BRANCH   2  14
HETATM   14  C   UNL     1     -41.464 -51.847  11.914  1.00  0.00     0.271 C 
BRANCH  14  15
HETATM   15  O   UNL     1     -40.354 -52.678  12.217  1.00  0.00    -0.377 OA
BRANCH  15  16
HETATM   16  C   UNL     1     -40.679 -53.798  13.030  1.00  0.00     0.122 C 
HETATM   17  C   UNL     1     -42.178 -54.040  13.245  1.00  0.00     0.032 C 
HETATM   18  C   UNL     1     -42.317 -54.605  14.660  1.00  0.00     0.002 C 
HETATM   19  C   UNL     1     -40.922 -54.564  15.275  1.00  0.00     0.002 C 
HETATM   20  C   UNL     1     -40.174 -53.540  14.445  1.00  0.00     0.032 C 
ENDBRANCH  15  16
ENDBRANCH  14  15
ENDBRANCH   2  14
TORSDOF 5
ENDMDL
MODEL 6
REMARK VINA RESULT:      -5.4      2.859      5.776
REMARK  5 active torsions:
REMARK  status: ('A' for Active; 'I' for Inactive)
REMARK    1  A    between atoms: O_2  and  C_3 
REMARK    2  A    between atoms: C_9  and  N_10 
REMARK       I    between atoms: N_10  and  C_11 
REMARK    3  A    between atoms: C_11  and  C_13 
REMARK    4  A    between atoms: C_13  and  O_14 
REMARK    5  A    between atoms: O_14  and  C_15 
ROOT
HETATM    1  N   UNL     1     -42.052 -50.656  11.754  1.00  0.00    -0.309 N 
HETATM    2  C   UNL     1     -40.958 -49.838  11.523  1.00  0.00     0.247 C 
HETATM    3  O   UNL     1     -39.772 -50.110  11.721  1.00  0.00    -0.271 OA
HETATM    4  H   UNL     1     -42.977 -50.324  11.525  1.00  0.00     0.170 HD
ENDROOT
BRANCH   1   5
HETATM    5  C   UNL     1     -41.981 -51.923  12.371  1.00  0.00     0.141 A 
HETATM    6  C   UNL     1     -43.084 -52.403  13.099  1.00  0.00     0.112 A 
HETATM    7  C   UNL     1     -42.945 -53.625  13.771  1.00  0.00     0.042 A 
HETATM    8  C   UNL     1     -41.766 -54.354  13.652  1.00  0.00     0.020 A 
HETATM    9  C   UNL     1     -40.758 -53.826  12.875  1.00  0.00     0.090 A 
HETATM   10  N   UNL     1     -40.844 -52.638  12.251  1.00  0.00    -0.350 N 
ATOM     11  HN  UNL     1     -40.063 -52.284  11.697  1.00  0.00     0.166 HD
BRANCH   6  12
HETATM   12  O   UNL     1     -44.241 -51.662  13.122  1.00  0.00    -0.352 OA
HETATM   13  C   UNL     1     -45.433 -52.409  12.856  1.00  0.00     0.210 C 
ENDBRANCH   6  12
ENDBRANCH   1   5
BRANCH   2  14
HETATM   14  C   UNL     1     -41.317 -48.494  10.884  1.00  0.00     0.271 C 
BRANCH  14  15
HETATM   15  O   UNL     1     -42.710 -48.230  10.956  1.00  0.00    -0.377 OA
BRANCH  15  16
HETATM   16  C   UNL     1     -43.232 -47.582   9.803  1.00  0.00     0.122 C 
HETATM   17  C   UNL     1     -42.896 -46.091   9.678  1.00  0.00     0.032 C 
HETATM   18  C   UNL     1     -44.107 -45.439   9.007  1.00  0.00     0.002 C 
HETATM   19  C   UNL     1     -45.159 -46.533   8.869  1.00  0.00     0.002 C 
HETATM   20  C   UNL     1     -44.754 -47.578   9.891  1.00  0.00     0.032 C 
ENDBRANCH  15  16
ENDBRANCH  14  15
ENDBRANCH   2  14
TORSDOF 5
ENDMDL
MODEL 7
REMARK VINA RESULT:      -5.4      2.487      3.439
REMARK  5 active torsions:
REMARK  status: ('A' for Active; 'I' for Inactive)
REMARK    1  A    between atoms: O_2  and  C_3 
REMARK    2  A    between atoms: C_9  and  N_10 
REMARK       I    between atoms: N_10  and  C_11 
REMARK    3  A    between atoms: C_11  and  C_13 
REMARK    4  A    between atoms: C_13  and  O_14 
REMARK    5  A    between atoms: O_14  and  C_15 
ROOT
HETATM    1  N   UNL     1     -40.745 -50.450  11.140  1.00  0.00    -0.309 N 
HETATM    2  C   UNL     1     -41.430 -51.203  12.079  1.00  0.00     0.247 C 
HETATM    3  O   UNL     1     -42.336 -50.819  12.821  1.00  0.00    -0.271 OA
HETATM    4  H   UNL     1     -40.036 -50.890  10.572  1.00  0.00     0.170 HD
ENDROOT
BRANCH   1   5
HETATM    5  C   UNL     1     -40.911 -49.060  10.960  1.00  0.00     0.141 A 
HETATM    6  C   UNL     1     -39.941 -48.173  11.463  1.00  0.00     0.112 A 
HETATM    7  C   UNL     1     -40.185 -46.798  11.343  1.00  0.00     0.042 A 
HETATM    8  C   UNL     1     -41.324 -46.349  10.685  1.00  0.00     0.020 A 
HETATM    9  C   UNL     1     -42.192 -47.292  10.180  1.00  0.00     0.090 A 
HETATM   10  N   UNL     1     -42.010 -48.619  10.314  1.00  0.00    -0.350 N 
ATOM     11  HN  UNL     1     -42.690 -49.278   9.934  1.00  0.00     0.166 HD
BRANCH   6  12
HETATM   12  O   UNL     1     -38.807 -48.687  12.044  1.00  0.00    -0.352 OA
HETATM   13  C   UNL     1     -38.704 -48.459  13.453  1.00  0.00     0.210 C 
ENDBRANCH   6  12
ENDBRANCH   1   5
BRANCH   2  14
HETATM   14  C   UNL     1     -41.026 -52.679  12.099  1.00  0.00     0.271 C 
BRANCH  14  15
HETATM   15  O   UNL     1     -40.838 -53.157  13.422  1.00  0.00    -0.377 OA
BRANCH  15  16
HETATM   16  C   UNL     1     -41.649 -54.279  13.748  1.00  0.00     0.122 C 
HETATM   17  C   UNL     1     -43.148 -54.108  13.474  1.00  0.00     0.032 C 
HETATM   18  C   UNL     1     -43.870 -54.898  14.567  1.00  0.00     0.002 C 
HETATM   19  C   UNL     1     -42.789 -55.405  15.514  1.00  0.00     0.002 C 
HETATM   20  C   UNL     1     -41.605 -54.493  15.256  1.00  0.00     0.032 C 
ENDBRANCH  15  16
ENDBRANCH  14  15
ENDBRANCH   2  14
TORSDOF 5
ENDMDL
MODEL 8
REMARK VINA RESULT:      -5.3      1.422      1.570
REMARK  5 active torsions:
REMARK  status: ('A' for Active; 'I' for Inactive)
REMARK    1  A    between atoms: O_2  and  C_3 
REMARK    2  A    between atoms: C_9  and  N_10 
REMARK       I    between atoms: N_10  and  C_11 
REMARK    3  A    between atoms: C_11  and  C_13 
REMARK    4  A    between atoms: C_13  and  O_14 
REMARK    5  A    between atoms: O_14  and  C_15 
ROOT
HETATM    1  N   UNL     1     -42.655 -50.791  12.686  1.00  0.00    -0.309 N 
HETATM    2  C   UNL     1     -42.400 -52.101  12.317  1.00  0.00     0.247 C 
HETATM    3  O   UNL     1     -41.462 -52.510  11.629  1.00  0.00    -0.271 OA
HETATM    4  H   UNL     1     -43.448 -50.587  13.277  1.00  0.00     0.170 HD
ENDROOT
BRANCH   1   5
HETATM    5  C   UNL     1     -41.919 -49.678  12.228  1.00  0.00     0.141 A 
HETATM    6  C   UNL     1     -40.933 -49.109  13.055  1.00  0.00     0.112 A 
HETATM    7  C   UNL     1     -40.285 -47.951  12.602  1.00  0.00     0.042 A 
HETATM    8  C   UNL     1     -40.578 -47.438  11.343  1.00  0.00     0.020 A 
HETATM    9  C   UNL     1     -41.522 -48.093  10.583  1.00  0.00     0.090 A 
HETATM   10  N   UNL     1     -42.192 -49.181  11.004  1.00  0.00    -0.350 N 
ATOM     11  HN  UNL     1     -42.893 -49.623  10.408  1.00  0.00     0.166 HD
BRANCH   6  12
HETATM   12  O   UNL     1     -40.648 -49.706  14.259  1.00  0.00    -0.352 OA
HETATM   13  C   UNL     1     -39.402 -50.408  14.297  1.00  0.00     0.210 C 
ENDBRANCH   6  12
ENDBRANCH   1   5
BRANCH   2  14
HETATM   14  C   UNL     1     -43.379 -53.113  12.918  1.00  0.00     0.271 C 
BRANCH  14  15
HETATM   15  O   UNL     1     -44.543 -53.260  12.118  1.00  0.00    -0.377 OA
BRANCH  15  16
HETATM   16  C   UNL     1     -45.755 -52.995  12.814  1.00  0.00     0.122 C 
HETATM   17  C   UNL     1     -46.083 -51.511  13.019  1.00  0.00     0.032 C 
HETATM   18  C   UNL     1     -46.797 -51.418  14.369  1.00  0.00     0.002 C 
HETATM   19  C   UNL     1     -46.760 -52.819  14.969  1.00  0.00     0.002 C 
HETATM   20  C   UNL     1     -45.623 -53.511  14.242  1.00  0.00     0.032 C 
ENDBRANCH  15  16
ENDBRANCH  14  15
ENDBRANCH   2  14
TORSDOF 5
ENDMDL
MODEL 9
REMARK VINA RESULT:      -5.3      2.337      6.038
REMARK  5 active torsions:
REMARK  status: ('A' for Active; 'I' for Inactive)
REMARK    1  A    between atoms: O_2  and  C_3 
REMARK    2  A    between atoms: C_9  and  N_10 
REMARK       I    between atoms: N_10  and  C_11 
REMARK    3  A    between atoms: C_11  and  C_13 
REMARK    4  A    between atoms: C_13  and  O_14 
REMARK    5  A    between atoms: O_14  and  C_15 
ROOT
HETATM    1  N   UNL     1     -41.287 -51.556  11.779  1.00  0.00    -0.309 N 
HETATM    2  C   UNL     1     -41.525 -50.193  11.835  1.00  0.00     0.247 C 
HETATM    3  O   UNL     1     -42.391 -49.618  12.496  1.00  0.00    -0.271 OA
HETATM    4  H   UNL     1     -40.525 -51.904  11.215  1.00  0.00     0.170 HD
ENDROOT
BRANCH   1   5
HETATM    5  C   UNL     1     -42.091 -52.531  12.406  1.00  0.00     0.141 A 
HETATM    6  C   UNL     1     -41.549 -53.326  13.431  1.00  0.00     0.112 A 
HETATM    7  C   UNL     1     -42.351 -54.342  13.968  1.00  0.00     0.042 A 
HETATM    8  C   UNL     1     -43.661 -54.498  13.530  1.00  0.00     0.020 A 
HETATM    9  C   UNL     1     -44.122 -53.639  12.557  1.00  0.00     0.090 A 
HETATM   10  N   UNL     1     -43.367 -52.680  11.991  1.00  0.00    -0.350 N 
ATOM     11  HN  UNL     1     -43.751 -52.077  11.263  1.00  0.00     0.166 HD
BRANCH   6  12
HETATM   12  O   UNL     1     -40.268 -53.075  13.861  1.00  0.00    -0.352 OA
HETATM   13  C   UNL     1     -39.451 -54.240  14.014  1.00  0.00     0.210 C 
ENDBRANCH   6  12
ENDBRANCH   1   5
BRANCH   2  14
HETATM   14  C   UNL     1     -40.529 -49.359  11.026  1.00  0.00     0.271 C 
BRANCH  14  15
HETATM   15  O   UNL     1     -39.829 -48.433  11.843  1.00  0.00    -0.377 OA
BRANCH  15  16
HETATM   16  C   UNL     1     -38.581 -48.918  12.322  1.00  0.00     0.122 C 
HETATM   17  C   UNL     1     -37.955 -50.050  11.497  1.00  0.00     0.032 C 
HETATM   18  C   UNL     1     -37.223 -50.947  12.497  1.00  0.00     0.002 C 
HETATM   19  C   UNL     1     -37.538 -50.391  13.881  1.00  0.00     0.002 C 
HETATM   20  C   UNL     1     -38.800 -49.574  13.681  1.00  0.00     0.032 C 
ENDBRANCH  15  16
ENDBRANCH  14  15
ENDBRANCH   2  14
TORSDOF 5
ENDMDL
