MODEL 1
REMARK VINA RESULT:      -6.0      0.000      0.000
REMARK  5 active torsions:
REMARK  status: ('A' for Active; 'I' for Inactive)
REMARK    1  A    between atoms: C_2  and  O_3 
REMARK    2  A    between atoms: O_3  and  C_4 
REMARK    3  A    between atoms: C_10  and  N_11 
REMARK       I    between atoms: N_11  and  C_12 
REMARK       I    between atoms: C_12  and  N_14 
REMARK    4  A    between atoms: N_14  and  C_15 
REMARK    5  A    between atoms: C_15  and  C_16 
ROOT
HETATM    1  N   UNL     1     -40.651 -49.514  10.501  1.00  0.00    -0.305 N 
HETATM    2  C   UNL     1     -41.494 -48.438  10.628  1.00  0.00     0.320 C 
HETATM    3  O   UNL     1     -41.593 -47.719  11.616  1.00  0.00    -0.247 OA
HETATM    4  N   UNL     1     -42.268 -48.217   9.505  1.00  0.00    -0.342 N 
HETATM    5  H   UNL     1     -40.538 -49.941   9.591  1.00  0.00     0.171 HD
HETATM    6  H   UNL     1     -41.893 -48.541   8.628  1.00  0.00     0.164 HD
ENDROOT
BRANCH   1   7
HETATM    7  C   UNL     1     -39.813 -50.037  11.521  1.00  0.00     0.087 A 
HETATM    8  C   UNL     1     -40.226 -51.157  12.255  1.00  0.00     0.169 A 
HETATM    9  N   UNL     1     -39.511 -51.706  13.272  1.00  0.00    -0.345 N 
HETATM   10  C   UNL     1     -38.326 -51.135  13.557  1.00  0.00     0.090 A 
ATOM     11  HN  UNL     1     -39.857 -52.511  13.794  1.00  0.00     0.167 HD
HETATM   12  C   UNL     1     -37.819 -50.037  12.887  1.00  0.00     0.019 A 
HETATM   13  C   UNL     1     -38.581 -49.480  11.862  1.00  0.00     0.035 A 
BRANCH   8  14
HETATM   14  O   UNL     1     -41.414 -51.756  11.864  1.00  0.00    -0.334 OA
BRANCH  14  15
HETATM   15  C   UNL     1     -42.333 -51.965  12.940  1.00  0.00     0.173 C 
HETATM   16  C   UNL     1     -43.070 -50.659  13.184  1.00  0.00     0.034 C 
ENDBRANCH  14  15
ENDBRANCH   8  14
ENDBRANCH   1   7
BRANCH   4  17
HETATM   17  C   UNL     1     -43.090 -47.021   9.507  1.00  0.00     0.131 C 
BRANCH  17  18
HETATM   18  C   UNL     1     -44.372 -47.138   8.702  1.00  0.00     0.029 C 
HETATM   19  C   UNL     1     -45.576 -47.589   9.505  1.00  0.00     0.034 C 
HETATM   20  C   UNL     1     -46.388 -48.423   8.530  1.00  0.00     0.168 C 
HETATM   21  O   UNL     1     -45.613 -48.579   7.336  1.00  0.00    -0.391 OA
HETATM   22  C   UNL     1     -44.264 -48.224   7.647  1.00  0.00     0.173 C 
ENDBRANCH  17  18
ENDBRANCH   4  17
TORSDOF 5
ENDMDL
MODEL 2
REMARK VINA RESULT:      -5.9      1.386      2.735
REMARK  5 active torsions:
REMARK  status: ('A' for Active; 'I' for Inactive)
REMARK    1  A    between atoms: C_2  and  O_3 
REMARK    2  A    between atoms: O_3  and  C_4 
REMARK    3  A    between atoms: C_10  and  N_11 
REMARK       I    between atoms: N_11  and  C_12 
REMARK       I    between atoms: C_12  and  N_14 
REMARK    4  A    between atoms: N_14  and  C_15 
REMARK    5  A    between atoms: C_15  and  C_16 
ROOT
HETATM    1  N   UNL     1     -40.822 -50.331  11.005  1.00  0.00    -0.305 N 
HETATM    2  C   UNL     1     -41.593 -49.202  11.130  1.00  0.00     0.320 C 
HETATM    3  O   UNL     1     -42.264 -48.897  12.110  1.00  0.00    -0.247 OA
HETATM    4  N   UNL     1     -41.561 -48.394  10.008  1.00  0.00    -0.342 N 
HETATM    5  H   UNL     1     -40.190 -50.406  10.219  1.00  0.00     0.171 HD
HETATM    6  H   UNL     1     -40.737 -48.456   9.432  1.00  0.00     0.164 HD
ENDROOT
BRANCH   1   7
HETATM    7  C   UNL     1     -40.738 -51.387  11.950  1.00  0.00     0.087 A 
HETATM    8  C   UNL     1     -39.664 -51.433  12.849  1.00  0.00     0.169 A 
HETATM    9  N   UNL     1     -39.478 -52.421  13.762  1.00  0.00    -0.345 N 
HETATM   10  C   UNL     1     -40.409 -53.393  13.802  1.00  0.00     0.090 A 
ATOM     11  HN  UNL     1     -38.672 -52.426  14.387  1.00  0.00     0.167 HD
HETATM   12  C   UNL     1     -41.512 -53.437  12.970  1.00  0.00     0.019 A 
HETATM   13  C   UNL     1     -41.669 -52.423  12.028  1.00  0.00     0.035 A 
BRANCH   8  14
HETATM   14  O   UNL     1     -38.782 -50.363  12.822  1.00  0.00    -0.334 OA
BRANCH  14  15
HETATM   15  C   UNL     1     -37.477 -50.707  12.348  1.00  0.00     0.173 C 
HETATM   16  C   UNL     1     -37.255 -49.989  11.028  1.00  0.00     0.034 C 
ENDBRANCH  14  15
ENDBRANCH   8  14
ENDBRANCH   1   7
BRANCH   4  17
HETATM   17  C   UNL     1     -42.243 -47.117  10.109  1.00  0.00     0.131 C 
BRANCH  17  18
HETATM   18  C   UNL     1     -43.468 -46.988   9.221  1.00  0.00     0.029 C 
HETATM   19  C   UNL     1     -44.765 -47.417   9.879  1.00  0.00     0.034 C 
HETATM   20  C   UNL     1     -45.579 -48.020   8.748  1.00  0.00     0.168 C 
HETATM   21  O   UNL     1     -44.739 -48.090   7.592  1.00  0.00    -0.391 OA
HETATM   22  C   UNL     1     -43.388 -47.924   8.029  1.00  0.00     0.173 C 
ENDBRANCH  17  18
ENDBRANCH   4  17
TORSDOF 5
ENDMDL
MODEL 3
REMARK VINA RESULT:      -5.8      3.186      5.221
REMARK  5 active torsions:
REMARK  status: ('A' for Active; 'I' for Inactive)
REMARK    1  A    between atoms: C_2  and  O_3 
REMARK    2  A    between atoms: O_3  and  C_4 
REMARK    3  A    between atoms: C_10  and  N_11 
REMARK       I    between atoms: N_11  and  C_12 
REMARK       I    between atoms: C_12  and  N_14 
REMARK    4  A    between atoms: N_14  and  C_15 
REMARK    5  A    between atoms: C_15  and  C_16 
ROOT
HETATM    1  N   UNL     1     -42.867 -52.512  12.146  1.00  0.00    -0.305 N 
HETATM    2  C   UNL     1     -42.424 -51.275  12.540  1.00  0.00     0.320 C 
HETATM    3  O   UNL     1     -42.531 -50.800  13.666  1.00  0.00    -0.247 OA
HETATM    4  N   UNL     1     -41.824 -50.561  11.520  1.00  0.00    -0.342 N 
HETATM    5  H   UNL     1     -42.590 -52.864  11.239  1.00  0.00     0.171 HD
HETATM    6  H   UNL     1     -41.409 -51.100  10.776  1.00  0.00     0.164 HD
ENDROOT
BRANCH   1   7
HETATM    7  C   UNL     1     -43.605 -53.424  12.946  1.00  0.00     0.087 A 
HETATM    8  C   UNL     1     -44.998 -53.501  12.810  1.00  0.00     0.169 A 
HETATM    9  N   UNL     1     -45.791 -54.312  13.556  1.00  0.00    -0.345 N 
HETATM   10  C   UNL     1     -45.176 -55.100  14.458  1.00  0.00     0.090 A 
ATOM     11  HN  UNL     1     -46.804 -54.325  13.438  1.00  0.00     0.167 HD
HETATM   12  C   UNL     1     -43.809 -55.112  14.664  1.00  0.00     0.019 A 
HETATM   13  C   UNL     1     -43.019 -54.255  13.902  1.00  0.00     0.035 A 
BRANCH   8  14
HETATM   14  O   UNL     1     -45.570 -52.731  11.809  1.00  0.00    -0.334 OA
BRANCH  14  15
HETATM   15  C   UNL     1     -46.619 -51.875  12.271  1.00  0.00     0.173 C 
HETATM   16  C   UNL     1     -47.492 -51.521  11.080  1.00  0.00     0.034 C 
ENDBRANCH  14  15
ENDBRANCH   8  14
ENDBRANCH   1   7
BRANCH   4  17
HETATM   17  C   UNL     1     -41.210 -49.297  11.884  1.00  0.00     0.131 C 
BRANCH  17  18
HETATM   18  C   UNL     1     -41.238 -48.247  10.788  1.00  0.00     0.029 C 
HETATM   19  C   UNL     1     -40.545 -46.948  11.150  1.00  0.00     0.034 C 
HETATM   20  C   UNL     1     -41.356 -45.878  10.440  1.00  0.00     0.168 C 
HETATM   21  O   UNL     1     -42.513 -46.507   9.878  1.00  0.00    -0.391 OA
HETATM   22  C   UNL     1     -42.655 -47.786  10.500  1.00  0.00     0.173 C 
ENDBRANCH  17  18
ENDBRANCH   4  17
TORSDOF 5
ENDMDL
MODEL 4
REMARK VINA RESULT:      -5.7      2.157      3.729
REMARK  5 active torsions:
REMARK  status: ('A' for Active; 'I' for Inactive)
REMARK    1  A    between atoms: C_2  and  O_3 
REMARK    2  A    between atoms: O_3  and  C_4 
REMARK    3  A    between atoms: C_10  and  N_11 
REMARK       I    between atoms: N_11  and  C_12 
REMARK       I    between atoms: C_12  and  N_14 
REMARK    4  A    between atoms: N_14  and  C_15 
REMARK    5  A    between atoms: C_15  and  C_16 
ROOT
HETATM    1  N   UNL     1     -41.345 -51.386  11.431  1.00  0.00    -0.305 N 
HETATM    2  C   UNL     1     -41.378 -50.042  11.707  1.00  0.00     0.320 C 
HETATM    3  O   UNL     1     -41.642 -49.540  12.794  1.00  0.00    -0.247 OA
HETATM    4  N   UNL     1     -41.084 -49.254  10.611  1.00  0.00    -0.342 N 
HETATM    5  H   UNL     1     -40.966 -51.694  10.546  1.00  0.00     0.171 HD
HETATM    6  H   UNL     1     -40.507 -49.672   9.897  1.00  0.00     0.164 HD
ENDROOT
BRANCH   1   7
HETATM    7  C   UNL     1     -41.698 -52.427  12.330  1.00  0.00     0.087 A 
HETATM    8  C   UNL     1     -40.697 -53.104  13.041  1.00  0.00     0.169 A 
HETATM    9  N   UNL     1     -40.933 -54.135  13.892  1.00  0.00    -0.345 N 
HETATM   10  C   UNL     1     -42.218 -54.496  14.067  1.00  0.00     0.090 A 
ATOM     11  HN  UNL     1     -40.172 -54.613  14.376  1.00  0.00     0.167 HD
HETATM   12  C   UNL     1     -43.282 -53.887  13.427  1.00  0.00     0.019 A 
HETATM   13  C   UNL     1     -43.012 -52.846  12.542  1.00  0.00     0.035 A 
BRANCH   8  14
HETATM   14  O   UNL     1     -39.400 -52.637  12.888  1.00  0.00    -0.334 OA
BRANCH  14  15
HETATM   15  C   UNL     1     -38.913 -51.914  14.023  1.00  0.00     0.173 C 
HETATM   16  C   UNL     1     -37.992 -50.816  13.517  1.00  0.00     0.034 C 
ENDBRANCH  14  15
ENDBRANCH   8  14
ENDBRANCH   1   7
BRANCH   4  17
HETATM   17  C   UNL     1     -40.967 -47.827  10.849  1.00  0.00     0.131 C 
BRANCH  17  18
HETATM   18  C   UNL     1     -42.239 -47.041  10.586  1.00  0.00     0.029 C 
HETATM   19  C   UNL     1     -43.015 -47.497   9.365  1.00  0.00     0.034 C 
HETATM   20  C   UNL     1     -43.625 -46.222   8.809  1.00  0.00     0.168 C 
HETATM   21  O   UNL     1     -43.088 -45.120   9.549  1.00  0.00    -0.391 OA
HETATM   22  C   UNL     1     -41.935 -45.592  10.251  1.00  0.00     0.173 C 
ENDBRANCH  17  18
ENDBRANCH   4  17
TORSDOF 5
ENDMDL
MODEL 5
REMARK VINA RESULT:      -5.6      2.034      6.055
REMARK  5 active torsions:
REMARK  status: ('A' for Active; 'I' for Inactive)
REMARK    1  A    between atoms: C_2  and  O_3 
REMARK    2  A    between atoms: O_3  and  C_4 
REMARK    3  A    between atoms: C_10  and  N_11 
REMARK       I    between atoms: N_11  and  C_12 
REMARK       I    between atoms: C_12  and  N_14 
REMARK    4  A    between atoms: N_14  and  C_15 
REMARK    5  A    between atoms: C_15  and  C_16 
ROOT
HETATM    1  N   UNL     1     -41.136 -48.385  10.513  1.00  0.00    -0.305 N 
HETATM    2  C   UNL     1     -40.840 -49.240  11.545  1.00  0.00     0.320 C 
HETATM    3  O   UNL     1     -40.913 -48.973  12.740  1.00  0.00    -0.247 OA
HETATM    4  N   UNL     1     -40.423 -50.486  11.117  1.00  0.00    -0.342 N 
HETATM    5  H   UNL     1     -41.190 -48.755   9.573  1.00  0.00     0.171 HD
HETATM    6  H   UNL     1     -40.750 -50.784  10.212  1.00  0.00     0.164 HD
ENDROOT
BRANCH   1   7
HETATM    7  C   UNL     1     -41.492 -47.017  10.644  1.00  0.00     0.087 A 
HETATM    8  C   UNL     1     -42.811 -46.613  10.397  1.00  0.00     0.169 A 
HETATM    9  N   UNL     1     -43.237 -45.325  10.460  1.00  0.00    -0.345 N 
HETATM   10  C   UNL     1     -42.322 -44.400  10.807  1.00  0.00     0.090 A 
ATOM     11  HN  UNL     1     -44.203 -45.071  10.254  1.00  0.00     0.167 HD
HETATM   12  C   UNL     1     -41.000 -44.692  11.084  1.00  0.00     0.019 A 
HETATM   13  C   UNL     1     -40.582 -46.017  10.992  1.00  0.00     0.035 A 
BRANCH   8  14
HETATM   14  O   UNL     1     -43.730 -47.616  10.127  1.00  0.00    -0.334 OA
BRANCH  14  15
HETATM   15  C   UNL     1     -44.460 -47.414   8.913  1.00  0.00     0.173 C 
HETATM   16  C   UNL     1     -43.572 -47.840   7.757  1.00  0.00     0.034 C 
ENDBRANCH  14  15
ENDBRANCH   8  14
ENDBRANCH   1   7
BRANCH   4  17
HETATM   17  C   UNL     1     -40.218 -51.491  12.145  1.00  0.00     0.131 C 
BRANCH  17  18
HETATM   18  C   UNL     1     -41.178 -52.665  12.075  1.00  0.00     0.029 C 
HETATM   19  C   UNL     1     -42.609 -52.325  12.445  1.00  0.00     0.034 C 
HETATM   20  C   UNL     1     -43.129 -53.579  13.126  1.00  0.00     0.168 C 
HETATM   21  O   UNL     1     -42.028 -54.479  13.288  1.00  0.00    -0.391 OA
HETATM   22  C   UNL     1     -40.825 -53.729  13.099  1.00  0.00     0.173 C 
ENDBRANCH  17  18
ENDBRANCH   4  17
TORSDOF 5
ENDMDL
MODEL 6
REMARK VINA RESULT:      -5.6      2.394      5.975
REMARK  5 active torsions:
REMARK  status: ('A' for Active; 'I' for Inactive)
REMARK    1  A    between atoms: C_2  and  O_3 
REMARK    2  A    between atoms: O_3  and  C_4 
REMARK    3  A    between atoms: C_10  and  N_11 
REMARK       I    between atoms: N_11  and  C_12 
REMARK       I    between atoms: C_12  and  N_14 
REMARK    4  A    between atoms: N_14  and  C_15 
REMARK    5  A    between atoms: C_15  and  C_16 
ROOT
HETATM    1  N   UNL     1     -42.196 -49.223  11.092  1.00  0.00    -0.305 N 
HETATM    2  C   UNL     1     -42.073 -49.979  12.230  1.00  0.00     0.320 C 
HETATM    3  O   UNL     1     -41.907 -49.545  13.365  1.00  0.00    -0.247 OA
HETATM    4  N   UNL     1     -42.146 -51.339  11.991  1.00  0.00    -0.342 N 
HETATM    5  H   UNL     1     -42.484 -49.674  10.234  1.00  0.00     0.171 HD
HETATM    6  H   UNL     1     -42.661 -51.625  11.174  1.00  0.00     0.164 HD
ENDROOT
BRANCH   1   7
HETATM    7  C   UNL     1     -42.063 -47.811  11.015  1.00  0.00     0.087 A 
HETATM    8  C   UNL     1     -43.150 -47.030  10.599  1.00  0.00     0.169 A 
HETATM    9  N   UNL     1     -43.108 -45.680  10.459  1.00  0.00    -0.345 N 
HETATM   10  C   UNL     1     -41.946 -45.074  10.767  1.00  0.00     0.090 A 
ATOM     11  HN  UNL     1     -43.917 -45.151  10.135  1.00  0.00     0.167 HD
HETATM   12  C   UNL     1     -40.818 -45.747  11.199  1.00  0.00     0.019 A 
HETATM   13  C   UNL     1     -40.880 -47.134  11.314  1.00  0.00     0.035 A 
BRANCH   8  14
HETATM   14  O   UNL     1     -44.347 -47.696  10.376  1.00  0.00    -0.334 OA
BRANCH  14  15
HETATM   15  C   UNL     1     -45.008 -47.298   9.172  1.00  0.00     0.173 C 
HETATM   16  C   UNL     1     -46.308 -48.079   9.073  1.00  0.00     0.034 C 
ENDBRANCH  14  15
ENDBRANCH   8  14
ENDBRANCH   1   7
BRANCH   4  17
HETATM   17  C   UNL     1     -42.157 -52.204  13.156  1.00  0.00     0.131 C 
BRANCH  17  18
HETATM   18  C   UNL     1     -43.528 -52.742  13.524  1.00  0.00     0.029 C 
HETATM   19  C   UNL     1     -43.501 -53.935  14.460  1.00  0.00     0.034 C 
HETATM   20  C   UNL     1     -44.688 -54.778  14.030  1.00  0.00     0.168 C 
HETATM   21  O   UNL     1     -45.227 -54.200  12.836  1.00  0.00    -0.391 OA
HETATM   22  C   UNL     1     -44.246 -53.303  12.310  1.00  0.00     0.173 C 
ENDBRANCH  17  18
ENDBRANCH   4  17
TORSDOF 5
ENDMDL
MODEL 7
REMARK VINA RESULT:      -5.5      2.712      4.127
REMARK  5 active torsions:
REMARK  status: ('A' for Active; 'I' for Inactive)
REMARK    1  A    between atoms: C_2  and  O_3 
REMARK    2  A    between atoms: O_3  and  C_4 
REMARK    3  A    between atoms: C_10  and  N_11 
REMARK       I    between atoms: N_11  and  C_12 
REMARK       I    between atoms: C_12  and  N_14 
REMARK    4  A    between atoms: N_14  and  C_15 
REMARK    5  A    between atoms: C_15  and  C_16 
ROOT
HETATM    1  N   UNL     1     -40.884 -50.916  11.457  1.00  0.00    -0.305 N 
HETATM    2  C   UNL     1     -41.579 -49.775  11.768  1.00  0.00     0.320 C 
HETATM    3  O   UNL     1     -41.952 -49.446  12.890  1.00  0.00    -0.247 OA
HETATM    4  N   UNL     1     -41.852 -48.985  10.667  1.00  0.00    -0.342 N 
HETATM    5  H   UNL     1     -40.494 -51.012  10.528  1.00  0.00     0.171 HD
HETATM    6  H   UNL     1     -41.220 -49.067   9.887  1.00  0.00     0.164 HD
ENDROOT
BRANCH   1   7
HETATM    7  C   UNL     1     -40.551 -51.959  12.361  1.00  0.00     0.087 A 
HETATM    8  C   UNL     1     -39.407 -51.848  13.162  1.00  0.00     0.169 A 
HETATM    9  N   UNL     1     -38.988 -52.808  14.027  1.00  0.00    -0.345 N 
HETATM   10  C   UNL     1     -39.749 -53.914  14.121  1.00  0.00     0.090 A 
ATOM     11  HN  UNL     1     -38.137 -52.695  14.578  1.00  0.00     0.167 HD
HETATM   12  C   UNL     1     -40.903 -54.119  13.388  1.00  0.00     0.019 A 
HETATM   13  C   UNL     1     -41.300 -53.129  12.492  1.00  0.00     0.035 A 
BRANCH   8  14
HETATM   14  O   UNL     1     -38.706 -50.653  13.087  1.00  0.00    -0.334 OA
BRANCH  14  15
HETATM   15  C   UNL     1     -37.404 -50.787  12.510  1.00  0.00     0.173 C 
HETATM   16  C   UNL     1     -37.380 -49.983  11.222  1.00  0.00     0.034 C 
ENDBRANCH  14  15
ENDBRANCH   8  14
ENDBRANCH   1   7
BRANCH   4  17
HETATM   17  C   UNL     1     -42.467 -47.697  10.928  1.00  0.00     0.131 C 
BRANCH  17  18
HETATM   18  C   UNL     1     -41.722 -46.514  10.335  1.00  0.00     0.029 C 
HETATM   19  C   UNL     1     -40.315 -46.329  10.870  1.00  0.00     0.034 C 
HETATM   20  C   UNL     1     -40.112 -44.825  10.882  1.00  0.00     0.168 C 
HETATM   21  O   UNL     1     -41.363 -44.210  10.555  1.00  0.00    -0.391 OA
HETATM   22  C   UNL     1     -42.383 -45.200  10.710  1.00  0.00     0.173 C 
ENDBRANCH  17  18
ENDBRANCH   4  17
TORSDOF 5
ENDMDL
MODEL 8
REMARK VINA RESULT:      -5.5      2.525      3.620
REMARK  5 active torsions:
REMARK  status: ('A' for Active; 'I' for Inactive)
REMARK    1  A    between atoms: C_2  and  O_3 
REMARK    2  A    between atoms: O_3  and  C_4 
REMARK    3  A    between atoms: C_10  and  N_11 
REMARK       I    between atoms: N_11  and  C_12 
REMARK       I    between atoms: C_12  and  N_14 
REMARK    4  A    between atoms: N_14  and  C_15 
REMARK    5  A    between atoms: C_15  and  C_16 
ROOT
HETATM    1  N   UNL     1     -41.978 -51.436  11.760  1.00  0.00    -0.305 N 
HETATM    2  C   UNL     1     -41.911 -50.109  12.103  1.00  0.00     0.320 C 
HETATM    3  O   UNL     1     -41.820 -49.667  13.244  1.00  0.00    -0.247 OA
HETATM    4  N   UNL     1     -41.963 -49.261  11.013  1.00  0.00    -0.342 N 
HETATM    5  H   UNL     1     -41.895 -51.693  10.785  1.00  0.00     0.171 HD
HETATM    6  H   UNL     1     -41.640 -49.635  10.135  1.00  0.00     0.164 HD
ENDROOT
BRANCH   1   7
HETATM    7  C   UNL     1     -42.045 -52.525  12.668  1.00  0.00     0.087 A 
HETATM    8  C   UNL     1     -43.293 -53.021  13.071  1.00  0.00     0.169 A 
HETATM    9  N   UNL     1     -43.458 -54.033  13.961  1.00  0.00    -0.345 N 
HETATM   10  C   UNL     1     -42.339 -54.595  14.455  1.00  0.00     0.090 A 
ATOM     11  HN  UNL     1     -44.386 -54.351  14.242  1.00  0.00     0.167 HD
HETATM   12  C   UNL     1     -41.061 -54.192  14.115  1.00  0.00     0.019 A 
HETATM   13  C   UNL     1     -40.918 -53.138  13.216  1.00  0.00     0.035 A 
BRANCH   8  14
HETATM   14  O   UNL     1     -44.410 -52.462  12.467  1.00  0.00    -0.334 OA
BRANCH  14  15
HETATM   15  C   UNL     1     -45.645 -52.845  13.081  1.00  0.00     0.173 C 
HETATM   16  C   UNL     1     -46.448 -51.582  13.339  1.00  0.00     0.034 C 
ENDBRANCH  14  15
ENDBRANCH   8  14
ENDBRANCH   1   7
BRANCH   4  17
HETATM   17  C   UNL     1     -41.764 -47.848  11.278  1.00  0.00     0.131 C 
BRANCH  17  18
HETATM   18  C   UNL     1     -42.882 -46.952  10.776  1.00  0.00     0.029 C 
HETATM   19  C   UNL     1     -43.577 -47.459   9.527  1.00  0.00     0.034 C 
HETATM   20  C   UNL     1     -43.945 -46.199   8.764  1.00  0.00     0.168 C 
HETATM   21  O   UNL     1     -43.346 -45.087   9.437  1.00  0.00    -0.391 OA
HETATM   22  C   UNL     1     -42.350 -45.604  10.323  1.00  0.00     0.173 C 
ENDBRANCH  17  18
ENDBRANCH   4  17
TORSDOF 5
ENDMDL
MODEL 9
REMARK VINA RESULT:      -5.5      2.772      5.119
REMARK  5 active torsions:
REMARK  status: ('A' for Active; 'I' for Inactive)
REMARK    1  A    between atoms: C_2  and  O_3 
REMARK    2  A    between atoms: O_3  and  C_4 
REMARK    3  A    between atoms: C_10  and  N_11 
REMARK       I    between atoms: N_11  and  C_12 
REMARK       I    between atoms: C_12  and  N_14 
REMARK    4  A    between atoms: N_14  and  C_15 
REMARK    5  A    between atoms: C_15  and  C_16 
ROOT
HETATM    1  N   UNL     1     -41.710 -51.455  11.571  1.00  0.00    -0.305 N 
HETATM    2  C   UNL     1     -42.344 -52.260  12.483  1.00  0.00     0.320 C 
HETATM    3  O   UNL     1     -42.035 -52.389  13.663  1.00  0.00    -0.247 OA
HETATM    4  N   UNL     1     -43.408 -52.960  11.946  1.00  0.00    -0.342 N 
HETATM    5  H   UNL     1     -42.141 -51.306  10.668  1.00  0.00     0.171 HD
HETATM    6  H   UNL     1     -43.860 -52.547  11.145  1.00  0.00     0.164 HD
ENDROOT
BRANCH   1   7
HETATM    7  C   UNL     1     -40.532 -50.698  11.809  1.00  0.00     0.087 A 
HETATM    8  C   UNL     1     -40.438 -49.385  11.329  1.00  0.00     0.169 A 
HETATM    9  N   UNL     1     -39.341 -48.599  11.474  1.00  0.00    -0.345 N 
HETATM   10  C   UNL     1     -38.300 -49.127  12.145  1.00  0.00     0.090 A 
ATOM     11  HN  UNL     1     -39.307 -47.653  11.093  1.00  0.00     0.167 HD
HETATM   12  C   UNL     1     -38.293 -50.406  12.670  1.00  0.00     0.019 A 
HETATM   13  C   UNL     1     -39.422 -51.200  12.490  1.00  0.00     0.035 A 
BRANCH   8  14
HETATM   14  O   UNL     1     -41.569 -48.861  10.720  1.00  0.00    -0.334 OA
BRANCH  14  15
HETATM   15  C   UNL     1     -42.215 -47.842  11.489  1.00  0.00     0.173 C 
HETATM   16  C   UNL     1     -43.584 -47.593  10.879  1.00  0.00     0.034 C 
ENDBRANCH  14  15
ENDBRANCH   8  14
ENDBRANCH   1   7
BRANCH   4  17
HETATM   17  C   UNL     1     -44.213 -53.732  12.873  1.00  0.00     0.131 C 
BRANCH  17  18
HETATM   18  C   UNL     1     -45.597 -53.162  13.128  1.00  0.00     0.029 C 
HETATM   19  C   UNL     1     -45.624 -51.663  13.354  1.00  0.00     0.034 C 
HETATM   20  C   UNL     1     -46.743 -51.453  14.359  1.00  0.00     0.168 C 
HETATM   21  O   UNL     1     -47.184 -52.743  14.799  1.00  0.00    -0.391 OA
HETATM   22  C   UNL     1     -46.183 -53.693  14.424  1.00  0.00     0.173 C 
ENDBRANCH  17  18
ENDBRANCH   4  17
TORSDOF 5
ENDMDL
