MODEL 1
REMARK VINA RESULT:      -6.3      0.000      0.000
REMARK  4 active torsions:
REMARK  status: ('A' for Active; 'I' for Inactive)
REMARK    1  A    between atoms: C_6  and  N_7 
REMARK       I    between atoms: N_7  and  C_8 
REMARK    2  A    between atoms: C_8  and  C_10 
REMARK    3  A    between atoms: C_10  and  N_11 
REMARK    4  A    between atoms: C_13  and  N_18 
ROOT
HETATM    1  N   UNL     1     -43.437 -51.548  12.585  1.00  0.00    -0.355 N 
HETATM    2  C   UNL     1     -42.925 -50.394  13.143  1.00  0.00     0.236 C 
HETATM    3  O   UNL     1     -43.085 -50.089  14.324  1.00  0.00    -0.272 OA
HETATM    4  H   UNL     1     -43.211 -51.777  11.623  1.00  0.00     0.162 HD
ENDROOT
BRANCH   2   5
HETATM    5  C   UNL     1     -42.247 -49.442  12.164  1.00  0.00     0.234 C 
BRANCH   5   6
HETATM    6  N   UNL     1     -40.827 -49.287  12.483  1.00  0.00    -0.314 N 
HETATM    7  C   UNL     1     -40.001 -50.413  12.500  1.00  0.00     0.130 A 
HETATM    8  C   UNL     1     -38.698 -50.304  12.810  1.00  0.00     0.118 A 
HETATM    9  C   UNL     1     -38.117 -49.004  13.064  1.00  0.00     0.043 A 
HETATM   10  C   UNL     1     -38.895 -47.911  13.078  1.00  0.00     0.077 A 
HETATM   11  C   UNL     1     -40.361 -48.021  12.837  1.00  0.00     0.247 A 
HETATM   12  O   UNL     1     -41.069 -47.024  12.947  1.00  0.00    -0.268 OA
BRANCH   8  13
HETATM   13  N   UNL     1     -37.897 -51.528  12.897  1.00  0.00    -0.114 N 
HETATM   14  O   UNL     1     -38.371 -52.463  13.556  1.00  0.00    -0.532 OA
HETATM   15  O   UNL     1     -36.808 -51.564  12.308  1.00  0.00    -0.532 OA
ENDBRANCH   8  13
ENDBRANCH   5   6
ENDBRANCH   2   5
BRANCH   1  16
HETATM   16  C   UNL     1     -44.148 -52.522  13.405  1.00  0.00     0.088 C 
HETATM   17  C   UNL     1     -43.323 -53.812  13.521  1.00  0.00     0.025 C 
HETATM   18  C   UNL     1     -44.026 -54.864  14.374  1.00  0.00     0.002 C 
HETATM   19  C   UNL     1     -45.442 -55.141  13.878  1.00  0.00     0.005 C 
HETATM   20  C   UNL     1     -46.293 -53.866  13.747  1.00  0.00    -0.013 C 
HETATM   21  C   UNL     1     -46.689 -53.333  15.133  1.00  0.00     0.010 C 
HETATM   22  C   UNL     1     -45.560 -52.825  12.857  1.00  0.00     0.008 C 
HETATM   23  C   UNL     1     -46.390 -51.548  12.671  1.00  0.00     0.012 C 
ENDBRANCH   1  16
TORSDOF 4
ENDMDL
MODEL 2
REMARK VINA RESULT:      -6.3      2.615      7.134
REMARK  4 active torsions:
REMARK  status: ('A' for Active; 'I' for Inactive)
REMARK    1  A    between atoms: C_6  and  N_7 
REMARK       I    between atoms: N_7  and  C_8 
REMARK    2  A    between atoms: C_8  and  C_10 
REMARK    3  A    between atoms: C_10  and  N_11 
REMARK    4  A    between atoms: C_13  and  N_18 
ROOT
HETATM    1  N   UNL     1     -41.030 -49.974  11.212  1.00  0.00    -0.355 N 
HETATM    2  C   UNL     1     -41.492 -50.861  12.163  1.00  0.00     0.236 C 
HETATM    3  O   UNL     1     -42.030 -50.504  13.211  1.00  0.00    -0.272 OA
HETATM    4  H   UNL     1     -40.660 -50.332  10.338  1.00  0.00     0.162 HD
ENDROOT
BRANCH   2   5
HETATM    5  C   UNL     1     -41.180 -52.328  11.893  1.00  0.00     0.234 C 
BRANCH   5   6
HETATM    6  N   UNL     1     -41.820 -53.192  12.886  1.00  0.00    -0.314 N 
HETATM    7  C   UNL     1     -43.169 -53.521  12.740  1.00  0.00     0.130 A 
HETATM    8  C   UNL     1     -43.789 -54.294  13.647  1.00  0.00     0.118 A 
HETATM    9  C   UNL     1     -43.047 -54.855  14.754  1.00  0.00     0.043 A 
HETATM   10  C   UNL     1     -41.756 -54.533  14.929  1.00  0.00     0.077 A 
HETATM   11  C   UNL     1     -41.075 -53.596  13.993  1.00  0.00     0.247 A 
HETATM   12  O   UNL     1     -39.922 -53.241  14.224  1.00  0.00    -0.268 OA
BRANCH   8  13
HETATM   13  N   UNL     1     -45.226 -54.538  13.490  1.00  0.00    -0.114 N 
HETATM   14  O   UNL     1     -45.870 -53.699  12.846  1.00  0.00    -0.532 OA
HETATM   15  O   UNL     1     -45.711 -55.558  13.997  1.00  0.00    -0.532 OA
ENDBRANCH   8  13
ENDBRANCH   5   6
ENDBRANCH   2   5
BRANCH   1  16
HETATM   16  C   UNL     1     -41.226 -48.538  11.372  1.00  0.00     0.088 C 
HETATM   17  C   UNL     1     -42.031 -47.983  10.188  1.00  0.00     0.025 C 
HETATM   18  C   UNL     1     -42.264 -46.480  10.312  1.00  0.00     0.002 C 
HETATM   19  C   UNL     1     -40.957 -45.719  10.514  1.00  0.00     0.005 C 
HETATM   20  C   UNL     1     -40.125 -46.256  11.691  1.00  0.00    -0.013 C 
HETATM   21  C   UNL     1     -40.768 -45.866  13.031  1.00  0.00     0.010 C 
HETATM   22  C   UNL     1     -39.888 -47.781  11.525  1.00  0.00     0.008 C 
HETATM   23  C   UNL     1     -39.031 -48.352  12.662  1.00  0.00     0.012 C 
ENDBRANCH   1  16
TORSDOF 4
ENDMDL
MODEL 3
REMARK VINA RESULT:      -6.1      1.710      3.284
REMARK  4 active torsions:
REMARK  status: ('A' for Active; 'I' for Inactive)
REMARK    1  A    between atoms: C_6  and  N_7 
REMARK       I    between atoms: N_7  and  C_8 
REMARK    2  A    between atoms: C_8  and  C_10 
REMARK    3  A    between atoms: C_10  and  N_11 
REMARK    4  A    between atoms: C_13  and  N_18 
ROOT
HETATM    1  N   UNL     1     -42.851 -52.886  13.029  1.00  0.00    -0.355 N 
HETATM    2  C   UNL     1     -41.622 -52.500  13.525  1.00  0.00     0.236 C 
HETATM    3  O   UNL     1     -41.461 -52.076  14.668  1.00  0.00    -0.272 OA
HETATM    4  H   UNL     1     -42.906 -53.293  12.102  1.00  0.00     0.162 HD
ENDROOT
BRANCH   2   5
HETATM    5  C   UNL     1     -40.479 -52.511  12.517  1.00  0.00     0.234 C 
BRANCH   5   6
HETATM    6  N   UNL     1     -39.961 -51.161  12.295  1.00  0.00    -0.314 N 
HETATM    7  C   UNL     1     -40.803 -50.183  11.759  1.00  0.00     0.130 A 
HETATM    8  C   UNL     1     -40.349 -48.941  11.525  1.00  0.00     0.118 A 
HETATM    9  C   UNL     1     -38.998 -48.578  11.889  1.00  0.00     0.043 A 
HETATM   10  C   UNL     1     -38.163 -49.506  12.382  1.00  0.00     0.077 A 
HETATM   11  C   UNL     1     -38.614 -50.916  12.556  1.00  0.00     0.247 A 
HETATM   12  O   UNL     1     -37.808 -51.768  12.919  1.00  0.00    -0.268 OA
BRANCH   8  13
HETATM   13  N   UNL     1     -41.250 -47.979  10.883  1.00  0.00    -0.114 N 
HETATM   14  O   UNL     1     -40.790 -46.856  10.637  1.00  0.00    -0.532 OA
HETATM   15  O   UNL     1     -42.405 -48.339  10.617  1.00  0.00    -0.532 OA
ENDBRANCH   8  13
ENDBRANCH   5   6
ENDBRANCH   2   5
BRANCH   1  16
HETATM   16  C   UNL     1     -44.036 -52.879  13.880  1.00  0.00     0.088 C 
HETATM   17  C   UNL     1     -44.658 -54.282  13.925  1.00  0.00     0.025 C 
HETATM   18  C   UNL     1     -45.902 -54.326  14.806  1.00  0.00     0.002 C 
HETATM   19  C   UNL     1     -46.923 -53.266  14.399  1.00  0.00     0.005 C 
HETATM   20  C   UNL     1     -46.327 -51.849  14.341  1.00  0.00    -0.013 C 
HETATM   21  C   UNL     1     -46.066 -51.312  15.756  1.00  0.00     0.010 C 
HETATM   22  C   UNL     1     -45.076 -51.834  13.420  1.00  0.00     0.008 C 
HETATM   23  C   UNL     1     -44.469 -50.430  13.306  1.00  0.00     0.012 C 
ENDBRANCH   1  16
TORSDOF 4
ENDMDL
MODEL 4
REMARK VINA RESULT:      -5.9      2.136      3.755
REMARK  4 active torsions:
REMARK  status: ('A' for Active; 'I' for Inactive)
REMARK    1  A    between atoms: C_6  and  N_7 
REMARK       I    between atoms: N_7  and  C_8 
REMARK    2  A    between atoms: C_8  and  C_10 
REMARK    3  A    between atoms: C_10  and  N_11 
REMARK    4  A    between atoms: C_13  and  N_18 
ROOT
HETATM    1  N   UNL     1     -43.378 -51.845  12.837  1.00  0.00    -0.355 N 
HETATM    2  C   UNL     1     -42.350 -50.938  12.995  1.00  0.00     0.236 C 
HETATM    3  O   UNL     1     -42.206 -50.254  14.008  1.00  0.00    -0.272 OA
HETATM    4  H   UNL     1     -43.401 -52.428  12.007  1.00  0.00     0.162 HD
ENDROOT
BRANCH   2   5
HETATM    5  C   UNL     1     -41.462 -50.737  11.773  1.00  0.00     0.234 C 
BRANCH   5   6
HETATM    6  N   UNL     1     -41.205 -49.316  11.538  1.00  0.00    -0.314 N 
HETATM    7  C   UNL     1     -42.199 -48.527  10.954  1.00  0.00     0.130 A 
HETATM    8  C   UNL     1     -41.984 -47.224  10.706  1.00  0.00     0.118 A 
HETATM    9  C   UNL     1     -40.741 -46.603  11.106  1.00  0.00     0.043 A 
HETATM   10  C   UNL     1     -39.762 -47.345  11.646  1.00  0.00     0.077 A 
HETATM   11  C   UNL     1     -39.940 -48.812  11.836  1.00  0.00     0.247 A 
HETATM   12  O   UNL     1     -38.999 -49.487  12.245  1.00  0.00    -0.268 OA
BRANCH   8  13
HETATM   13  N   UNL     1     -43.029 -46.465  10.014  1.00  0.00    -0.114 N 
HETATM   14  O   UNL     1     -44.129 -47.018   9.879  1.00  0.00    -0.532 OA
HETATM   15  O   UNL     1     -42.763 -45.323   9.613  1.00  0.00    -0.532 OA
ENDBRANCH   8  13
ENDBRANCH   5   6
ENDBRANCH   2   5
BRANCH   1  16
HETATM   16  C   UNL     1     -44.325 -52.097  13.917  1.00  0.00     0.088 C 
HETATM   17  C   UNL     1     -43.775 -53.182  14.854  1.00  0.00     0.025 C 
HETATM   18  C   UNL     1     -44.731 -53.481  16.004  1.00  0.00     0.002 C 
HETATM   19  C   UNL     1     -46.131 -53.823  15.502  1.00  0.00     0.005 C 
HETATM   20  C   UNL     1     -46.708 -52.756  14.555  1.00  0.00    -0.013 C 
HETATM   21  C   UNL     1     -47.102 -51.494  15.338  1.00  0.00     0.010 C 
HETATM   22  C   UNL     1     -45.721 -52.490  13.386  1.00  0.00     0.008 C 
HETATM   23  C   UNL     1     -46.273 -51.456  12.398  1.00  0.00     0.012 C 
ENDBRANCH   1  16
TORSDOF 4
ENDMDL
MODEL 5
REMARK VINA RESULT:      -5.9      1.685      3.624
REMARK  4 active torsions:
REMARK  status: ('A' for Active; 'I' for Inactive)
REMARK    1  A    between atoms: C_6  and  N_7 
REMARK       I    between atoms: N_7  and  C_8 
REMARK    2  A    between atoms: C_8  and  C_10 
REMARK    3  A    between atoms: C_10  and  N_11 
REMARK    4  A    between atoms: C_13  and  N_18 
ROOT
HETATM    1  N   UNL     1     -42.096 -52.368  14.248  1.00  0.00    -0.355 N 
HETATM    2  C   UNL     1     -41.059 -52.674  13.391  1.00  0.00     0.236 C 
HETATM    3  O   UNL     1     -41.191 -53.404  12.409  1.00  0.00    -0.272 OA
HETATM    4  H   UNL     1     -41.939 -51.704  14.999  1.00  0.00     0.162 HD
ENDROOT
BRANCH   2   5
HETATM    5  C   UNL     1     -39.690 -52.148  13.808  1.00  0.00     0.234 C 
BRANCH   5   6
HETATM    6  N   UNL     1     -39.264 -51.049  12.940  1.00  0.00    -0.314 N 
HETATM    7  C   UNL     1     -40.205 -50.111  12.510  1.00  0.00     0.130 A 
HETATM    8  C   UNL     1     -39.847 -49.104  11.696  1.00  0.00     0.118 A 
HETATM    9  C   UNL     1     -38.464 -48.937  11.309  1.00  0.00     0.043 A 
HETATM   10  C   UNL     1     -37.547 -49.840  11.689  1.00  0.00     0.077 A 
HETATM   11  C   UNL     1     -37.939 -51.021  12.507  1.00  0.00     0.247 A 
HETATM   12  O   UNL     1     -37.103 -51.883  12.766  1.00  0.00    -0.268 OA
BRANCH   8  13
HETATM   13  N   UNL     1     -40.891 -48.199  11.207  1.00  0.00    -0.114 N 
HETATM   14  O   UNL     1     -42.023 -48.677  11.054  1.00  0.00    -0.532 OA
HETATM   15  O   UNL     1     -40.591 -47.018  10.983  1.00  0.00    -0.532 OA
ENDBRANCH   8  13
ENDBRANCH   5   6
ENDBRANCH   2   5
BRANCH   1  16
HETATM   16  C   UNL     1     -43.448 -52.847  13.987  1.00  0.00     0.088 C 
HETATM   17  C   UNL     1     -44.371 -51.664  13.662  1.00  0.00     0.025 C 
HETATM   18  C   UNL     1     -45.800 -52.116  13.379  1.00  0.00     0.002 C 
HETATM   19  C   UNL     1     -46.358 -52.975  14.510  1.00  0.00     0.005 C 
HETATM   20  C   UNL     1     -45.451 -54.168  14.861  1.00  0.00    -0.013 C 
HETATM   21  C   UNL     1     -45.523 -55.244  13.767  1.00  0.00     0.010 C 
HETATM   22  C   UNL     1     -44.011 -53.673  15.165  1.00  0.00     0.008 C 
HETATM   23  C   UNL     1     -43.081 -54.828  15.554  1.00  0.00     0.012 C 
ENDBRANCH   1  16
TORSDOF 4
ENDMDL
MODEL 6
REMARK VINA RESULT:      -5.9      2.436      4.286
REMARK  4 active torsions:
REMARK  status: ('A' for Active; 'I' for Inactive)
REMARK    1  A    between atoms: C_6  and  N_7 
REMARK       I    between atoms: N_7  and  C_8 
REMARK    2  A    between atoms: C_8  and  C_10 
REMARK    3  A    between atoms: C_10  and  N_11 
REMARK    4  A    between atoms: C_13  and  N_18 
ROOT
HETATM    1  N   UNL     1     -42.617 -51.639  12.059  1.00  0.00    -0.355 N 
HETATM    2  C   UNL     1     -41.819 -50.617  12.532  1.00  0.00     0.236 C 
HETATM    3  O   UNL     1     -42.016 -50.053  13.607  1.00  0.00    -0.272 OA
HETATM    4  H   UNL     1     -42.361 -52.110  11.197  1.00  0.00     0.162 HD
ENDROOT
BRANCH   2   5
HETATM    5  C   UNL     1     -40.738 -50.135  11.571  1.00  0.00     0.234 C 
BRANCH   5   6
HETATM    6  N   UNL     1     -40.903 -48.713  11.267  1.00  0.00    -0.314 N 
HETATM    7  C   UNL     1     -41.935 -48.309  10.416  1.00  0.00     0.130 A 
HETATM    8  C   UNL     1     -42.098 -47.013  10.101  1.00  0.00     0.118 A 
HETATM    9  C   UNL     1     -41.245 -46.008  10.696  1.00  0.00     0.043 A 
HETATM   10  C   UNL     1     -40.232 -46.373  11.496  1.00  0.00     0.077 A 
HETATM   11  C   UNL     1     -39.970 -47.812  11.778  1.00  0.00     0.247 A 
HETATM   12  O   UNL     1     -38.983 -48.130  12.435  1.00  0.00    -0.268 OA
BRANCH   8  13
HETATM   13  N   UNL     1     -43.142 -46.656   9.138  1.00  0.00    -0.114 N 
HETATM   14  O   UNL     1     -43.328 -45.449   8.934  1.00  0.00    -0.532 OA
HETATM   15  O   UNL     1     -43.770 -47.567   8.581  1.00  0.00    -0.532 OA
ENDBRANCH   8  13
ENDBRANCH   5   6
ENDBRANCH   2   5
BRANCH   1  16
HETATM   16  C   UNL     1     -43.715 -52.163  12.862  1.00  0.00     0.088 C 
HETATM   17  C   UNL     1     -44.619 -51.013  13.330  1.00  0.00     0.025 C 
HETATM   18  C   UNL     1     -45.786 -51.513  14.175  1.00  0.00     0.002 C 
HETATM   19  C   UNL     1     -45.313 -52.372  15.344  1.00  0.00     0.005 C 
HETATM   20  C   UNL     1     -44.401 -53.531  14.906  1.00  0.00    -0.013 C 
HETATM   21  C   UNL     1     -45.216 -54.625  14.199  1.00  0.00     0.010 C 
HETATM   22  C   UNL     1     -43.213 -52.988  14.067  1.00  0.00     0.008 C 
HETATM   23  C   UNL     1     -42.257 -54.108  13.639  1.00  0.00     0.012 C 
ENDBRANCH   1  16
TORSDOF 4
ENDMDL
MODEL 7
REMARK VINA RESULT:      -5.8      1.739      2.545
REMARK  4 active torsions:
REMARK  status: ('A' for Active; 'I' for Inactive)
REMARK    1  A    between atoms: C_6  and  N_7 
REMARK       I    between atoms: N_7  and  C_8 
REMARK    2  A    between atoms: C_8  and  C_10 
REMARK    3  A    between atoms: C_10  and  N_11 
REMARK    4  A    between atoms: C_13  and  N_18 
ROOT
HETATM    1  N   UNL     1     -42.927 -51.838  12.907  1.00  0.00    -0.355 N 
HETATM    2  C   UNL     1     -42.333 -50.771  13.551  1.00  0.00     0.236 C 
HETATM    3  O   UNL     1     -42.556 -50.487  14.727  1.00  0.00    -0.272 OA
HETATM    4  H   UNL     1     -42.649 -52.062  11.958  1.00  0.00     0.162 HD
ENDROOT
BRANCH   2   5
HETATM    5  C   UNL     1     -41.469 -49.877  12.670  1.00  0.00     0.234 C 
BRANCH   5   6
HETATM    6  N   UNL     1     -40.071 -49.905  13.104  1.00  0.00    -0.314 N 
HETATM    7  C   UNL     1     -39.491 -48.744  13.621  1.00  0.00     0.130 A 
HETATM    8  C   UNL     1     -38.204 -48.734  14.007  1.00  0.00     0.118 A 
HETATM    9  C   UNL     1     -37.420 -49.948  13.957  1.00  0.00     0.043 A 
HETATM   10  C   UNL     1     -37.948 -51.069  13.442  1.00  0.00     0.077 A 
HETATM   11  C   UNL     1     -39.341 -51.077  12.913  1.00  0.00     0.247 A 
HETATM   12  O   UNL     1     -39.773 -52.085  12.362  1.00  0.00    -0.268 OA
BRANCH   8  13
HETATM   13  N   UNL     1     -37.623 -47.468  14.460  1.00  0.00    -0.114 N 
HETATM   14  O   UNL     1     -38.412 -46.588  14.830  1.00  0.00    -0.532 OA
HETATM   15  O   UNL     1     -36.390 -47.349  14.458  1.00  0.00    -0.532 OA
ENDBRANCH   8  13
ENDBRANCH   5   6
ENDBRANCH   2   5
BRANCH   1  16
HETATM   16  C   UNL     1     -43.813 -52.746  13.627  1.00  0.00     0.088 C 
HETATM   17  C   UNL     1     -43.185 -54.145  13.697  1.00  0.00     0.025 C 
HETATM   18  C   UNL     1     -44.076 -55.133  14.444  1.00  0.00     0.002 C 
HETATM   19  C   UNL     1     -45.487 -55.174  13.865  1.00  0.00     0.005 C 
HETATM   20  C   UNL     1     -46.141 -53.784  13.778  1.00  0.00    -0.013 C 
HETATM   21  C   UNL     1     -46.535 -53.282  15.175  1.00  0.00     0.010 C 
HETATM   22  C   UNL     1     -45.221 -52.809  12.994  1.00  0.00     0.008 C 
HETATM   23  C   UNL     1     -45.851 -51.418  12.853  1.00  0.00     0.012 C 
ENDBRANCH   1  16
TORSDOF 4
ENDMDL
MODEL 8
REMARK VINA RESULT:      -5.7      2.650      6.555
REMARK  4 active torsions:
REMARK  status: ('A' for Active; 'I' for Inactive)
REMARK    1  A    between atoms: C_6  and  N_7 
REMARK       I    between atoms: N_7  and  C_8 
REMARK    2  A    between atoms: C_8  and  C_10 
REMARK    3  A    between atoms: C_10  and  N_11 
REMARK    4  A    between atoms: C_13  and  N_18 
ROOT
HETATM    1  N   UNL     1     -42.080 -50.081  11.945  1.00  0.00    -0.355 N 
HETATM    2  C   UNL     1     -40.996 -50.919  12.116  1.00  0.00     0.236 C 
HETATM    3  O   UNL     1     -39.906 -50.531  12.534  1.00  0.00    -0.272 OA
HETATM    4  H   UNL     1     -42.971 -50.475  11.664  1.00  0.00     0.162 HD
ENDROOT
BRANCH   2   5
HETATM    5  C   UNL     1     -41.194 -52.350  11.630  1.00  0.00     0.234 C 
BRANCH   5   6
HETATM    6  N   UNL     1     -41.670 -53.211  12.713  1.00  0.00    -0.314 N 
HETATM    7  C   UNL     1     -43.043 -53.392  12.892  1.00  0.00     0.130 A 
HETATM    8  C   UNL     1     -43.510 -54.159  13.891  1.00  0.00     0.118 A 
HETATM    9  C   UNL     1     -42.591 -54.866  14.756  1.00  0.00     0.043 A 
HETATM   10  C   UNL     1     -41.269 -54.688  14.620  1.00  0.00     0.077 A 
HETATM   11  C   UNL     1     -40.730 -53.762  13.584  1.00  0.00     0.247 A 
HETATM   12  O   UNL     1     -39.523 -53.542  13.537  1.00  0.00    -0.268 OA
BRANCH   8  13
HETATM   13  N   UNL     1     -44.960 -54.245  14.085  1.00  0.00    -0.114 N 
HETATM   14  O   UNL     1     -45.463 -53.475  14.914  1.00  0.00    -0.532 OA
HETATM   15  O   UNL     1     -45.598 -55.067  13.412  1.00  0.00    -0.532 OA
ENDBRANCH   8  13
ENDBRANCH   5   6
ENDBRANCH   2   5
BRANCH   1  16
HETATM   16  C   UNL     1     -42.007 -48.677  12.329  1.00  0.00     0.088 C 
HETATM   17  C   UNL     1     -42.497 -48.502  13.774  1.00  0.00     0.025 C 
HETATM   18  C   UNL     1     -42.438 -47.045  14.224  1.00  0.00     0.002 C 
HETATM   19  C   UNL     1     -43.178 -46.123  13.258  1.00  0.00     0.005 C 
HETATM   20  C   UNL     1     -42.711 -46.280  11.801  1.00  0.00    -0.013 C 
HETATM   21  C   UNL     1     -41.319 -45.659  11.609  1.00  0.00     0.010 C 
HETATM   22  C   UNL     1     -42.804 -47.768  11.367  1.00  0.00     0.008 C 
HETATM   23  C   UNL     1     -42.380 -47.964   9.907  1.00  0.00     0.012 C 
ENDBRANCH   1  16
TORSDOF 4
ENDMDL
MODEL 9
REMARK VINA RESULT:      -5.7      3.976      5.843
REMARK  4 active torsions:
REMARK  status: ('A' for Active; 'I' for Inactive)
REMARK    1  A    between atoms: C_6  and  N_7 
REMARK       I    between atoms: N_7  and  C_8 
REMARK    2  A    between atoms: C_8  and  C_10 
REMARK    3  A    between atoms: C_10  and  N_11 
REMARK    4  A    between atoms: C_13  and  N_18 
ROOT
HETATM    1  N   UNL     1     -46.176 -52.608  15.616  1.00  0.00    -0.355 N 
HETATM    2  C   UNL     1     -46.032 -53.979  15.689  1.00  0.00     0.236 C 
HETATM    3  O   UNL     1     -46.040 -54.599  16.752  1.00  0.00    -0.272 OA
HETATM    4  H   UNL     1     -46.231 -52.163  14.706  1.00  0.00     0.162 HD
ENDROOT
BRANCH   2   5
HETATM    5  C   UNL     1     -45.732 -54.675  14.367  1.00  0.00     0.234 C 
BRANCH   5   6
HETATM    6  N   UNL     1     -44.433 -54.260  13.838  1.00  0.00    -0.314 N 
HETATM    7  C   UNL     1     -43.268 -54.620  14.520  1.00  0.00     0.130 A 
HETATM    8  C   UNL     1     -42.062 -54.234  14.070  1.00  0.00     0.118 A 
HETATM    9  C   UNL     1     -41.950 -53.496  12.831  1.00  0.00     0.043 A 
HETATM   10  C   UNL     1     -43.056 -53.117  12.172  1.00  0.00     0.077 A 
HETATM   11  C   UNL     1     -44.407 -53.446  12.706  1.00  0.00     0.247 A 
HETATM   12  O   UNL     1     -45.405 -53.010  12.139  1.00  0.00    -0.268 OA
BRANCH   8  13
HETATM   13  N   UNL     1     -40.881 -54.566  14.870  1.00  0.00    -0.114 N 
HETATM   14  O   UNL     1     -39.777 -54.425  14.327  1.00  0.00    -0.532 OA
HETATM   15  O   UNL     1     -41.046 -54.958  16.033  1.00  0.00    -0.532 OA
ENDBRANCH   8  13
ENDBRANCH   5   6
ENDBRANCH   2   5
BRANCH   1  16
HETATM   16  C   UNL     1     -46.423 -51.817  16.816  1.00  0.00     0.088 C 
HETATM   17  C   UNL     1     -47.887 -51.356  16.848  1.00  0.00     0.025 C 
HETATM   18  C   UNL     1     -48.196 -50.525  18.089  1.00  0.00     0.002 C 
HETATM   19  C   UNL     1     -47.231 -49.352  18.241  1.00  0.00     0.005 C 
HETATM   20  C   UNL     1     -45.754 -49.782  18.207  1.00  0.00    -0.013 C 
HETATM   21  C   UNL     1     -45.369 -50.500  19.509  1.00  0.00     0.010 C 
HETATM   22  C   UNL     1     -45.468 -50.608  16.923  1.00  0.00     0.008 C 
HETATM   23  C   UNL     1     -43.996 -51.028  16.831  1.00  0.00     0.012 C 
ENDBRANCH   1  16
TORSDOF 4
ENDMDL
