MODEL 1
REMARK VINA RESULT:      -7.0      0.000      0.000
REMARK  7 active torsions:
REMARK  status: ('A' for Active; 'I' for Inactive)
REMARK    1  A    between atoms: O_1  and  C_2 
REMARK    2  A    between atoms: C_2  and  C_3 
REMARK    3  A    between atoms: C_2  and  C_13 
REMARK    4  A    between atoms: C_3  and  O_4 
REMARK    5  A    between atoms: O_4  and  C_5 
REMARK    6  A    between atoms: C_5  and  C_6 
REMARK    7  A    between atoms: C_13  and  N_14 
ROOT
HETATM    1  C   UNL     1     -40.709 -50.179  11.545  1.00  0.00     0.160 C 
ENDROOT
BRANCH   1   2
HETATM    2  O   UNL     1     -40.167 -50.053  10.220  1.00  0.00    -0.392 OA
HETATM    3  H   UNL     1     -39.383 -50.629  10.174  1.00  0.00     0.210 HD
ENDBRANCH   1   2
BRANCH   1   4
HETATM    4  C   UNL     1     -39.730 -51.016  12.386  1.00  0.00     0.201 C 
BRANCH   4   5
HETATM    5  O   UNL     1     -40.075 -52.395  12.353  1.00  0.00    -0.384 OA
BRANCH   5   6
HETATM    6  C   UNL     1     -40.300 -52.918  13.663  1.00  0.00     0.206 C 
BRANCH   6   7
HETATM    7  C   UNL     1     -41.677 -53.529  13.712  1.00  0.00    -0.035 A 
HETATM    8  C   UNL     1     -42.643 -53.199  12.751  1.00  0.00     0.011 A 
HETATM    9  C   UNL     1     -43.923 -53.755  12.814  1.00  0.00     0.024 A 
HETATM   10  C   UNL     1     -44.241 -54.649  13.834  1.00  0.00     0.034 A 
HETATM   11 CL   UNL     1     -45.826 -55.316  13.924  1.00  0.00    -0.084 Cl
HETATM   12  C   UNL     1     -43.288 -55.002  14.785  1.00  0.00     0.024 A 
HETATM   13  C   UNL     1     -42.008 -54.445  14.723  1.00  0.00     0.011 A 
ENDBRANCH   6   7
ENDBRANCH   5   6
ENDBRANCH   4   5
ENDBRANCH   1   4
BRANCH   1  14
HETATM   14  C   UNL     1     -40.901 -48.782  12.163  1.00  0.00     0.167 C 
BRANCH  14  15
HETATM   15  N   UNL     1     -41.617 -47.839  11.289  1.00  0.00    -0.305 N 
HETATM   16  C   UNL     1     -42.951 -48.069  10.998  1.00  0.00     0.125 C 
HETATM   17  C   UNL     1     -43.636 -47.310  10.137  1.00  0.00     0.117 C 
HETATM   18 CL   UNL     1     -45.283 -47.610   9.761  1.00  0.00    -0.077 Cl
HETATM   19  C   UNL     1     -42.930 -46.194   9.464  1.00  0.00     0.272 C 
HETATM   20  O   UNL     1     -43.429 -45.524   8.565  1.00  0.00    -0.266 OA
HETATM   21  N   UNL     1     -41.654 -45.957   9.907  1.00  0.00    -0.274 N 
HETATM   22  C   UNL     1     -40.937 -46.746  10.770  1.00  0.00     0.329 C 
HETATM   23  H   UNL     1     -41.153 -45.201   9.468  1.00  0.00     0.173 HD
HETATM   24  O   UNL     1     -39.765 -46.477  11.027  1.00  0.00    -0.246 OA
ENDBRANCH  14  15
ENDBRANCH   1  14
TORSDOF 7
ENDMDL
MODEL 2
REMARK VINA RESULT:      -6.5      2.541      3.549
REMARK  7 active torsions:
REMARK  status: ('A' for Active; 'I' for Inactive)
REMARK    1  A    between atoms: O_1  and  C_2 
REMARK    2  A    between atoms: C_2  and  C_3 
REMARK    3  A    between atoms: C_2  and  C_13 
REMARK    4  A    between atoms: C_3  and  O_4 
REMARK    5  A    between atoms: O_4  and  C_5 
REMARK    6  A    between atoms: C_5  and  C_6 
REMARK    7  A    between atoms: C_13  and  N_14 
ROOT
HETATM    1  C   UNL     1     -41.300 -52.334  11.838  1.00  0.00     0.160 C 
ENDROOT
BRANCH   1   2
HETATM    2  O   UNL     1     -40.531 -53.446  11.350  1.00  0.00    -0.392 OA
HETATM    3  H   UNL     1     -40.798 -53.595  10.425  1.00  0.00     0.210 HD
ENDBRANCH   1   2
BRANCH   1   4
HETATM    4  C   UNL     1     -42.334 -52.871  12.842  1.00  0.00     0.201 C 
BRANCH   4   5
HETATM    5  O   UNL     1     -43.621 -52.976  12.245  1.00  0.00    -0.384 OA
BRANCH   5   6
HETATM    6  C   UNL     1     -44.440 -53.934  12.916  1.00  0.00     0.206 C 
BRANCH   6   7
HETATM    7  C   UNL     1     -45.320 -53.213  13.906  1.00  0.00    -0.035 A 
HETATM    8  C   UNL     1     -45.471 -53.694  15.214  1.00  0.00     0.011 A 
HETATM    9  C   UNL     1     -46.303 -53.031  16.121  1.00  0.00     0.024 A 
HETATM   10  C   UNL     1     -46.982 -51.881  15.725  1.00  0.00     0.034 A 
HETATM   11 CL   UNL     1     -48.024 -51.078  16.836  1.00  0.00    -0.084 Cl
HETATM   12  C   UNL     1     -46.828 -51.379  14.436  1.00  0.00     0.024 A 
HETATM   13  C   UNL     1     -45.997 -52.043  13.529  1.00  0.00     0.011 A 
ENDBRANCH   6   7
ENDBRANCH   5   6
ENDBRANCH   4   5
ENDBRANCH   1   4
BRANCH   1  14
HETATM   14  C   UNL     1     -40.366 -51.313  12.513  1.00  0.00     0.167 C 
BRANCH  14  15
HETATM   15  N   UNL     1     -40.560 -49.931  12.046  1.00  0.00    -0.305 N 
HETATM   16  C   UNL     1     -41.845 -49.472  11.814  1.00  0.00     0.125 C 
HETATM   17  C   UNL     1     -42.091 -48.262  11.298  1.00  0.00     0.117 C 
HETATM   18 CL   UNL     1     -43.683 -47.704  10.992  1.00  0.00    -0.077 Cl
HETATM   19  C   UNL     1     -40.939 -47.397  10.952  1.00  0.00     0.272 C 
HETATM   20  O   UNL     1     -41.051 -46.330  10.356  1.00  0.00    -0.266 OA
HETATM   21  N   UNL     1     -39.712 -47.875  11.334  1.00  0.00    -0.274 N 
HETATM   22  C   UNL     1     -39.451 -49.123  11.839  1.00  0.00     0.329 C 
HETATM   23  H   UNL     1     -38.911 -47.304  11.112  1.00  0.00     0.173 HD
HETATM   24  O   UNL     1     -38.293 -49.470  12.064  1.00  0.00    -0.246 OA
ENDBRANCH  14  15
ENDBRANCH   1  14
TORSDOF 7
ENDMDL
MODEL 3
REMARK VINA RESULT:      -6.4      2.590      2.891
REMARK  7 active torsions:
REMARK  status: ('A' for Active; 'I' for Inactive)
REMARK    1  A    between atoms: O_1  and  C_2 
REMARK    2  A    between atoms: C_2  and  C_3 
REMARK    3  A    between atoms: C_2  and  C_13 
REMARK    4  A    between atoms: C_3  and  O_4 
REMARK    5  A    between atoms: O_4  and  C_5 
REMARK    6  A    between atoms: C_5  and  C_6 
REMARK    7  A    between atoms: C_13  and  N_14 
ROOT
HETATM    1  C   UNL     1     -41.272 -50.156  11.961  1.00  0.00     0.160 C 
ENDROOT
BRANCH   1   2
HETATM    2  O   UNL     1     -40.866 -51.179  11.036  1.00  0.00    -0.392 OA
HETATM    3  H   UNL     1     -41.200 -50.921  10.158  1.00  0.00     0.210 HD
ENDBRANCH   1   2
BRANCH   1   4
HETATM    4  C   UNL     1     -40.913 -50.624  13.381  1.00  0.00     0.201 C 
BRANCH   4   5
HETATM    5  O   UNL     1     -42.066 -51.081  14.077  1.00  0.00    -0.384 OA
BRANCH   5   6
HETATM    6  C   UNL     1     -43.240 -51.004  13.268  1.00  0.00     0.206 C 
BRANCH   6   7
HETATM    7  C   UNL     1     -44.452 -51.047  14.164  1.00  0.00    -0.035 A 
HETATM    8  C   UNL     1     -44.342 -50.759  15.532  1.00  0.00     0.011 A 
HETATM    9  C   UNL     1     -45.466 -50.820  16.360  1.00  0.00     0.024 A 
HETATM   10  C   UNL     1     -46.705 -51.162  15.823  1.00  0.00     0.034 A 
HETATM   11 CL   UNL     1     -48.085 -51.258  16.849  1.00  0.00    -0.084 Cl
HETATM   12  C   UNL     1     -46.835 -51.432  14.463  1.00  0.00     0.024 A 
HETATM   13  C   UNL     1     -45.711 -51.373  13.636  1.00  0.00     0.011 A 
ENDBRANCH   6   7
ENDBRANCH   5   6
ENDBRANCH   4   5
ENDBRANCH   1   4
BRANCH   1  14
HETATM   14  C   UNL     1     -40.555 -48.837  11.625  1.00  0.00     0.167 C 
BRANCH  14  15
HETATM   15  N   UNL     1     -41.422 -47.835  10.983  1.00  0.00    -0.305 N 
HETATM   16  C   UNL     1     -42.751 -48.143  10.754  1.00  0.00     0.125 C 
HETATM   17  C   UNL     1     -43.571 -47.321  10.089  1.00  0.00     0.117 C 
HETATM   18 CL   UNL     1     -45.213 -47.713   9.787  1.00  0.00    -0.077 Cl
HETATM   19  C   UNL     1     -43.023 -46.045   9.572  1.00  0.00     0.272 C 
HETATM   20  O   UNL     1     -43.653 -45.287   8.842  1.00  0.00    -0.266 OA
HETATM   21  N   UNL     1     -41.737 -45.762   9.955  1.00  0.00    -0.274 N 
HETATM   22  C   UNL     1     -40.884 -46.610  10.614  1.00  0.00     0.329 C 
HETATM   23  H   UNL     1     -41.341 -44.898   9.619  1.00  0.00     0.173 HD
HETATM   24  O   UNL     1     -39.720 -46.275  10.828  1.00  0.00    -0.246 OA
ENDBRANCH  14  15
ENDBRANCH   1  14
TORSDOF 7
ENDMDL
MODEL 4
REMARK VINA RESULT:      -6.3      1.785      2.304
REMARK  7 active torsions:
REMARK  status: ('A' for Active; 'I' for Inactive)
REMARK    1  A    between atoms: O_1  and  C_2 
REMARK    2  A    between atoms: C_2  and  C_3 
REMARK    3  A    between atoms: C_2  and  C_13 
REMARK    4  A    between atoms: C_3  and  O_4 
REMARK    5  A    between atoms: O_4  and  C_5 
REMARK    6  A    between atoms: C_5  and  C_6 
REMARK    7  A    between atoms: C_13  and  N_14 
ROOT
HETATM    1  C   UNL     1     -40.769 -50.312  11.772  1.00  0.00     0.160 C 
ENDROOT
BRANCH   1   2
HETATM    2  O   UNL     1     -40.377 -50.065  10.412  1.00  0.00    -0.392 OA
HETATM    3  H   UNL     1     -39.702 -50.728  10.182  1.00  0.00     0.210 HD
ENDBRANCH   1   2
BRANCH   1   4
HETATM    4  C   UNL     1     -39.774 -51.311  12.384  1.00  0.00     0.201 C 
BRANCH   4   5
HETATM    5  O   UNL     1     -40.233 -52.649  12.237  1.00  0.00    -0.384 OA
BRANCH   5   6
HETATM    6  C   UNL     1     -40.367 -53.306  13.498  1.00  0.00     0.206 C 
BRANCH   6   7
HETATM    7  C   UNL     1     -41.791 -53.777  13.652  1.00  0.00    -0.035 A 
HETATM    8  C   UNL     1     -42.168 -54.577  14.740  1.00  0.00     0.011 A 
HETATM    9  C   UNL     1     -43.485 -55.027  14.866  1.00  0.00     0.024 A 
HETATM   10  C   UNL     1     -44.432 -54.674  13.908  1.00  0.00     0.034 A 
HETATM   11 CL   UNL     1     -46.049 -55.247  14.051  1.00  0.00    -0.084 Cl
HETATM   12  C   UNL     1     -44.079 -53.864  12.831  1.00  0.00     0.024 A 
HETATM   13  C   UNL     1     -42.762 -53.416  12.705  1.00  0.00     0.011 A 
ENDBRANCH   6   7
ENDBRANCH   5   6
ENDBRANCH   4   5
ENDBRANCH   1   4
BRANCH   1  14
HETATM   14  C   UNL     1     -40.770 -48.991  12.561  1.00  0.00     0.167 C 
BRANCH  14  15
HETATM   15  N   UNL     1     -41.280 -47.841  11.796  1.00  0.00    -0.305 N 
HETATM   16  C   UNL     1     -40.382 -46.925  11.277  1.00  0.00     0.125 C 
HETATM   17  C   UNL     1     -40.778 -45.808  10.656  1.00  0.00     0.117 C 
HETATM   18 CL   UNL     1     -39.664 -44.663  10.033  1.00  0.00    -0.077 Cl
HETATM   19  C   UNL     1     -42.232 -45.545  10.539  1.00  0.00     0.272 C 
HETATM   20  O   UNL     1     -42.694 -44.494  10.107  1.00  0.00    -0.266 OA
HETATM   21  N   UNL     1     -43.047 -46.563  10.962  1.00  0.00    -0.274 N 
HETATM   22  C   UNL     1     -42.650 -47.698  11.622  1.00  0.00     0.329 C 
HETATM   23  H   UNL     1     -44.041 -46.410  10.890  1.00  0.00     0.173 HD
HETATM   24  O   UNL     1     -43.485 -48.501  12.031  1.00  0.00    -0.246 OA
ENDBRANCH  14  15
ENDBRANCH   1  14
TORSDOF 7
ENDMDL
MODEL 5
REMARK VINA RESULT:      -6.3      2.732      4.113
REMARK  7 active torsions:
REMARK  status: ('A' for Active; 'I' for Inactive)
REMARK    1  A    between atoms: O_1  and  C_2 
REMARK    2  A    between atoms: C_2  and  C_3 
REMARK    3  A    between atoms: C_2  and  C_13 
REMARK    4  A    between atoms: C_3  and  O_4 
REMARK    5  A    between atoms: O_4  and  C_5 
REMARK    6  A    between atoms: C_5  and  C_6 
REMARK    7  A    between atoms: C_13  and  N_14 
ROOT
HETATM    1  C   UNL     1     -39.780 -53.920  13.877  1.00  0.00     0.160 C 
ENDROOT
BRANCH   1   2
HETATM    2  O   UNL     1     -38.514 -54.454  13.455  1.00  0.00    -0.392 OA
HETATM    3  H   UNL     1     -38.397 -54.212  12.519  1.00  0.00     0.210 HD
ENDBRANCH   1   2
BRANCH   1   4
HETATM    4  C   UNL     1     -40.340 -54.829  14.983  1.00  0.00     0.201 C 
BRANCH   4   5
HETATM    5  O   UNL     1     -41.559 -54.312  15.503  1.00  0.00    -0.384 OA
BRANCH   5   6
HETATM    6  C   UNL     1     -42.669 -55.154  15.191  1.00  0.00     0.206 C 
BRANCH   6   7
HETATM    7  C   UNL     1     -43.682 -54.354  14.412  1.00  0.00    -0.035 A 
HETATM    8  C   UNL     1     -44.932 -54.046  14.967  1.00  0.00     0.011 A 
HETATM    9  C   UNL     1     -45.874 -53.320  14.232  1.00  0.00     0.024 A 
HETATM   10  C   UNL     1     -45.567 -52.893  12.942  1.00  0.00     0.034 A 
HETATM   11 CL   UNL     1     -46.735 -52.019  12.029  1.00  0.00    -0.084 Cl
HETATM   12  C   UNL     1     -44.323 -53.175  12.383  1.00  0.00     0.024 A 
HETATM   13  C   UNL     1     -43.382 -53.901  13.118  1.00  0.00     0.011 A 
ENDBRANCH   6   7
ENDBRANCH   5   6
ENDBRANCH   4   5
ENDBRANCH   1   4
BRANCH   1  14
HETATM   14  C   UNL     1     -39.590 -52.484  14.397  1.00  0.00     0.167 C 
BRANCH  14  15
HETATM   15  N   UNL     1     -39.983 -51.444  13.431  1.00  0.00    -0.305 N 
HETATM   16  C   UNL     1     -41.255 -50.904  13.504  1.00  0.00     0.125 C 
HETATM   17  C   UNL     1     -41.712 -50.028  12.602  1.00  0.00     0.117 C 
HETATM   18 CL   UNL     1     -43.297 -49.377  12.680  1.00  0.00    -0.077 Cl
HETATM   19  C   UNL     1     -40.823 -49.641  11.481  1.00  0.00     0.272 C 
HETATM   20  O   UNL     1     -41.190 -48.951  10.536  1.00  0.00    -0.266 OA
HETATM   21  N   UNL     1     -39.540 -50.120  11.560  1.00  0.00    -0.274 N 
HETATM   22  C   UNL     1     -39.073 -51.037  12.466  1.00  0.00     0.329 C 
HETATM   23  H   UNL     1     -38.914 -49.868  10.811  1.00  0.00     0.173 HD
HETATM   24  O   UNL     1     -37.921 -51.458  12.382  1.00  0.00    -0.246 OA
ENDBRANCH  14  15
ENDBRANCH   1  14
TORSDOF 7
ENDMDL
MODEL 6
REMARK VINA RESULT:      -6.1      4.303      6.599
REMARK  7 active torsions:
REMARK  status: ('A' for Active; 'I' for Inactive)
REMARK    1  A    between atoms: O_1  and  C_2 
REMARK    2  A    between atoms: C_2  and  C_3 
REMARK    3  A    between atoms: C_2  and  C_13 
REMARK    4  A    between atoms: C_3  and  O_4 
REMARK    5  A    between atoms: O_4  and  C_5 
REMARK    6  A    between atoms: C_5  and  C_6 
REMARK    7  A    between atoms: C_13  and  N_14 
ROOT
HETATM    1  C   UNL     1     -40.355 -52.314  13.340  1.00  0.00     0.160 C 
ENDROOT
BRANCH   1   2
HETATM    2  O   UNL     1     -38.944 -52.062  13.237  1.00  0.00    -0.392 OA
HETATM    3  H   UNL     1     -38.648 -52.423  12.382  1.00  0.00     0.210 HD
ENDBRANCH   1   2
BRANCH   1   4
HETATM    4  C   UNL     1     -41.014 -51.901  12.014  1.00  0.00     0.201 C 
BRANCH   4   5
HETATM    5  O   UNL     1     -42.415 -51.718  12.173  1.00  0.00    -0.384 OA
BRANCH   5   6
HETATM    6  C   UNL     1     -42.714 -50.554  12.944  1.00  0.00     0.206 C 
BRANCH   6   7
HETATM    7  C   UNL     1     -43.943 -50.824  13.774  1.00  0.00    -0.035 A 
HETATM    8  C   UNL     1     -45.130 -51.270  13.175  1.00  0.00     0.011 A 
HETATM    9  C   UNL     1     -46.271 -51.500  13.948  1.00  0.00     0.024 A 
HETATM   10  C   UNL     1     -46.230 -51.290  15.324  1.00  0.00     0.034 A 
HETATM   11 CL   UNL     1     -47.642 -51.551  16.273  1.00  0.00    -0.084 Cl
HETATM   12  C   UNL     1     -45.054 -50.865  15.938  1.00  0.00     0.024 A 
HETATM   13  C   UNL     1     -43.914 -50.634  15.164  1.00  0.00     0.011 A 
ENDBRANCH   6   7
ENDBRANCH   5   6
ENDBRANCH   4   5
ENDBRANCH   1   4
BRANCH   1  14
HETATM   14  C   UNL     1     -40.596 -53.806  13.627  1.00  0.00     0.167 C 
BRANCH  14  15
HETATM   15  N   UNL     1     -41.768 -54.066  14.479  1.00  0.00    -0.305 N 
HETATM   16  C   UNL     1     -42.953 -54.472  13.890  1.00  0.00     0.125 C 
HETATM   17  C   UNL     1     -44.081 -54.632  14.591  1.00  0.00     0.117 C 
HETATM   18 CL   UNL     1     -45.554 -55.114  13.855  1.00  0.00    -0.077 Cl
HETATM   19  C   UNL     1     -44.055 -54.349  16.045  1.00  0.00     0.272 C 
HETATM   20  O   UNL     1     -45.060 -54.339  16.749  1.00  0.00    -0.266 OA
HETATM   21  N   UNL     1     -42.815 -54.081  16.566  1.00  0.00    -0.274 N 
HETATM   22  C   UNL     1     -41.660 -53.890  15.852  1.00  0.00     0.329 C 
HETATM   23  H   UNL     1     -42.769 -53.888  17.555  1.00  0.00     0.173 HD
HETATM   24  O   UNL     1     -40.622 -53.567  16.427  1.00  0.00    -0.246 OA
ENDBRANCH  14  15
ENDBRANCH   1  14
TORSDOF 7
ENDMDL
MODEL 7
REMARK VINA RESULT:      -5.9      4.204      5.116
REMARK  7 active torsions:
REMARK  status: ('A' for Active; 'I' for Inactive)
REMARK    1  A    between atoms: O_1  and  C_2 
REMARK    2  A    between atoms: C_2  and  C_3 
REMARK    3  A    between atoms: C_2  and  C_13 
REMARK    4  A    between atoms: C_3  and  O_4 
REMARK    5  A    between atoms: O_4  and  C_5 
REMARK    6  A    between atoms: C_5  and  C_6 
REMARK    7  A    between atoms: C_13  and  N_14 
ROOT
HETATM    1  C   UNL     1     -40.935 -52.986  12.672  1.00  0.00     0.160 C 
ENDROOT
BRANCH   1   2
HETATM    2  O   UNL     1     -40.498 -53.372  11.359  1.00  0.00    -0.392 OA
HETATM    3  H   UNL     1     -39.612 -52.991  11.226  1.00  0.00     0.210 HD
ENDBRANCH   1   2
BRANCH   1   4
HETATM    4  C   UNL     1     -41.880 -54.076  13.203  1.00  0.00     0.201 C 
BRANCH   4   5
HETATM    5  O   UNL     1     -43.241 -53.701  13.034  1.00  0.00    -0.384 OA
BRANCH   5   6
HETATM    6  C   UNL     1     -43.409 -52.283  13.069  1.00  0.00     0.206 C 
BRANCH   6   7
HETATM    7  C   UNL     1     -44.546 -51.951  14.002  1.00  0.00    -0.035 A 
HETATM    8  C   UNL     1     -44.344 -51.901  15.389  1.00  0.00     0.011 A 
HETATM    9  C   UNL     1     -45.406 -51.611  16.250  1.00  0.00     0.024 A 
HETATM   10  C   UNL     1     -46.673 -51.365  15.727  1.00  0.00     0.034 A 
HETATM   11 CL   UNL     1     -47.986 -51.030  16.790  1.00  0.00    -0.084 Cl
HETATM   12  C   UNL     1     -46.887 -51.392  14.352  1.00  0.00     0.024 A 
HETATM   13  C   UNL     1     -45.825 -51.683  13.492  1.00  0.00     0.011 A 
ENDBRANCH   6   7
ENDBRANCH   5   6
ENDBRANCH   4   5
ENDBRANCH   1   4
BRANCH   1  14
HETATM   14  C   UNL     1     -39.716 -52.824  13.598  1.00  0.00     0.167 C 
BRANCH  14  15
HETATM   15  N   UNL     1     -39.265 -51.431  13.751  1.00  0.00    -0.305 N 
HETATM   16  C   UNL     1     -40.070 -50.534  14.431  1.00  0.00     0.125 C 
HETATM   17  C   UNL     1     -39.770 -49.233  14.524  1.00  0.00     0.117 C 
HETATM   18 CL   UNL     1     -40.780 -48.118  15.348  1.00  0.00    -0.077 Cl
HETATM   19  C   UNL     1     -38.539 -48.744  13.860  1.00  0.00     0.272 C 
HETATM   20  O   UNL     1     -38.245 -47.556  13.775  1.00  0.00    -0.266 OA
HETATM   21  N   UNL     1     -37.737 -49.718  13.323  1.00  0.00    -0.274 N 
HETATM   22  C   UNL     1     -38.050 -51.048  13.202  1.00  0.00     0.329 C 
HETATM   23  H   UNL     1     -36.891 -49.412  12.868  1.00  0.00     0.173 HD
HETATM   24  O   UNL     1     -37.282 -51.814  12.622  1.00  0.00    -0.246 OA
ENDBRANCH  14  15
ENDBRANCH   1  14
TORSDOF 7
ENDMDL
MODEL 8
REMARK VINA RESULT:      -5.9      2.103      2.865
REMARK  7 active torsions:
REMARK  status: ('A' for Active; 'I' for Inactive)
REMARK    1  A    between atoms: O_1  and  C_2 
REMARK    2  A    between atoms: C_2  and  C_3 
REMARK    3  A    between atoms: C_2  and  C_13 
REMARK    4  A    between atoms: C_3  and  O_4 
REMARK    5  A    between atoms: O_4  and  C_5 
REMARK    6  A    between atoms: C_5  and  C_6 
REMARK    7  A    between atoms: C_13  and  N_14 
ROOT
HETATM    1  C   UNL     1     -40.426 -51.980  12.516  1.00  0.00     0.160 C 
ENDROOT
BRANCH   1   2
HETATM    2  O   UNL     1     -40.491 -52.954  11.462  1.00  0.00    -0.392 OA
HETATM    3  H   UNL     1     -41.404 -52.948  11.121  1.00  0.00     0.210 HD
ENDBRANCH   1   2
BRANCH   1   4
HETATM    4  C   UNL     1     -40.178 -52.722  13.840  1.00  0.00     0.201 C 
BRANCH   4   5
HETATM    5  O   UNL     1     -40.832 -53.985  13.850  1.00  0.00    -0.384 OA
BRANCH   5   6
HETATM    6  C   UNL     1     -41.895 -54.024  14.802  1.00  0.00     0.206 C 
BRANCH   6   7
HETATM    7  C   UNL     1     -43.115 -53.380  14.195  1.00  0.00    -0.035 A 
HETATM    8  C   UNL     1     -43.727 -52.279  14.812  1.00  0.00     0.011 A 
HETATM    9  C   UNL     1     -44.869 -51.698  14.253  1.00  0.00     0.024 A 
HETATM   10  C   UNL     1     -45.401 -52.212  13.073  1.00  0.00     0.034 A 
HETATM   11 CL   UNL     1     -46.821 -51.510  12.398  1.00  0.00    -0.084 Cl
HETATM   12  C   UNL     1     -44.795 -53.293  12.438  1.00  0.00     0.024 A 
HETATM   13  C   UNL     1     -43.654 -53.874  12.997  1.00  0.00     0.011 A 
ENDBRANCH   6   7
ENDBRANCH   5   6
ENDBRANCH   4   5
ENDBRANCH   1   4
BRANCH   1  14
HETATM   14  C   UNL     1     -39.291 -50.981  12.231  1.00  0.00     0.167 C 
BRANCH  14  15
HETATM   15  N   UNL     1     -39.757 -49.607  11.979  1.00  0.00    -0.305 N 
HETATM   16  C   UNL     1     -40.840 -49.406  11.142  1.00  0.00     0.125 C 
HETATM   17  C   UNL     1     -41.256 -48.184  10.792  1.00  0.00     0.117 C 
HETATM   18 CL   UNL     1     -42.586 -47.937   9.737  1.00  0.00    -0.077 Cl
HETATM   19  C   UNL     1     -40.516 -47.011  11.313  1.00  0.00     0.272 C 
HETATM   20  O   UNL     1     -40.734 -45.860  10.950  1.00  0.00    -0.266 OA
HETATM   21  N   UNL     1     -39.542 -47.296  12.236  1.00  0.00    -0.274 N 
HETATM   22  C   UNL     1     -39.093 -48.546  12.579  1.00  0.00     0.329 C 
HETATM   23  H   UNL     1     -39.025 -46.515  12.609  1.00  0.00     0.173 HD
HETATM   24  O   UNL     1     -38.151 -48.673  13.359  1.00  0.00    -0.246 OA
ENDBRANCH  14  15
ENDBRANCH   1  14
TORSDOF 7
ENDMDL
MODEL 9
REMARK VINA RESULT:      -5.9      1.720      2.339
REMARK  7 active torsions:
REMARK  status: ('A' for Active; 'I' for Inactive)
REMARK    1  A    between atoms: O_1  and  C_2 
REMARK    2  A    between atoms: C_2  and  C_3 
REMARK    3  A    between atoms: C_2  and  C_13 
REMARK    4  A    between atoms: C_3  and  O_4 
REMARK    5  A    between atoms: O_4  and  C_5 
REMARK    6  A    between atoms: C_5  and  C_6 
REMARK    7  A    between atoms: C_13  and  N_14 
ROOT
HETATM    1  C   UNL     1     -41.708 -48.828  10.962  1.00  0.00     0.160 C 
ENDROOT
BRANCH   1   2
HETATM    2  O   UNL     1     -40.821 -49.568  10.106  1.00  0.00    -0.392 OA
HETATM    3  H   UNL     1     -40.641 -50.419  10.545  1.00  0.00     0.210 HD
ENDBRANCH   1   2
BRANCH   1   4
HETATM    4  C   UNL     1     -41.185 -48.938  12.404  1.00  0.00     0.201 C 
BRANCH   4   5
HETATM    5  O   UNL     1     -41.984 -49.827  13.173  1.00  0.00    -0.384 OA
BRANCH   5   6
HETATM    6  C   UNL     1     -41.339 -51.087  13.368  1.00  0.00     0.206 C 
BRANCH   6   7
HETATM    7  C   UNL     1     -42.392 -52.159  13.480  1.00  0.00    -0.035 A 
HETATM    8  C   UNL     1     -42.595 -52.842  14.688  1.00  0.00     0.011 A 
HETATM    9  C   UNL     1     -43.560 -53.849  14.780  1.00  0.00     0.024 A 
HETATM   10  C   UNL     1     -44.331 -54.173  13.666  1.00  0.00     0.034 A 
HETATM   11 CL   UNL     1     -45.503 -55.429  13.773  1.00  0.00    -0.084 Cl
HETATM   12  C   UNL     1     -44.155 -53.493  12.464  1.00  0.00     0.024 A 
HETATM   13  C   UNL     1     -43.190 -52.487  12.373  1.00  0.00     0.011 A 
ENDBRANCH   6   7
ENDBRANCH   5   6
ENDBRANCH   4   5
ENDBRANCH   1   4
BRANCH   1  14
HETATM   14  C   UNL     1     -41.758 -47.357  10.512  1.00  0.00     0.167 C 
BRANCH  14  15
HETATM   15  N   UNL     1     -43.088 -46.920  10.056  1.00  0.00    -0.305 N 
HETATM   16  C   UNL     1     -44.088 -47.862   9.895  1.00  0.00     0.125 C 
HETATM   17  C   UNL     1     -45.289 -47.552   9.394  1.00  0.00     0.117 C 
HETATM   18 CL   UNL     1     -46.520 -48.725   9.174  1.00  0.00    -0.077 Cl
HETATM   19  C   UNL     1     -45.542 -46.149   8.986  1.00  0.00     0.272 C 
HETATM   20  O   UNL     1     -46.557 -45.790   8.398  1.00  0.00    -0.266 OA
HETATM   21  N   UNL     1     -44.547 -45.260   9.301  1.00  0.00    -0.274 N 
HETATM   22  C   UNL     1     -43.305 -45.575   9.791  1.00  0.00     0.329 C 
HETATM   23  H   UNL     1     -44.695 -44.299   9.038  1.00  0.00     0.173 HD
HETATM   24  O   UNL     1     -42.462 -44.695   9.954  1.00  0.00    -0.246 OA
ENDBRANCH  14  15
ENDBRANCH   1  14
TORSDOF 7
ENDMDL
