MODEL 1
REMARK VINA RESULT:      -6.5      0.000      0.000
REMARK  6 active torsions:
REMARK  status: ('A' for Active; 'I' for Inactive)
REMARK    1  A    between atoms: C_2  and  C_3 
REMARK    2  A    between atoms: C_7  and  C_8 
REMARK    3  A    between atoms: C_8  and  C_9 
REMARK    4  A    between atoms: C_9  and  N_10 
REMARK       I    between atoms: N_10  and  C_11 
REMARK       I    between atoms: C_11  and  N_13 
REMARK    5  A    between atoms: C_16  and  C_17 
REMARK    6  A    between atoms: C_17  and  O_18 
ROOT
HETATM    1  N   UNL     1     -41.623 -50.802  11.651  1.00  0.00    -0.343 N 
HETATM    2  C   UNL     1     -41.307 -52.015  12.198  1.00  0.00     0.318 C 
HETATM    3  O   UNL     1     -40.141 -52.364  12.363  1.00  0.00    -0.247 OA
HETATM    4  N   UNL     1     -42.391 -52.799  12.552  1.00  0.00    -0.334 N 
HETATM    5  C   UNL     1     -43.794 -52.369  12.546  1.00  0.00     0.128 C 
HETATM    6  C   UNL     1     -44.404 -52.511  13.938  1.00  0.00     0.027 C 
HETATM    7  C   UNL     1     -44.240 -53.935  14.493  1.00  0.00     0.012 C 
HETATM    8  C   UNL     1     -42.753 -54.320  14.461  1.00  0.00     0.027 C 
HETATM    9  C   UNL     1     -42.144 -54.143  13.070  1.00  0.00     0.128 C 
HETATM   10  H   UNL     1     -42.446 -50.798  11.065  1.00  0.00     0.164 HD
ENDROOT
BRANCH   1  11
HETATM   11  C   UNL     1     -40.587 -49.886  11.204  1.00  0.00     0.131 C 
BRANCH  11  12
HETATM   12  C   UNL     1     -41.005 -48.414  11.250  1.00  0.00     0.084 C 
BRANCH  12  13
HETATM   13  C   UNL     1     -42.168 -48.125  10.348  1.00  0.00     0.052 A 
HETATM   14  N   UNL     1     -42.126 -48.163   9.030  1.00  0.00    -0.363 N 
HETATM   15  C   UNL     1     -43.346 -47.766   8.516  1.00  0.00     0.103 A 
ATOM     16  HN  UNL     1     -41.316 -48.442   8.476  1.00  0.00     0.165 HD
HETATM   17  C   UNL     1     -44.306 -47.424   9.445  1.00  0.00    -0.001 A 
HETATM   18  S   UNL     1     -43.678 -47.653  11.022  1.00  0.00    -0.080 SA
BRANCH  17  19
HETATM   19  C   UNL     1     -45.692 -46.910   9.231  1.00  0.00     0.043 C 
HETATM   20  C   UNL     1     -46.678 -48.025   8.924  1.00  0.00     0.010 C 
ENDBRANCH  17  19
ENDBRANCH  12  13
ENDBRANCH  11  12
ENDBRANCH   1  11
BRANCH   7  21
HETATM   21  C   UNL     1     -45.102 -54.959  13.741  1.00  0.00     0.168 C 
BRANCH  21  22
HETATM   22  O   UNL     1     -46.376 -55.091  14.357  1.00  0.00    -0.400 OA
HETATM   23  H   UNL     1     -46.502 -56.031  14.572  1.00  0.00     0.209 HD
ENDBRANCH  21  22
ENDBRANCH   7  21
TORSDOF 6
ENDMDL
MODEL 2
REMARK VINA RESULT:      -5.8      3.053      6.720
REMARK  6 active torsions:
REMARK  status: ('A' for Active; 'I' for Inactive)
REMARK    1  A    between atoms: C_2  and  C_3 
REMARK    2  A    between atoms: C_7  and  C_8 
REMARK    3  A    between atoms: C_8  and  C_9 
REMARK    4  A    between atoms: C_9  and  N_10 
REMARK       I    between atoms: N_10  and  C_11 
REMARK       I    between atoms: C_11  and  N_13 
REMARK    5  A    between atoms: C_16  and  C_17 
REMARK    6  A    between atoms: C_17  and  O_18 
ROOT
HETATM    1  N   UNL     1     -41.525 -50.581  11.590  1.00  0.00    -0.343 N 
HETATM    2  C   UNL     1     -40.698 -49.519  11.838  1.00  0.00     0.318 C 
HETATM    3  O   UNL     1     -39.532 -49.678  12.187  1.00  0.00    -0.247 OA
HETATM    4  N   UNL     1     -41.273 -48.273  11.658  1.00  0.00    -0.334 N 
HETATM    5  C   UNL     1     -42.596 -48.019  11.077  1.00  0.00     0.128 C 
HETATM    6  C   UNL     1     -42.477 -47.126   9.844  1.00  0.00     0.027 C 
HETATM    7  C   UNL     1     -41.722 -45.822  10.153  1.00  0.00     0.012 C 
HETATM    8  C   UNL     1     -40.355 -46.164  10.765  1.00  0.00     0.027 C 
HETATM    9  C   UNL     1     -40.484 -47.085  11.979  1.00  0.00     0.128 C 
HETATM   10  H   UNL     1     -42.491 -50.441  11.852  1.00  0.00     0.164 HD
ENDROOT
BRANCH   1  11
HETATM   11  C   UNL     1     -41.067 -51.948  11.766  1.00  0.00     0.131 C 
BRANCH  11  12
HETATM   12  C   UNL     1     -41.659 -52.644  12.993  1.00  0.00     0.084 C 
BRANCH  12  13
HETATM   13  C   UNL     1     -43.158 -52.585  13.010  1.00  0.00     0.052 A 
HETATM   14  N   UNL     1     -43.945 -53.176  12.131  1.00  0.00    -0.363 N 
HETATM   15  C   UNL     1     -45.262 -52.848  12.394  1.00  0.00     0.103 A 
ATOM     16  HN  UNL     1     -43.629 -53.781  11.373  1.00  0.00     0.165 HD
HETATM   17  C   UNL     1     -45.469 -52.009  13.468  1.00  0.00    -0.001 A 
HETATM   18  S   UNL     1     -43.965 -51.651  14.207  1.00  0.00    -0.080 SA
BRANCH  17  19
HETATM   19  C   UNL     1     -46.743 -51.426  13.984  1.00  0.00     0.043 C 
HETATM   20  C   UNL     1     -46.818 -51.463  15.502  1.00  0.00     0.010 C 
ENDBRANCH  17  19
ENDBRANCH  12  13
ENDBRANCH  11  12
ENDBRANCH   1  11
BRANCH   7  21
HETATM   21  C   UNL     1     -42.527 -44.882  11.062  1.00  0.00     0.168 C 
BRANCH  21  22
HETATM   22  O   UNL     1     -43.380 -44.047  10.290  1.00  0.00    -0.400 OA
HETATM   23  H   UNL     1     -42.911 -43.208  10.140  1.00  0.00     0.209 HD
ENDBRANCH  21  22
ENDBRANCH   7  21
TORSDOF 6
ENDMDL
MODEL 3
REMARK VINA RESULT:      -5.7      3.009      5.088
REMARK  6 active torsions:
REMARK  status: ('A' for Active; 'I' for Inactive)
REMARK    1  A    between atoms: C_2  and  C_3 
REMARK    2  A    between atoms: C_7  and  C_8 
REMARK    3  A    between atoms: C_8  and  C_9 
REMARK    4  A    between atoms: C_9  and  N_10 
REMARK       I    between atoms: N_10  and  C_11 
REMARK       I    between atoms: C_11  and  N_13 
REMARK    5  A    between atoms: C_16  and  C_17 
REMARK    6  A    between atoms: C_17  and  O_18 
ROOT
HETATM    1  N   UNL     1     -43.256 -49.667  12.268  1.00  0.00    -0.343 N 
HETATM    2  C   UNL     1     -43.426 -49.768  13.622  1.00  0.00     0.318 C 
HETATM    3  O   UNL     1     -42.870 -48.998  14.400  1.00  0.00    -0.247 OA
HETATM    4  N   UNL     1     -44.266 -50.787  14.033  1.00  0.00    -0.334 N 
HETATM    5  C   UNL     1     -45.092 -51.621  13.153  1.00  0.00     0.128 C 
HETATM    6  C   UNL     1     -46.567 -51.496  13.525  1.00  0.00     0.027 C 
HETATM    7  C   UNL     1     -46.812 -51.807  15.011  1.00  0.00     0.012 C 
HETATM    8  C   UNL     1     -45.910 -50.907  15.869  1.00  0.00     0.027 C 
HETATM    9  C   UNL     1     -44.439 -51.016  15.467  1.00  0.00     0.128 C 
HETATM   10  H   UNL     1     -43.244 -50.547  11.772  1.00  0.00     0.164 HD
ENDROOT
BRANCH   1  11
HETATM   11  C   UNL     1     -42.378 -48.663  11.692  1.00  0.00     0.131 C 
BRANCH  11  12
HETATM   12  C   UNL     1     -41.041 -49.222  11.201  1.00  0.00     0.084 C 
BRANCH  12  13
HETATM   13  C   UNL     1     -40.723 -50.553  11.814  1.00  0.00     0.052 A 
HETATM   14  N   UNL     1     -41.159 -51.713  11.363  1.00  0.00    -0.363 N 
HETATM   15  C   UNL     1     -40.745 -52.725  12.209  1.00  0.00     0.103 A 
ATOM     16  HN  UNL     1     -41.716 -51.843  10.518  1.00  0.00     0.165 HD
HETATM   17  C   UNL     1     -40.002 -52.329  13.300  1.00  0.00    -0.001 A 
HETATM   18  S   UNL     1     -39.770 -50.632  13.243  1.00  0.00    -0.080 SA
BRANCH  17  19
HETATM   19  C   UNL     1     -39.452 -53.148  14.422  1.00  0.00     0.043 C 
HETATM   20  C   UNL     1     -39.230 -54.597  14.019  1.00  0.00     0.010 C 
ENDBRANCH  17  19
ENDBRANCH  12  13
ENDBRANCH  11  12
ENDBRANCH   1  11
BRANCH   7  21
HETATM   21  C   UNL     1     -46.600 -53.292  15.339  1.00  0.00     0.168 C 
BRANCH  21  22
HETATM   22  O   UNL     1     -47.197 -54.115  14.346  1.00  0.00    -0.400 OA
HETATM   23  H   UNL     1     -47.441 -53.543  13.599  1.00  0.00     0.209 HD
ENDBRANCH  21  22
ENDBRANCH   7  21
TORSDOF 6
ENDMDL
MODEL 4
REMARK VINA RESULT:      -5.6      2.702      3.937
REMARK  6 active torsions:
REMARK  status: ('A' for Active; 'I' for Inactive)
REMARK    1  A    between atoms: C_2  and  C_3 
REMARK    2  A    between atoms: C_7  and  C_8 
REMARK    3  A    between atoms: C_8  and  C_9 
REMARK    4  A    between atoms: C_9  and  N_10 
REMARK       I    between atoms: N_10  and  C_11 
REMARK       I    between atoms: C_11  and  N_13 
REMARK    5  A    between atoms: C_16  and  C_17 
REMARK    6  A    between atoms: C_17  and  O_18 
ROOT
HETATM    1  N   UNL     1     -42.230 -50.652  12.120  1.00  0.00    -0.343 N 
HETATM    2  C   UNL     1     -42.990 -50.374  13.224  1.00  0.00     0.318 C 
HETATM    3  O   UNL     1     -42.897 -49.303  13.817  1.00  0.00    -0.247 OA
HETATM    4  N   UNL     1     -43.861 -51.379  13.604  1.00  0.00    -0.334 N 
HETATM    5  C   UNL     1     -44.144 -52.599  12.839  1.00  0.00     0.128 C 
HETATM    6  C   UNL     1     -45.632 -52.692  12.510  1.00  0.00     0.027 C 
HETATM    7  C   UNL     1     -46.505 -52.587  13.771  1.00  0.00     0.012 C 
HETATM    8  C   UNL     1     -46.149 -51.296  14.524  1.00  0.00     0.027 C 
HETATM    9  C   UNL     1     -44.652 -51.197  14.820  1.00  0.00     0.128 C 
HETATM   10  H   UNL     1     -41.940 -51.616  12.032  1.00  0.00     0.164 HD
ENDROOT
BRANCH   1  11
HETATM   11  C   UNL     1     -41.250 -49.701  11.623  1.00  0.00     0.131 C 
BRANCH  11  12
HETATM   12  C   UNL     1     -41.856 -48.569  10.791  1.00  0.00     0.084 C 
BRANCH  12  13
HETATM   13  C   UNL     1     -41.157 -47.261  11.017  1.00  0.00     0.052 A 
HETATM   14  N   UNL     1     -40.914 -46.365  10.080  1.00  0.00    -0.363 N 
HETATM   15  C   UNL     1     -40.184 -45.321  10.616  1.00  0.00     0.103 A 
ATOM     16  HN  UNL     1     -41.218 -46.433   9.109  1.00  0.00     0.165 HD
HETATM   17  C   UNL     1     -39.873 -45.430  11.955  1.00  0.00    -0.001 A 
HETATM   18  S   UNL     1     -40.558 -46.870  12.581  1.00  0.00    -0.080 SA
BRANCH  17  19
HETATM   19  C   UNL     1     -39.064 -44.519  12.818  1.00  0.00     0.043 C 
HETATM   20  C   UNL     1     -39.650 -43.118  12.882  1.00  0.00     0.010 C 
ENDBRANCH  17  19
ENDBRANCH  12  13
ENDBRANCH  11  12
ENDBRANCH   1  11
BRANCH   7  21
HETATM   21  C   UNL     1     -46.375 -53.820  14.677  1.00  0.00     0.168 C 
BRANCH  21  22
HETATM   22  O   UNL     1     -46.308 -55.008  13.900  1.00  0.00    -0.400 OA
HETATM   23  H   UNL     1     -47.121 -55.057  13.368  1.00  0.00     0.209 HD
ENDBRANCH  21  22
ENDBRANCH   7  21
TORSDOF 6
ENDMDL
MODEL 5
REMARK VINA RESULT:      -5.6      2.683      3.149
REMARK  6 active torsions:
REMARK  status: ('A' for Active; 'I' for Inactive)
REMARK    1  A    between atoms: C_2  and  C_3 
REMARK    2  A    between atoms: C_7  and  C_8 
REMARK    3  A    between atoms: C_8  and  C_9 
REMARK    4  A    between atoms: C_9  and  N_10 
REMARK       I    between atoms: N_10  and  C_11 
REMARK       I    between atoms: C_11  and  N_13 
REMARK    5  A    between atoms: C_16  and  C_17 
REMARK    6  A    between atoms: C_17  and  O_18 
ROOT
HETATM    1  N   UNL     1     -41.631 -50.859  11.708  1.00  0.00    -0.343 N 
HETATM    2  C   UNL     1     -41.294 -52.072  12.246  1.00  0.00     0.318 C 
HETATM    3  O   UNL     1     -40.123 -52.412  12.383  1.00  0.00    -0.247 OA
HETATM    4  N   UNL     1     -42.365 -52.863  12.624  1.00  0.00    -0.334 N 
HETATM    5  C   UNL     1     -43.770 -52.444  12.650  1.00  0.00     0.128 C 
HETATM    6  C   UNL     1     -44.347 -52.592  14.056  1.00  0.00     0.027 C 
HETATM    7  C   UNL     1     -44.159 -54.016  14.605  1.00  0.00     0.012 C 
HETATM    8  C   UNL     1     -42.671 -54.389  14.538  1.00  0.00     0.027 C 
HETATM    9  C   UNL     1     -42.095 -54.207  13.133  1.00  0.00     0.128 C 
HETATM   10  H   UNL     1     -42.468 -50.860  11.142  1.00  0.00     0.164 HD
ENDROOT
BRANCH   1  11
HETATM   11  C   UNL     1     -40.613 -49.935  11.239  1.00  0.00     0.131 C 
BRANCH  11  12
HETATM   12  C   UNL     1     -40.123 -48.961  12.313  1.00  0.00     0.084 C 
BRANCH  12  13
HETATM   13  C   UNL     1     -40.213 -47.532  11.866  1.00  0.00     0.052 A 
HETATM   14  N   UNL     1     -40.469 -47.144  10.631  1.00  0.00    -0.363 N 
HETATM   15  C   UNL     1     -40.396 -45.766  10.554  1.00  0.00     0.103 A 
ATOM     16  HN  UNL     1     -40.686 -47.766   9.853  1.00  0.00     0.165 HD
HETATM   17  C   UNL     1     -40.082 -45.114  11.728  1.00  0.00    -0.001 A 
HETATM   18  S   UNL     1     -39.916 -46.263  12.988  1.00  0.00    -0.080 SA
BRANCH  17  19
HETATM   19  C   UNL     1     -39.874 -43.657  11.978  1.00  0.00     0.043 C 
HETATM   20  C   UNL     1     -40.962 -42.805  11.344  1.00  0.00     0.010 C 
ENDBRANCH  17  19
ENDBRANCH  12  13
ENDBRANCH  11  12
ENDBRANCH   1  11
BRANCH   7  21
HETATM   21  C   UNL     1     -45.032 -55.044  13.871  1.00  0.00     0.168 C 
BRANCH  21  22
HETATM   22  O   UNL     1     -46.410 -54.797  14.114  1.00  0.00    -0.400 OA
HETATM   23  H   UNL     1     -46.506 -54.571  15.055  1.00  0.00     0.209 HD
ENDBRANCH  21  22
ENDBRANCH   7  21
TORSDOF 6
ENDMDL
MODEL 6
REMARK VINA RESULT:      -5.6      3.105      4.906
REMARK  6 active torsions:
REMARK  status: ('A' for Active; 'I' for Inactive)
REMARK    1  A    between atoms: C_2  and  C_3 
REMARK    2  A    between atoms: C_7  and  C_8 
REMARK    3  A    between atoms: C_8  and  C_9 
REMARK    4  A    between atoms: C_9  and  N_10 
REMARK       I    between atoms: N_10  and  C_11 
REMARK       I    between atoms: C_11  and  N_13 
REMARK    5  A    between atoms: C_16  and  C_17 
REMARK    6  A    between atoms: C_17  and  O_18 
ROOT
HETATM    1  N   UNL     1     -43.350 -49.351  12.250  1.00  0.00    -0.343 N 
HETATM    2  C   UNL     1     -43.503 -49.531  13.598  1.00  0.00     0.318 C 
HETATM    3  O   UNL     1     -43.020 -48.749  14.411  1.00  0.00    -0.247 OA
HETATM    4  N   UNL     1     -44.240 -50.645  13.961  1.00  0.00    -0.334 N 
HETATM    5  C   UNL     1     -44.986 -51.512  13.042  1.00  0.00     0.128 C 
HETATM    6  C   UNL     1     -46.465 -51.546  13.420  1.00  0.00     0.027 C 
HETATM    7  C   UNL     1     -46.671 -51.949  14.890  1.00  0.00     0.012 C 
HETATM    8  C   UNL     1     -45.856 -51.008  15.790  1.00  0.00     0.027 C 
HETATM    9  C   UNL     1     -44.383 -50.956  15.382  1.00  0.00     0.128 C 
HETATM   10  H   UNL     1     -43.256 -50.201  11.713  1.00  0.00     0.164 HD
ENDROOT
BRANCH   1  11
HETATM   11  C   UNL     1     -42.575 -48.241  11.723  1.00  0.00     0.131 C 
BRANCH  11  12
HETATM   12  C   UNL     1     -41.486 -48.664  10.734  1.00  0.00     0.084 C 
BRANCH  12  13
HETATM   13  C   UNL     1     -40.192 -48.990  11.420  1.00  0.00     0.052 A 
HETATM   14  N   UNL     1     -39.321 -49.886  10.998  1.00  0.00    -0.363 N 
HETATM   15  C   UNL     1     -38.285 -49.988  11.907  1.00  0.00     0.103 A 
ATOM     16  HN  UNL     1     -39.400 -50.420  10.133  1.00  0.00     0.165 HD
HETATM   17  C   UNL     1     -38.376 -49.174  13.016  1.00  0.00    -0.001 A 
HETATM   18  S   UNL     1     -39.786 -48.209  12.897  1.00  0.00    -0.080 SA
BRANCH  17  19
HETATM   19  C   UNL     1     -37.469 -49.077  14.199  1.00  0.00     0.043 C 
HETATM   20  C   UNL     1     -37.146 -47.635  14.556  1.00  0.00     0.010 C 
ENDBRANCH  17  19
ENDBRANCH  12  13
ENDBRANCH  11  12
ENDBRANCH   1  11
BRANCH   7  21
HETATM   21  C   UNL     1     -46.316 -53.421  15.147  1.00  0.00     0.168 C 
BRANCH  21  22
HETATM   22  O   UNL     1     -47.114 -54.277  14.341  1.00  0.00    -0.400 OA
HETATM   23  H   UNL     1     -47.165 -55.139  14.790  1.00  0.00     0.209 HD
ENDBRANCH  21  22
ENDBRANCH   7  21
TORSDOF 6
ENDMDL
MODEL 7
REMARK VINA RESULT:      -5.4      2.098      2.635
REMARK  6 active torsions:
REMARK  status: ('A' for Active; 'I' for Inactive)
REMARK    1  A    between atoms: C_2  and  C_3 
REMARK    2  A    between atoms: C_7  and  C_8 
REMARK    3  A    between atoms: C_8  and  C_9 
REMARK    4  A    between atoms: C_9  and  N_10 
REMARK       I    between atoms: N_10  and  C_11 
REMARK       I    between atoms: C_11  and  N_13 
REMARK    5  A    between atoms: C_16  and  C_17 
REMARK    6  A    between atoms: C_17  and  O_18 
ROOT
HETATM    1  N   UNL     1     -41.401 -50.053  13.333  1.00  0.00    -0.343 N 
HETATM    2  C   UNL     1     -42.731 -49.891  13.611  1.00  0.00     0.318 C 
HETATM    3  O   UNL     1     -43.235 -48.777  13.726  1.00  0.00    -0.247 OA
HETATM    4  N   UNL     1     -43.450 -51.066  13.742  1.00  0.00    -0.334 N 
HETATM    5  C   UNL     1     -42.949 -52.412  13.443  1.00  0.00     0.128 C 
HETATM    6  C   UNL     1     -43.811 -53.080  12.374  1.00  0.00     0.027 C 
HETATM    7  C   UNL     1     -45.298 -53.092  12.763  1.00  0.00     0.012 C 
HETATM    8  C   UNL     1     -45.750 -51.656  13.070  1.00  0.00     0.027 C 
HETATM    9  C   UNL     1     -44.860 -50.985  14.118  1.00  0.00     0.128 C 
HETATM   10  H   UNL     1     -40.966 -50.851  13.774  1.00  0.00     0.164 HD
ENDROOT
BRANCH   1  11
HETATM   11  C   UNL     1     -40.516 -48.908  13.199  1.00  0.00     0.131 C 
BRANCH  11  12
HETATM   12  C   UNL     1     -40.027 -48.673  11.768  1.00  0.00     0.084 C 
BRANCH  12  13
HETATM   13  C   UNL     1     -40.798 -47.587  11.076  1.00  0.00     0.052 A 
HETATM   14  N   UNL     1     -40.465 -46.311  11.074  1.00  0.00    -0.363 N 
HETATM   15  C   UNL     1     -41.435 -45.580  10.414  1.00  0.00     0.103 A 
ATOM     16  HN  UNL     1     -39.621 -45.923  11.496  1.00  0.00     0.165 HD
HETATM   17  C   UNL     1     -42.501 -46.303   9.922  1.00  0.00    -0.001 A 
HETATM   18  S   UNL     1     -42.261 -47.966  10.255  1.00  0.00    -0.080 SA
BRANCH  17  19
HETATM   19  C   UNL     1     -43.727 -45.824   9.217  1.00  0.00     0.043 C 
HETATM   20  C   UNL     1     -44.711 -46.951   8.947  1.00  0.00     0.010 C 
ENDBRANCH  17  19
ENDBRANCH  12  13
ENDBRANCH  11  12
ENDBRANCH   1  11
BRANCH   7  21
HETATM   21  C   UNL     1     -45.587 -54.036  13.939  1.00  0.00     0.168 C 
BRANCH  21  22
HETATM   22  O   UNL     1     -45.796 -55.364  13.476  1.00  0.00    -0.400 OA
HETATM   23  H   UNL     1     -45.981 -55.919  14.253  1.00  0.00     0.209 HD
ENDBRANCH  21  22
ENDBRANCH   7  21
TORSDOF 6
ENDMDL
MODEL 8
REMARK VINA RESULT:      -5.4      3.043      5.162
REMARK  6 active torsions:
REMARK  status: ('A' for Active; 'I' for Inactive)
REMARK    1  A    between atoms: C_2  and  C_3 
REMARK    2  A    between atoms: C_7  and  C_8 
REMARK    3  A    between atoms: C_8  and  C_9 
REMARK    4  A    between atoms: C_9  and  N_10 
REMARK       I    between atoms: N_10  and  C_11 
REMARK       I    between atoms: C_11  and  N_13 
REMARK    5  A    between atoms: C_16  and  C_17 
REMARK    6  A    between atoms: C_17  and  O_18 
ROOT
HETATM    1  N   UNL     1     -41.721 -50.893  11.758  1.00  0.00    -0.343 N 
HETATM    2  C   UNL     1     -41.365 -52.103  12.289  1.00  0.00     0.318 C 
HETATM    3  O   UNL     1     -40.188 -52.430  12.416  1.00  0.00    -0.247 OA
HETATM    4  N   UNL     1     -42.422 -52.909  12.673  1.00  0.00    -0.334 N 
HETATM    5  C   UNL     1     -43.832 -52.507  12.712  1.00  0.00     0.128 C 
HETATM    6  C   UNL     1     -44.396 -52.666  14.122  1.00  0.00     0.027 C 
HETATM    7  C   UNL     1     -44.187 -54.089  14.665  1.00  0.00     0.012 C 
HETATM    8  C   UNL     1     -42.694 -54.445  14.585  1.00  0.00     0.027 C 
HETATM    9  C   UNL     1     -42.132 -54.250  13.176  1.00  0.00     0.128 C 
HETATM   10  H   UNL     1     -42.562 -50.903  11.198  1.00  0.00     0.164 HD
ENDROOT
BRANCH   1  11
HETATM   11  C   UNL     1     -40.718 -49.955  11.284  1.00  0.00     0.131 C 
BRANCH  11  12
HETATM   12  C   UNL     1     -40.495 -48.766  12.221  1.00  0.00     0.084 C 
BRANCH  12  13
HETATM   13  C   UNL     1     -39.251 -48.919  13.046  1.00  0.00     0.052 A 
HETATM   14  N   UNL     1     -38.552 -50.033  13.154  1.00  0.00    -0.363 N 
HETATM   15  C   UNL     1     -37.519 -49.846  14.054  1.00  0.00     0.103 A 
ATOM     16  HN  UNL     1     -38.744 -50.899  12.650  1.00  0.00     0.165 HD
HETATM   17  C   UNL     1     -37.442 -48.594  14.628  1.00  0.00    -0.001 A 
HETATM   18  S   UNL     1     -38.677 -47.598  13.984  1.00  0.00    -0.080 SA
BRANCH  17  19
HETATM   19  C   UNL     1     -36.495 -48.083  15.663  1.00  0.00     0.043 C 
HETATM   20  C   UNL     1     -35.785 -49.208  16.398  1.00  0.00     0.010 C 
ENDBRANCH  17  19
ENDBRANCH  12  13
ENDBRANCH  11  12
ENDBRANCH   1  11
BRANCH   7  21
HETATM   21  C   UNL     1     -45.052 -55.127  13.935  1.00  0.00     0.168 C 
BRANCH  21  22
HETATM   22  O   UNL     1     -46.433 -54.841  14.112  1.00  0.00    -0.400 OA
HETATM   23  H   UNL     1     -46.647 -54.999  15.048  1.00  0.00     0.209 HD
ENDBRANCH  21  22
ENDBRANCH   7  21
TORSDOF 6
ENDMDL
MODEL 9
REMARK VINA RESULT:      -5.4      6.601     10.517
REMARK  6 active torsions:
REMARK  status: ('A' for Active; 'I' for Inactive)
REMARK    1  A    between atoms: C_2  and  C_3 
REMARK    2  A    between atoms: C_7  and  C_8 
REMARK    3  A    between atoms: C_8  and  C_9 
REMARK    4  A    between atoms: C_9  and  N_10 
REMARK       I    between atoms: N_10  and  C_11 
REMARK       I    between atoms: C_11  and  N_13 
REMARK    5  A    between atoms: C_16  and  C_17 
REMARK    6  A    between atoms: C_17  and  O_18 
ROOT
HETATM    1  N   UNL     1     -46.144 -54.479  18.006  1.00  0.00    -0.343 N 
HETATM    2  C   UNL     1     -44.901 -54.185  17.514  1.00  0.00     0.318 C 
HETATM    3  O   UNL     1     -43.906 -54.189  18.233  1.00  0.00    -0.247 OA
HETATM    4  N   UNL     1     -44.860 -53.894  16.161  1.00  0.00    -0.334 N 
HETATM    5  C   UNL     1     -45.975 -54.045  15.221  1.00  0.00     0.128 C 
HETATM    6  C   UNL     1     -45.599 -55.001  14.091  1.00  0.00     0.027 C 
HETATM    7  C   UNL     1     -44.303 -54.571  13.385  1.00  0.00     0.012 C 
HETATM    8  C   UNL     1     -43.185 -54.425  14.429  1.00  0.00     0.027 C 
HETATM    9  C   UNL     1     -43.585 -53.491  15.572  1.00  0.00     0.128 C 
HETATM   10  H   UNL     1     -46.903 -53.958  17.589  1.00  0.00     0.164 HD
ENDROOT
BRANCH   1  11
HETATM   11  C   UNL     1     -46.345 -54.774  19.414  1.00  0.00     0.131 C 
BRANCH  11  12
HETATM   12  C   UNL     1     -46.372 -56.271  19.732  1.00  0.00     0.084 C 
BRANCH  12  13
HETATM   13  C   UNL     1     -47.767 -56.784  19.930  1.00  0.00     0.052 A 
HETATM   14  N   UNL     1     -48.196 -57.969  19.538  1.00  0.00    -0.363 N 
HETATM   15  C   UNL     1     -49.548 -58.083  19.803  1.00  0.00     0.103 A 
ATOM     16  HN  UNL     1     -47.619 -58.689  19.105  1.00  0.00     0.165 HD
HETATM   17  C   UNL     1     -50.140 -56.985  20.391  1.00  0.00    -0.001 A 
HETATM   18  S   UNL     1     -48.953 -55.780  20.666  1.00  0.00    -0.080 SA
BRANCH  17  19
HETATM   19  C   UNL     1     -51.570 -56.760  20.756  1.00  0.00     0.043 C 
HETATM   20  C   UNL     1     -52.439 -57.968  20.444  1.00  0.00     0.010 C 
ENDBRANCH  17  19
ENDBRANCH  12  13
ENDBRANCH  11  12
ENDBRANCH   1  11
BRANCH   7  21
HETATM   21  C   UNL     1     -44.481 -53.283  12.568  1.00  0.00     0.168 C 
BRANCH  21  22
HETATM   22  O   UNL     1     -43.338 -53.039  11.761  1.00  0.00    -0.400 OA
HETATM   23  H   UNL     1     -43.473 -52.187  11.312  1.00  0.00     0.209 HD
ENDBRANCH  21  22
ENDBRANCH   7  21
TORSDOF 6
ENDMDL
