MODEL 1
REMARK VINA RESULT:      -5.9      0.000      0.000
REMARK  4 active torsions:
REMARK  status: ('A' for Active; 'I' for Inactive)
REMARK    1  A    between atoms: C_2  and  C_3 
REMARK    2  A    between atoms: C_3  and  C_4 
REMARK    3  A    between atoms: C_4  and  N_5 
REMARK       I    between atoms: N_5  and  C_6 
REMARK       I    between atoms: C_6  and  N_8 
REMARK    4  A    between atoms: N_8  and  C_9 
ROOT
HETATM    1  N   UNL     1     -40.659 -49.280  10.771  1.00  0.00    -0.342 N 
HETATM    2  C   UNL     1     -41.194 -50.159  11.701  1.00  0.00     0.321 C 
HETATM    3  O   UNL     1     -41.647 -49.763  12.770  1.00  0.00    -0.247 OA
HETATM    4  N   UNL     1     -41.084 -51.472  11.335  1.00  0.00    -0.290 N 
HETATM    5  H   UNL     1     -40.835 -49.517   9.806  1.00  0.00     0.164 HD
HETATM    6  H   UNL     1     -40.242 -51.720  10.825  1.00  0.00     0.172 HD
ENDROOT
BRANCH   4   7
HETATM    7  C   UNL     1     -41.631 -52.475  12.114  1.00  0.00     0.178 A 
HETATM    8  N   UNL     1     -42.881 -52.816  12.043  1.00  0.00    -0.346 N 
HETATM    9  C   UNL     1     -43.324 -53.747  12.942  1.00  0.00     0.107 A 
ATOM     10  HN  UNL     1     -43.506 -52.408  11.347  1.00  0.00     0.167 HD
HETATM   11  C   UNL     1     -42.555 -54.348  13.858  1.00  0.00     0.111 A 
HETATM   12  N   UNL     1     -41.206 -54.075  13.934  1.00  0.00    -0.325 N 
HETATM   13  C   UNL     1     -40.393 -54.698  14.958  1.00  0.00     0.159 C 
HETATM   14  C   UNL     1     -40.638 -53.137  13.079  1.00  0.00     0.291 A 
HETATM   15  O   UNL     1     -39.463 -52.790  13.046  1.00  0.00    -0.264 OA
ENDBRANCH   4   7
BRANCH   1  16
HETATM   16  C   UNL     1     -40.759 -47.888  11.158  1.00  0.00     0.133 C 
BRANCH  16  17
HETATM   17  C   UNL     1     -41.836 -47.050  10.506  1.00  0.00    -0.025 A 
HETATM   18  C   UNL     1     -42.861 -47.673   9.578  1.00  0.00     0.012 A 
HETATM   19  C   UNL     1     -43.283 -47.198  10.942  1.00  0.00     0.012 A 
BRANCH  17  20
HETATM   20  C   UNL     1     -41.365 -45.630  10.201  1.00  0.00     0.006 C 
HETATM   21  C   UNL     1     -39.891 -45.402  10.514  1.00  0.00     0.006 C 
ENDBRANCH  17  20
ENDBRANCH  16  17
ENDBRANCH   1  16
TORSDOF 4
ENDMDL
MODEL 2
REMARK VINA RESULT:      -5.9      2.513      3.379
REMARK  4 active torsions:
REMARK  status: ('A' for Active; 'I' for Inactive)
REMARK    1  A    between atoms: C_2  and  C_3 
REMARK    2  A    between atoms: C_3  and  C_4 
REMARK    3  A    between atoms: C_4  and  N_5 
REMARK       I    between atoms: N_5  and  C_6 
REMARK       I    between atoms: C_6  and  N_8 
REMARK    4  A    between atoms: N_8  and  C_9 
ROOT
HETATM    1  N   UNL     1     -40.552 -50.739  11.067  1.00  0.00    -0.342 N 
HETATM    2  C   UNL     1     -41.486 -51.211  11.978  1.00  0.00     0.321 C 
HETATM    3  O   UNL     1     -41.717 -50.616  13.025  1.00  0.00    -0.247 OA
HETATM    4  N   UNL     1     -42.033 -52.413  11.622  1.00  0.00    -0.290 N 
HETATM    5  H   UNL     1     -40.791 -50.880  10.096  1.00  0.00     0.164 HD
HETATM    6  H   UNL     1     -41.410 -53.061  11.149  1.00  0.00     0.172 HD
ENDROOT
BRANCH   4   7
HETATM    7  C   UNL     1     -43.034 -52.990  12.383  1.00  0.00     0.178 A 
HETATM    8  N   UNL     1     -44.284 -52.668  12.257  1.00  0.00    -0.346 N 
HETATM    9  C   UNL     1     -45.163 -53.231  13.141  1.00  0.00     0.107 A 
ATOM     10  HN  UNL     1     -44.598 -52.023  11.532  1.00  0.00     0.167 HD
HETATM   11  C   UNL     1     -44.827 -54.110  14.095  1.00  0.00     0.111 A 
HETATM   12  N   UNL     1     -43.525 -54.540  14.230  1.00  0.00    -0.325 N 
HETATM   13  C   UNL     1     -43.166 -55.456  15.292  1.00  0.00     0.159 C 
HETATM   14  C   UNL     1     -42.535 -54.032  13.395  1.00  0.00     0.291 A 
HETATM   15  O   UNL     1     -41.343 -54.314  13.412  1.00  0.00    -0.264 OA
ENDBRANCH   4   7
BRANCH   1  16
HETATM   16  C   UNL     1     -39.958 -49.474  11.442  1.00  0.00     0.133 C 
BRANCH  16  17
HETATM   17  C   UNL     1     -38.592 -49.500  12.091  1.00  0.00    -0.025 A 
HETATM   18  C   UNL     1     -37.816 -50.794  12.235  1.00  0.00     0.012 A 
HETATM   19  C   UNL     1     -37.355 -49.756  11.249  1.00  0.00     0.012 A 
BRANCH  17  20
HETATM   20  C   UNL     1     -38.451 -48.454  13.196  1.00  0.00     0.006 C 
HETATM   21  C   UNL     1     -38.941 -48.941  14.554  1.00  0.00     0.006 C 
ENDBRANCH  17  20
ENDBRANCH  16  17
ENDBRANCH   1  16
TORSDOF 4
ENDMDL
MODEL 3
REMARK VINA RESULT:      -5.7      2.401      6.251
REMARK  4 active torsions:
REMARK  status: ('A' for Active; 'I' for Inactive)
REMARK    1  A    between atoms: C_2  and  C_3 
REMARK    2  A    between atoms: C_3  and  C_4 
REMARK    3  A    between atoms: C_4  and  N_5 
REMARK       I    between atoms: N_5  and  C_6 
REMARK       I    between atoms: C_6  and  N_8 
REMARK    4  A    between atoms: N_8  and  C_9 
ROOT
HETATM    1  N   UNL     1     -43.840 -53.511  12.185  1.00  0.00    -0.342 N 
HETATM    2  C   UNL     1     -43.103 -52.350  12.369  1.00  0.00     0.321 C 
HETATM    3  O   UNL     1     -43.539 -51.412  13.029  1.00  0.00    -0.247 OA
HETATM    4  N   UNL     1     -41.919 -52.343  11.685  1.00  0.00    -0.290 N 
HETATM    5  H   UNL     1     -43.300 -54.364  12.169  1.00  0.00     0.164 HD
HETATM    6  H   UNL     1     -41.928 -52.803  10.780  1.00  0.00     0.172 HD
ENDROOT
BRANCH   4   7
HETATM    7  C   UNL     1     -41.029 -51.292  11.815  1.00  0.00     0.178 A 
HETATM    8  N   UNL     1     -41.254 -50.116  11.315  1.00  0.00    -0.346 N 
HETATM    9  C   UNL     1     -40.250 -49.194  11.419  1.00  0.00     0.107 A 
ATOM     10  HN  UNL     1     -42.141 -49.890  10.864  1.00  0.00     0.167 HD
HETATM   11  C   UNL     1     -39.076 -49.409  12.027  1.00  0.00     0.111 A 
HETATM   12  N   UNL     1     -38.810 -50.617  12.635  1.00  0.00    -0.325 N 
HETATM   13  C   UNL     1     -37.520 -50.855  13.251  1.00  0.00     0.159 C 
HETATM   14  C   UNL     1     -39.750 -51.641  12.589  1.00  0.00     0.291 A 
HETATM   15  O   UNL     1     -39.640 -52.762  13.073  1.00  0.00    -0.264 OA
ENDBRANCH   4   7
BRANCH   1  16
HETATM   16  C   UNL     1     -45.101 -53.520  12.895  1.00  0.00     0.133 C 
BRANCH  16  17
HETATM   17  C   UNL     1     -45.149 -54.211  14.240  1.00  0.00    -0.025 A 
HETATM   18  C   UNL     1     -45.660 -53.492  15.473  1.00  0.00     0.012 A 
HETATM   19  C   UNL     1     -46.486 -54.586  14.855  1.00  0.00     0.012 A 
BRANCH  17  20
HETATM   20  C   UNL     1     -44.017 -55.220  14.418  1.00  0.00     0.006 C 
HETATM   21  C   UNL     1     -42.927 -54.744  15.370  1.00  0.00     0.006 C 
ENDBRANCH  17  20
ENDBRANCH  16  17
ENDBRANCH   1  16
TORSDOF 4
ENDMDL
MODEL 4
REMARK VINA RESULT:      -5.6      2.167      6.693
REMARK  4 active torsions:
REMARK  status: ('A' for Active; 'I' for Inactive)
REMARK    1  A    between atoms: C_2  and  C_3 
REMARK    2  A    between atoms: C_3  and  C_4 
REMARK    3  A    between atoms: C_4  and  N_5 
REMARK       I    between atoms: N_5  and  C_6 
REMARK       I    between atoms: C_6  and  N_8 
REMARK    4  A    between atoms: N_8  and  C_9 
ROOT
HETATM    1  N   UNL     1     -42.284 -51.486  12.859  1.00  0.00    -0.342 N 
HETATM    2  C   UNL     1     -42.617 -50.177  12.541  1.00  0.00     0.321 C 
HETATM    3  O   UNL     1     -43.452 -49.553  13.187  1.00  0.00    -0.247 OA
HETATM    4  N   UNL     1     -41.990 -49.714  11.416  1.00  0.00    -0.290 N 
HETATM    5  H   UNL     1     -41.312 -51.725  12.729  1.00  0.00     0.164 HD
HETATM    6  H   UNL     1     -41.843 -50.396  10.679  1.00  0.00     0.172 HD
ENDROOT
BRANCH   4   7
HETATM    7  C   UNL     1     -42.154 -48.406  11.000  1.00  0.00     0.178 A 
HETATM    8  N   UNL     1     -43.281 -47.949  10.550  1.00  0.00    -0.346 N 
HETATM    9  C   UNL     1     -43.286 -46.668  10.069  1.00  0.00     0.107 A 
ATOM     10  HN  UNL     1     -44.127 -48.519  10.554  1.00  0.00     0.167 HD
HETATM   11  C   UNL     1     -42.224 -45.852  10.063  1.00  0.00     0.111 A 
HETATM   12  N   UNL     1     -41.019 -46.262  10.591  1.00  0.00    -0.325 N 
HETATM   13  C   UNL     1     -39.866 -45.386  10.540  1.00  0.00     0.159 C 
HETATM   14  C   UNL     1     -40.885 -47.548  11.103  1.00  0.00     0.291 A 
HETATM   15  O   UNL     1     -39.875 -48.044  11.588  1.00  0.00    -0.264 OA
ENDBRANCH   4   7
BRANCH   1  16
HETATM   16  C   UNL     1     -42.954 -51.987  14.040  1.00  0.00     0.133 C 
BRANCH  16  17
HETATM   17  C   UNL     1     -44.156 -52.884  13.843  1.00  0.00    -0.025 A 
HETATM   18  C   UNL     1     -44.228 -53.857  12.683  1.00  0.00     0.012 A 
HETATM   19  C   UNL     1     -44.038 -54.379  14.082  1.00  0.00     0.012 A 
BRANCH  17  20
HETATM   20  C   UNL     1     -45.455 -52.227  14.307  1.00  0.00     0.006 C 
HETATM   21  C   UNL     1     -46.284 -51.653  13.164  1.00  0.00     0.006 C 
ENDBRANCH  17  20
ENDBRANCH  16  17
ENDBRANCH   1  16
TORSDOF 4
ENDMDL
MODEL 5
REMARK VINA RESULT:      -5.5      2.426      6.276
REMARK  4 active torsions:
REMARK  status: ('A' for Active; 'I' for Inactive)
REMARK    1  A    between atoms: C_2  and  C_3 
REMARK    2  A    between atoms: C_3  and  C_4 
REMARK    3  A    between atoms: C_4  and  N_5 
REMARK       I    between atoms: N_5  and  C_6 
REMARK       I    between atoms: C_6  and  N_8 
REMARK    4  A    between atoms: N_8  and  C_9 
ROOT
HETATM    1  N   UNL     1     -43.164 -52.731  11.919  1.00  0.00    -0.342 N 
HETATM    2  C   UNL     1     -41.989 -52.133  12.352  1.00  0.00     0.321 C 
HETATM    3  O   UNL     1     -41.413 -52.514  13.366  1.00  0.00    -0.247 OA
HETATM    4  N   UNL     1     -41.612 -51.060  11.592  1.00  0.00    -0.290 N 
HETATM    5  H   UNL     1     -43.264 -52.804  10.917  1.00  0.00     0.164 HD
HETATM    6  H   UNL     1     -42.368 -50.491  11.224  1.00  0.00     0.172 HD
ENDROOT
BRANCH   4   7
HETATM    7  C   UNL     1     -40.426 -50.395  11.842  1.00  0.00     0.178 A 
HETATM    8  N   UNL     1     -39.264 -50.951  11.690  1.00  0.00    -0.346 N 
HETATM    9  C   UNL     1     -38.171 -50.224  12.074  1.00  0.00     0.107 A 
ATOM     10  HN  UNL     1     -39.169 -51.890  11.302  1.00  0.00     0.167 HD
HETATM   11  C   UNL     1     -38.218 -48.976  12.559  1.00  0.00     0.111 A 
HETATM   12  N   UNL     1     -39.419 -48.311  12.678  1.00  0.00    -0.325 N 
HETATM   13  C   UNL     1     -39.462 -46.979  13.245  1.00  0.00     0.159 C 
HETATM   14  C   UNL     1     -40.604 -48.950  12.329  1.00  0.00     0.291 A 
HETATM   15  O   UNL     1     -41.737 -48.485  12.396  1.00  0.00    -0.264 OA
ENDBRANCH   4   7
BRANCH   1  16
HETATM   16  C   UNL     1     -43.577 -53.859  12.726  1.00  0.00     0.133 C 
BRANCH  16  17
HETATM   17  C   UNL     1     -44.761 -53.671  13.649  1.00  0.00    -0.025 A 
HETATM   18  C   UNL     1     -45.719 -54.810  13.938  1.00  0.00     0.012 A 
HETATM   19  C   UNL     1     -44.776 -54.340  15.012  1.00  0.00     0.012 A 
BRANCH  17  20
HETATM   20  C   UNL     1     -45.331 -52.256  13.585  1.00  0.00     0.006 C 
HETATM   21  C   UNL     1     -46.512 -52.122  12.631  1.00  0.00     0.006 C 
ENDBRANCH  17  20
ENDBRANCH  16  17
ENDBRANCH   1  16
TORSDOF 4
ENDMDL
MODEL 6
REMARK VINA RESULT:      -5.4      2.563      4.174
REMARK  4 active torsions:
REMARK  status: ('A' for Active; 'I' for Inactive)
REMARK    1  A    between atoms: C_2  and  C_3 
REMARK    2  A    between atoms: C_3  and  C_4 
REMARK    3  A    between atoms: C_4  and  N_5 
REMARK       I    between atoms: N_5  and  C_6 
REMARK       I    between atoms: C_6  and  N_8 
REMARK    4  A    between atoms: N_8  and  C_9 
ROOT
HETATM    1  N   UNL     1     -40.715 -51.509  11.577  1.00  0.00    -0.342 N 
HETATM    2  C   UNL     1     -41.607 -52.131  12.439  1.00  0.00     0.321 C 
HETATM    3  O   UNL     1     -41.276 -52.465  13.572  1.00  0.00    -0.247 OA
HETATM    4  N   UNL     1     -42.822 -52.391  11.869  1.00  0.00    -0.290 N 
HETATM    5  H   UNL     1     -41.118 -50.801  10.981  1.00  0.00     0.164 HD
HETATM    6  H   UNL     1     -42.805 -52.643  10.885  1.00  0.00     0.172 HD
ENDROOT
BRANCH   4   7
HETATM    7  C   UNL     1     -43.851 -52.942  12.611  1.00  0.00     0.178 A 
HETATM    8  N   UNL     1     -44.039 -54.222  12.709  1.00  0.00    -0.346 N 
HETATM    9  C   UNL     1     -45.154 -54.638  13.383  1.00  0.00     0.107 A 
ATOM     10  HN  UNL     1     -43.383 -54.890  12.301  1.00  0.00     0.167 HD
HETATM   11  C   UNL     1     -46.037 -53.821  13.972  1.00  0.00     0.111 A 
HETATM   12  N   UNL     1     -45.851 -52.455  13.958  1.00  0.00    -0.325 N 
HETATM   13  C   UNL     1     -46.836 -51.580  14.561  1.00  0.00     0.159 C 
HETATM   14  C   UNL     1     -44.758 -51.909  13.295  1.00  0.00     0.291 A 
HETATM   15  O   UNL     1     -44.479 -50.720  13.193  1.00  0.00    -0.264 OA
ENDBRANCH   4   7
BRANCH   1  16
HETATM   16  C   UNL     1     -39.421 -51.242  12.169  1.00  0.00     0.133 C 
BRANCH  16  17
HETATM   17  C   UNL     1     -38.810 -49.876  11.944  1.00  0.00    -0.025 A 
HETATM   18  C   UNL     1     -37.571 -49.437  12.698  1.00  0.00     0.012 A 
HETATM   19  C   UNL     1     -37.477 -49.748  11.229  1.00  0.00     0.012 A 
BRANCH  17  20
HETATM   20  C   UNL     1     -39.859 -48.816  11.611  1.00  0.00     0.006 C 
HETATM   21  C   UNL     1     -40.387 -48.083  12.839  1.00  0.00     0.006 C 
ENDBRANCH  17  20
ENDBRANCH  16  17
ENDBRANCH   1  16
TORSDOF 4
ENDMDL
MODEL 7
REMARK VINA RESULT:      -5.4      3.348      6.040
REMARK  4 active torsions:
REMARK  status: ('A' for Active; 'I' for Inactive)
REMARK    1  A    between atoms: C_2  and  C_3 
REMARK    2  A    between atoms: C_3  and  C_4 
REMARK    3  A    between atoms: C_4  and  N_5 
REMARK       I    between atoms: N_5  and  C_6 
REMARK       I    between atoms: C_6  and  N_8 
REMARK    4  A    between atoms: N_8  and  C_9 
ROOT
HETATM    1  N   UNL     1     -44.071 -51.268  12.831  1.00  0.00    -0.342 N 
HETATM    2  C   UNL     1     -42.765 -51.675  13.064  1.00  0.00     0.321 C 
HETATM    3  O   UNL     1     -42.505 -52.816  13.431  1.00  0.00    -0.247 OA
HETATM    4  N   UNL     1     -41.849 -50.669  12.924  1.00  0.00    -0.290 N 
HETATM    5  H   UNL     1     -44.188 -50.626  12.060  1.00  0.00     0.164 HD
HETATM    6  H   UNL     1     -42.155 -49.747  13.217  1.00  0.00     0.172 HD
ENDROOT
BRANCH   4   7
HETATM    7  C   UNL     1     -40.494 -50.920  13.050  1.00  0.00     0.178 A 
HETATM    8  N   UNL     1     -39.992 -51.571  14.053  1.00  0.00    -0.346 N 
HETATM    9  C   UNL     1     -38.629 -51.660  14.117  1.00  0.00     0.107 A 
ATOM     10  HN  UNL     1     -40.587 -51.998  14.763  1.00  0.00     0.167 HD
HETATM   11  C   UNL     1     -37.788 -51.154  13.205  1.00  0.00     0.111 A 
HETATM   12  N   UNL     1     -38.268 -50.512  12.084  1.00  0.00    -0.325 N 
HETATM   13  C   UNL     1     -37.350 -49.931  11.127  1.00  0.00     0.159 C 
HETATM   14  C   UNL     1     -39.638 -50.350  11.910  1.00  0.00     0.291 A 
HETATM   15  O   UNL     1     -40.199 -49.792  10.974  1.00  0.00    -0.264 OA
ENDBRANCH   4   7
BRANCH   1  16
HETATM   16  C   UNL     1     -45.048 -52.323  12.991  1.00  0.00     0.133 C 
BRANCH  16  17
HETATM   17  C   UNL     1     -45.790 -52.405  14.306  1.00  0.00    -0.025 A 
HETATM   18  C   UNL     1     -45.654 -51.317  15.353  1.00  0.00     0.012 A 
HETATM   19  C   UNL     1     -46.943 -51.458  14.590  1.00  0.00     0.012 A 
BRANCH  17  20
HETATM   20  C   UNL     1     -45.965 -53.844  14.788  1.00  0.00     0.006 C 
HETATM   21  C   UNL     1     -45.476 -54.881  13.784  1.00  0.00     0.006 C 
ENDBRANCH  17  20
ENDBRANCH  16  17
ENDBRANCH   1  16
TORSDOF 4
ENDMDL
MODEL 8
REMARK VINA RESULT:      -5.3      1.657      2.486
REMARK  4 active torsions:
REMARK  status: ('A' for Active; 'I' for Inactive)
REMARK    1  A    between atoms: C_2  and  C_3 
REMARK    2  A    between atoms: C_3  and  C_4 
REMARK    3  A    between atoms: C_4  and  N_5 
REMARK       I    between atoms: N_5  and  C_6 
REMARK       I    between atoms: C_6  and  N_8 
REMARK    4  A    between atoms: N_8  and  C_9 
ROOT
HETATM    1  N   UNL     1     -41.474 -48.502  10.265  1.00  0.00    -0.342 N 
HETATM    2  C   UNL     1     -41.640 -49.496  11.219  1.00  0.00     0.321 C 
HETATM    3  O   UNL     1     -42.484 -49.400  12.103  1.00  0.00    -0.247 OA
HETATM    4  N   UNL     1     -40.731 -50.512  11.109  1.00  0.00    -0.290 N 
HETATM    5  H   UNL     1     -41.243 -48.831   9.339  1.00  0.00     0.164 HD
HETATM    6  H   UNL     1     -39.799 -50.243  10.812  1.00  0.00     0.172 HD
ENDROOT
BRANCH   4   7
HETATM    7  C   UNL     1     -40.801 -51.619  11.936  1.00  0.00     0.178 A 
HETATM    8  N   UNL     1     -41.680 -52.560  11.777  1.00  0.00    -0.346 N 
HETATM    9  C   UNL     1     -41.715 -53.546  12.724  1.00  0.00     0.107 A 
ATOM     10  HN  UNL     1     -42.317 -52.564  10.980  1.00  0.00     0.167 HD
HETATM   11  C   UNL     1     -40.888 -53.622  13.776  1.00  0.00     0.111 A 
HETATM   12  N   UNL     1     -39.892 -52.687  13.957  1.00  0.00    -0.325 N 
HETATM   13  C   UNL     1     -39.032 -52.755  15.121  1.00  0.00     0.159 C 
HETATM   14  C   UNL     1     -39.760 -51.629  13.065  1.00  0.00     0.291 A 
HETATM   15  O   UNL     1     -38.933 -50.726  13.112  1.00  0.00    -0.264 OA
ENDBRANCH   4   7
BRANCH   1  16
HETATM   16  C   UNL     1     -42.423 -47.416  10.382  1.00  0.00     0.133 C 
BRANCH  16  17
HETATM   17  C   UNL     1     -43.532 -47.333   9.358  1.00  0.00    -0.025 A 
HETATM   18  C   UNL     1     -43.520 -46.277   8.271  1.00  0.00     0.012 A 
HETATM   19  C   UNL     1     -43.263 -47.715   7.913  1.00  0.00     0.012 A 
BRANCH  17  20
HETATM   20  C   UNL     1     -44.884 -47.758   9.927  1.00  0.00     0.006 C 
HETATM   21  C   UNL     1     -46.062 -47.023   9.299  1.00  0.00     0.006 C 
ENDBRANCH  17  20
ENDBRANCH  16  17
ENDBRANCH   1  16
TORSDOF 4
ENDMDL
MODEL 9
REMARK VINA RESULT:      -5.2      2.321      6.881
REMARK  4 active torsions:
REMARK  status: ('A' for Active; 'I' for Inactive)
REMARK    1  A    between atoms: C_2  and  C_3 
REMARK    2  A    between atoms: C_3  and  C_4 
REMARK    3  A    between atoms: C_4  and  N_5 
REMARK       I    between atoms: N_5  and  C_6 
REMARK       I    between atoms: C_6  and  N_8 
REMARK    4  A    between atoms: N_8  and  C_9 
ROOT
HETATM    1  N   UNL     1     -43.656 -51.682  12.835  1.00  0.00    -0.342 N 
HETATM    2  C   UNL     1     -42.812 -50.584  12.923  1.00  0.00     0.321 C 
HETATM    3  O   UNL     1     -42.647 -49.986  13.981  1.00  0.00    -0.247 OA
HETATM    4  N   UNL     1     -42.276 -50.213  11.720  1.00  0.00    -0.290 N 
HETATM    5  H   UNL     1     -43.345 -52.413  12.211  1.00  0.00     0.164 HD
HETATM    6  H   UNL     1     -42.878 -50.330  10.912  1.00  0.00     0.172 HD
ENDROOT
BRANCH   4   7
HETATM    7  C   UNL     1     -41.357 -49.183  11.641  1.00  0.00     0.178 A 
HETATM    8  N   UNL     1     -40.169 -49.260  12.157  1.00  0.00    -0.346 N 
HETATM    9  C   UNL     1     -39.393 -48.135  12.105  1.00  0.00     0.107 A 
ATOM     10  HN  UNL     1     -39.829 -50.123  12.584  1.00  0.00     0.167 HD
HETATM   11  C   UNL     1     -39.761 -46.981  11.533  1.00  0.00     0.111 A 
HETATM   12  N   UNL     1     -40.985 -46.864  10.909  1.00  0.00    -0.325 N 
HETATM   13  C   UNL     1     -41.390 -45.598  10.332  1.00  0.00     0.159 C 
HETATM   14  C   UNL     1     -41.868 -47.937  10.903  1.00  0.00     0.291 A 
HETATM   15  O   UNL     1     -42.986 -47.967  10.400  1.00  0.00    -0.264 OA
ENDBRANCH   4   7
BRANCH   1  16
HETATM   16  C   UNL     1     -44.238 -52.073  14.101  1.00  0.00     0.133 C 
BRANCH  16  17
HETATM   17  C   UNL     1     -45.157 -53.275  14.115  1.00  0.00    -0.025 A 
HETATM   18  C   UNL     1     -44.877 -54.486  13.246  1.00  0.00     0.012 A 
HETATM   19  C   UNL     1     -44.692 -54.580  14.736  1.00  0.00     0.012 A 
BRANCH  17  20
HETATM   20  C   UNL     1     -46.615 -52.892  14.361  1.00  0.00     0.006 C 
HETATM   21  C   UNL     1     -46.809 -51.408  14.650  1.00  0.00     0.006 C 
ENDBRANCH  17  20
ENDBRANCH  16  17
ENDBRANCH   1  16
TORSDOF 4
ENDMDL
