MODEL 1
REMARK VINA RESULT:      -6.8      0.000      0.000
REMARK  5 active torsions:
REMARK  status: ('A' for Active; 'I' for Inactive)
REMARK    1  A    between atoms: C_8  and  N_9 
REMARK       I    between atoms: N_9  and  C_10 
REMARK       I    between atoms: C_10  and  N_12 
REMARK    2  A    between atoms: N_12  and  C_13 
REMARK    3  A    between atoms: C_13  and  C_18 
REMARK       I    between atoms: C_18  and  N_20 
REMARK    4  A    between atoms: N_20  and  C_21 
REMARK    5  A    between atoms: C_21  and  C_22 
ROOT
HETATM    1  N   UNL     1     -40.368 -49.830  10.774  1.00  0.00    -0.313 N 
HETATM    2  C   UNL     1     -41.300 -48.829  10.959  1.00  0.00     0.299 C 
HETATM    3  O   UNL     1     -41.700 -48.414  12.043  1.00  0.00    -0.254 OA
HETATM    4  N   UNL     1     -41.816 -48.342   9.772  1.00  0.00    -0.226 NA
HETATM    5  H   UNL     1     -40.025 -49.958   9.836  1.00  0.00     0.170 HD
HETATM    6  H   UNL     1     -41.105 -48.161   9.078  1.00  0.00     0.133 HD
ENDROOT
BRANCH   4   7
HETATM    7  C   UNL     1     -42.850 -47.282   9.852  1.00  0.00     0.100 C 
HETATM    8  C   UNL     1     -44.141 -47.781  10.537  1.00  0.00     0.035 C 
HETATM    9  C   UNL     1     -45.326 -47.193   9.771  1.00  0.00     0.002 C 
HETATM   10  C   UNL     1     -44.744 -46.355   8.647  1.00  0.00     0.002 C 
HETATM   11  C   UNL     1     -43.336 -46.895   8.443  1.00  0.00     0.035 C 
BRANCH   7  12
HETATM   12  C   UNL     1     -42.171 -46.023  10.495  1.00  0.00     0.241 C 
HETATM   13  O   UNL     1     -41.327 -45.376   9.869  1.00  0.00    -0.271 OA
HETATM   14  N   UNL     1     -42.688 -45.587  11.694  1.00  0.00    -0.359 N 
HETATM   15  H   UNL     1     -43.199 -46.240  12.273  1.00  0.00     0.162 HD
BRANCH  14  16
HETATM   16  C   UNL     1     -42.176 -44.411  12.357  1.00  0.00     0.127 C 
BRANCH  16  17
HETATM   17  C   UNL     1     -41.136 -44.819  13.358  1.00  0.00     0.003 A 
HETATM   18  C   UNL     1     -40.215 -43.793  13.975  1.00  0.00     0.007 A 
HETATM   19  C   UNL     1     -39.673 -44.787  12.990  1.00  0.00     0.007 A 
ENDBRANCH  16  17
ENDBRANCH  14  16
ENDBRANCH   7  12
ENDBRANCH   4   7
BRANCH   1  20
HETATM   20  C   UNL     1     -39.785 -50.613  11.814  1.00  0.00     0.044 A 
HETATM   21  C   UNL     1     -38.417 -50.506  12.113  1.00  0.00    -0.020 A 
HETATM   22  C   UNL     1     -37.451 -49.619  11.387  1.00  0.00     0.052 C 
HETATM   23  C   UNL     1     -37.922 -51.310  13.145  1.00  0.00     0.096 A 
HETATM   24  N   UNL     1     -38.655 -52.175  13.877  1.00  0.00    -0.375 N 
HETATM   25  C   UNL     1     -39.958 -52.259  13.559  1.00  0.00     0.090 A 
ATOM     26  HN  UNL     1     -38.245 -52.731  14.627  1.00  0.00     0.164 HD
HETATM   27  C   UNL     1     -40.550 -51.521  12.550  1.00  0.00     0.047 A 
ENDBRANCH   1  20
TORSDOF 5
ENDMDL
MODEL 2
REMARK VINA RESULT:      -6.6      1.042      2.073
REMARK  5 active torsions:
REMARK  status: ('A' for Active; 'I' for Inactive)
REMARK    1  A    between atoms: C_8  and  N_9 
REMARK       I    between atoms: N_9  and  C_10 
REMARK       I    between atoms: C_10  and  N_12 
REMARK    2  A    between atoms: N_12  and  C_13 
REMARK    3  A    between atoms: C_13  and  C_18 
REMARK       I    between atoms: C_18  and  N_20 
REMARK    4  A    between atoms: N_20  and  C_21 
REMARK    5  A    between atoms: C_21  and  C_22 
ROOT
HETATM    1  N   UNL     1     -40.295 -49.702  10.723  1.00  0.00    -0.313 N 
HETATM    2  C   UNL     1     -41.248 -48.718  10.895  1.00  0.00     0.299 C 
HETATM    3  O   UNL     1     -41.617 -48.260  11.973  1.00  0.00    -0.254 OA
HETATM    4  N   UNL     1     -41.822 -48.303   9.707  1.00  0.00    -0.226 NA
HETATM    5  H   UNL     1     -39.984 -49.866   9.779  1.00  0.00     0.170 HD
HETATM    6  H   UNL     1     -41.142 -48.138   8.978  1.00  0.00     0.133 HD
ENDROOT
BRANCH   4   7
HETATM    7  C   UNL     1     -42.882 -47.268   9.777  1.00  0.00     0.100 C 
HETATM    8  C   UNL     1     -44.132 -47.767  10.533  1.00  0.00     0.035 C 
HETATM    9  C   UNL     1     -45.360 -47.249   9.787  1.00  0.00     0.002 C 
HETATM   10  C   UNL     1     -44.844 -46.451   8.603  1.00  0.00     0.002 C 
HETATM   11  C   UNL     1     -43.429 -46.963   8.371  1.00  0.00     0.035 C 
BRANCH   7  12
HETATM   12  C   UNL     1     -42.215 -45.962  10.333  1.00  0.00     0.241 C 
HETATM   13  O   UNL     1     -41.281 -45.426   9.729  1.00  0.00    -0.271 OA
HETATM   14  N   UNL     1     -42.832 -45.363  11.409  1.00  0.00    -0.359 N 
HETATM   15  H   UNL     1     -43.429 -45.922  12.003  1.00  0.00     0.162 HD
BRANCH  14  16
HETATM   16  C   UNL     1     -42.337 -44.131  11.977  1.00  0.00     0.127 C 
BRANCH  16  17
HETATM   17  C   UNL     1     -43.009 -42.971  11.306  1.00  0.00     0.003 A 
HETATM   18  C   UNL     1     -42.263 -41.678  11.072  1.00  0.00     0.007 A 
HETATM   19  C   UNL     1     -43.359 -41.734  12.098  1.00  0.00     0.007 A 
ENDBRANCH  16  17
ENDBRANCH  14  16
ENDBRANCH   7  12
ENDBRANCH   4   7
BRANCH   1  20
HETATM   20  C   UNL     1     -39.651 -50.417  11.775  1.00  0.00     0.044 A 
HETATM   21  C   UNL     1     -40.291 -51.494  12.408  1.00  0.00    -0.020 A 
HETATM   22  C   UNL     1     -41.673 -51.977  12.085  1.00  0.00     0.052 C 
HETATM   23  C   UNL     1     -39.593 -52.141  13.434  1.00  0.00     0.096 A 
HETATM   24  N   UNL     1     -38.354 -51.815  13.857  1.00  0.00    -0.375 N 
HETATM   25  C   UNL     1     -37.774 -50.774  13.237  1.00  0.00     0.090 A 
ATOM     26  HN  UNL     1     -37.886 -52.328  14.604  1.00  0.00     0.164 HD
HETATM   27  C   UNL     1     -38.377 -50.055  12.220  1.00  0.00     0.047 A 
ENDBRANCH   1  20
TORSDOF 5
ENDMDL
MODEL 3
REMARK VINA RESULT:      -6.4      2.994      7.038
REMARK  5 active torsions:
REMARK  status: ('A' for Active; 'I' for Inactive)
REMARK    1  A    between atoms: C_8  and  N_9 
REMARK       I    between atoms: N_9  and  C_10 
REMARK       I    between atoms: C_10  and  N_12 
REMARK    2  A    between atoms: N_12  and  C_13 
REMARK    3  A    between atoms: C_13  and  C_18 
REMARK       I    between atoms: C_18  and  N_20 
REMARK    4  A    between atoms: N_20  and  C_21 
REMARK    5  A    between atoms: C_21  and  C_22 
ROOT
HETATM    1  N   UNL     1     -41.506 -49.434  10.693  1.00  0.00    -0.313 N 
HETATM    2  C   UNL     1     -41.683 -50.195  11.831  1.00  0.00     0.299 C 
HETATM    3  O   UNL     1     -42.220 -49.818  12.868  1.00  0.00    -0.254 OA
HETATM    4  N   UNL     1     -41.136 -51.462  11.728  1.00  0.00    -0.226 NA
HETATM    5  H   UNL     1     -41.191 -49.922   9.870  1.00  0.00     0.170 HD
HETATM    6  H   UNL     1     -41.356 -51.916  10.853  1.00  0.00     0.133 HD
ENDROOT
BRANCH   4   7
HETATM    7  C   UNL     1     -41.242 -52.357  12.905  1.00  0.00     0.100 C 
HETATM    8  C   UNL     1     -40.433 -51.830  14.110  1.00  0.00     0.035 C 
HETATM    9  C   UNL     1     -39.760 -53.030  14.775  1.00  0.00     0.002 C 
HETATM   10  C   UNL     1     -40.168 -54.255  13.974  1.00  0.00     0.002 C 
HETATM   11  C   UNL     1     -40.577 -53.714  12.612  1.00  0.00     0.035 C 
BRANCH   7  12
HETATM   12  C   UNL     1     -42.769 -52.609  13.158  1.00  0.00     0.241 C 
HETATM   13  O   UNL     1     -43.466 -53.155  12.298  1.00  0.00    -0.271 OA
HETATM   14  N   UNL     1     -43.236 -52.355  14.428  1.00  0.00    -0.359 N 
HETATM   15  H   UNL     1     -42.721 -51.716  15.019  1.00  0.00     0.162 HD
BRANCH  14  16
HETATM   16  C   UNL     1     -44.613 -52.594  14.791  1.00  0.00     0.127 C 
BRANCH  16  17
HETATM   17  C   UNL     1     -45.439 -51.400  14.416  1.00  0.00     0.003 A 
HETATM   18  C   UNL     1     -46.898 -51.320  14.801  1.00  0.00     0.007 A 
HETATM   19  C   UNL     1     -46.514 -51.521  13.363  1.00  0.00     0.007 A 
ENDBRANCH  16  17
ENDBRANCH  14  16
ENDBRANCH   7  12
ENDBRANCH   4   7
BRANCH   1  20
HETATM   20  C   UNL     1     -41.832 -48.051  10.569  1.00  0.00     0.044 A 
HETATM   21  C   UNL     1     -40.964 -47.061  11.056  1.00  0.00    -0.020 A 
HETATM   22  C   UNL     1     -39.667 -47.333  11.757  1.00  0.00     0.052 C 
HETATM   23  C   UNL     1     -41.359 -45.729  10.899  1.00  0.00     0.096 A 
HETATM   24  N   UNL     1     -42.504 -45.321  10.312  1.00  0.00    -0.375 N 
HETATM   25  C   UNL     1     -43.316 -46.294   9.865  1.00  0.00     0.090 A 
ATOM     26  HN  UNL     1     -42.738 -44.334  10.213  1.00  0.00     0.164 HD
HETATM   27  C   UNL     1     -43.031 -47.643   9.979  1.00  0.00     0.047 A 
ENDBRANCH   1  20
TORSDOF 5
ENDMDL
MODEL 4
REMARK VINA RESULT:      -6.4      2.160      7.045
REMARK  5 active torsions:
REMARK  status: ('A' for Active; 'I' for Inactive)
REMARK    1  A    between atoms: C_8  and  N_9 
REMARK       I    between atoms: N_9  and  C_10 
REMARK       I    between atoms: C_10  and  N_12 
REMARK    2  A    between atoms: N_12  and  C_13 
REMARK    3  A    between atoms: C_13  and  C_18 
REMARK       I    between atoms: C_18  and  N_20 
REMARK    4  A    between atoms: N_20  and  C_21 
REMARK    5  A    between atoms: C_21  and  C_22 
ROOT
HETATM    1  N   UNL     1     -41.612 -48.356   9.804  1.00  0.00    -0.313 N 
HETATM    2  C   UNL     1     -41.205 -48.850  11.027  1.00  0.00     0.299 C 
HETATM    3  O   UNL     1     -41.713 -48.583  12.112  1.00  0.00    -0.254 OA
HETATM    4  N   UNL     1     -40.092 -49.667  10.940  1.00  0.00    -0.226 NA
HETATM    5  H   UNL     1     -41.202 -48.781   8.988  1.00  0.00     0.170 HD
HETATM    6  H   UNL     1     -40.156 -50.340  10.190  1.00  0.00     0.133 HD
ENDROOT
BRANCH   4   7
HETATM    7  C   UNL     1     -39.549 -50.231  12.199  1.00  0.00     0.100 C 
HETATM    8  C   UNL     1     -39.361 -49.149  13.286  1.00  0.00     0.035 C 
HETATM    9  C   UNL     1     -38.046 -49.442  14.005  1.00  0.00     0.002 C 
HETATM   10  C   UNL     1     -37.461 -50.683  13.354  1.00  0.00     0.002 C 
HETATM   11  C   UNL     1     -38.117 -50.752  11.982  1.00  0.00     0.035 C 
BRANCH   7  12
HETATM   12  C   UNL     1     -40.457 -51.449  12.589  1.00  0.00     0.241 C 
HETATM   13  O   UNL     1     -40.216 -52.578  12.151  1.00  0.00    -0.271 OA
HETATM   14  N   UNL     1     -41.405 -51.227  13.563  1.00  0.00    -0.359 N 
HETATM   15  H   UNL     1     -41.723 -50.282  13.728  1.00  0.00     0.162 HD
BRANCH  14  16
HETATM   16  C   UNL     1     -42.266 -52.285  14.037  1.00  0.00     0.127 C 
BRANCH  16  17
HETATM   17  C   UNL     1     -43.580 -52.212  13.319  1.00  0.00     0.003 A 
HETATM   18  C   UNL     1     -44.730 -53.105  13.724  1.00  0.00     0.007 A 
HETATM   19  C   UNL     1     -44.020 -53.345  12.424  1.00  0.00     0.007 A 
ENDBRANCH  16  17
ENDBRANCH  14  16
ENDBRANCH   7  12
ENDBRANCH   4   7
BRANCH   1  20
HETATM   20  C   UNL     1     -42.632 -47.378   9.610  1.00  0.00     0.044 A 
HETATM   21  C   UNL     1     -42.394 -46.024   9.898  1.00  0.00    -0.020 A 
HETATM   22  C   UNL     1     -41.109 -45.481  10.445  1.00  0.00     0.052 C 
HETATM   23  C   UNL     1     -43.447 -45.129   9.684  1.00  0.00     0.096 A 
HETATM   24  N   UNL     1     -44.669 -45.463   9.218  1.00  0.00    -0.375 N 
HETATM   25  C   UNL     1     -44.866 -46.766   8.961  1.00  0.00     0.090 A 
ATOM     26  HN  UNL     1     -45.399 -44.767   9.070  1.00  0.00     0.164 HD
HETATM   27  C   UNL     1     -43.900 -47.739   9.148  1.00  0.00     0.047 A 
ENDBRANCH   1  20
TORSDOF 5
ENDMDL
MODEL 5
REMARK VINA RESULT:      -6.3      3.908      7.160
REMARK  5 active torsions:
REMARK  status: ('A' for Active; 'I' for Inactive)
REMARK    1  A    between atoms: C_8  and  N_9 
REMARK       I    between atoms: N_9  and  C_10 
REMARK       I    between atoms: C_10  and  N_12 
REMARK    2  A    between atoms: N_12  and  C_13 
REMARK    3  A    between atoms: C_13  and  C_18 
REMARK       I    between atoms: C_18  and  N_20 
REMARK    4  A    between atoms: N_20  and  C_21 
REMARK    5  A    between atoms: C_21  and  C_22 
ROOT
HETATM    1  N   UNL     1     -41.825 -49.499  11.137  1.00  0.00    -0.313 N 
HETATM    2  C   UNL     1     -42.369 -50.165  12.217  1.00  0.00     0.299 C 
HETATM    3  O   UNL     1     -42.774 -49.641  13.251  1.00  0.00    -0.254 OA
HETATM    4  N   UNL     1     -42.373 -51.539  12.062  1.00  0.00    -0.226 NA
HETATM    5  H   UNL     1     -41.680 -50.041  10.301  1.00  0.00     0.170 HD
HETATM    6  H   UNL     1     -42.700 -51.832  11.152  1.00  0.00     0.133 HD
ENDROOT
BRANCH   4   7
HETATM    7  C   UNL     1     -42.909 -52.358  13.176  1.00  0.00     0.100 C 
HETATM    8  C   UNL     1     -42.293 -51.963  14.536  1.00  0.00     0.035 C 
HETATM    9  C   UNL     1     -42.034 -53.250  15.317  1.00  0.00     0.002 C 
HETATM   10  C   UNL     1     -42.493 -54.395  14.432  1.00  0.00     0.002 C 
HETATM   11  C   UNL     1     -42.480 -53.828  13.019  1.00  0.00     0.035 C 
BRANCH   7  12
HETATM   12  C   UNL     1     -44.473 -52.296  13.084  1.00  0.00     0.241 C 
HETATM   13  O   UNL     1     -45.086 -53.027  12.301  1.00  0.00    -0.271 OA
HETATM   14  N   UNL     1     -45.118 -51.530  14.030  1.00  0.00    -0.359 N 
HETATM   15  H   UNL     1     -44.606 -50.790  14.491  1.00  0.00     0.162 HD
BRANCH  14  16
HETATM   16  C   UNL     1     -46.558 -51.434  14.074  1.00  0.00     0.127 C 
BRANCH  16  17
HETATM   17  C   UNL     1     -47.061 -52.102  15.318  1.00  0.00     0.003 A 
HETATM   18  C   UNL     1     -47.672 -51.290  16.437  1.00  0.00     0.007 A 
HETATM   19  C   UNL     1     -46.325 -51.927  16.625  1.00  0.00     0.007 A 
ENDBRANCH  16  17
ENDBRANCH  14  16
ENDBRANCH   7  12
ENDBRANCH   4   7
BRANCH   1  20
HETATM   20  C   UNL     1     -41.557 -48.099  11.084  1.00  0.00     0.044 A 
HETATM   21  C   UNL     1     -42.552 -47.192  10.686  1.00  0.00    -0.020 A 
HETATM   22  C   UNL     1     -43.938 -47.576  10.263  1.00  0.00     0.052 C 
HETATM   23  C   UNL     1     -42.209 -45.837  10.657  1.00  0.00     0.096 A 
HETATM   24  N   UNL     1     -41.000 -45.333  10.985  1.00  0.00    -0.375 N 
HETATM   25  C   UNL     1     -40.069 -46.229  11.352  1.00  0.00     0.090 A 
ATOM     26  HN  UNL     1     -40.806 -44.333  10.957  1.00  0.00     0.164 HD
HETATM   27  C   UNL     1     -40.295 -47.593  11.405  1.00  0.00     0.047 A 
ENDBRANCH   1  20
TORSDOF 5
ENDMDL
MODEL 6
REMARK VINA RESULT:      -6.2      4.015      6.319
REMARK  5 active torsions:
REMARK  status: ('A' for Active; 'I' for Inactive)
REMARK    1  A    between atoms: C_8  and  N_9 
REMARK       I    between atoms: N_9  and  C_10 
REMARK       I    between atoms: C_10  and  N_12 
REMARK    2  A    between atoms: N_12  and  C_13 
REMARK    3  A    between atoms: C_13  and  C_18 
REMARK       I    between atoms: C_18  and  N_20 
REMARK    4  A    between atoms: N_20  and  C_21 
REMARK    5  A    between atoms: C_21  and  C_22 
ROOT
HETATM    1  N   UNL     1     -44.287 -52.439  12.411  1.00  0.00    -0.313 N 
HETATM    2  C   UNL     1     -43.086 -51.927  12.859  1.00  0.00     0.299 C 
HETATM    3  O   UNL     1     -42.547 -52.196  13.929  1.00  0.00    -0.254 OA
HETATM    4  N   UNL     1     -42.534 -51.001  11.992  1.00  0.00    -0.226 NA
HETATM    5  H   UNL     1     -44.528 -52.249  11.452  1.00  0.00     0.170 HD
HETATM    6  H   UNL     1     -42.554 -51.303  11.028  1.00  0.00     0.133 HD
ENDROOT
BRANCH   4   7
HETATM    7  C   UNL     1     -41.255 -50.363  12.387  1.00  0.00     0.100 C 
HETATM    8  C   UNL     1     -40.074 -51.357  12.350  1.00  0.00     0.035 C 
HETATM    9  C   UNL     1     -39.195 -51.074  13.567  1.00  0.00     0.002 C 
HETATM   10  C   UNL     1     -39.846 -49.924  14.316  1.00  0.00     0.002 C 
HETATM   11  C   UNL     1     -41.300 -49.937  13.866  1.00  0.00     0.035 C 
BRANCH   7  12
HETATM   12  C   UNL     1     -41.096 -49.071  11.513  1.00  0.00     0.241 C 
HETATM   13  O   UNL     1     -39.977 -48.599  11.286  1.00  0.00    -0.271 OA
HETATM   14  N   UNL     1     -42.228 -48.608  10.881  1.00  0.00    -0.359 N 
HETATM   15  H   UNL     1     -43.134 -48.862  11.253  1.00  0.00     0.162 HD
BRANCH  14  16
HETATM   16  C   UNL     1     -42.194 -47.455  10.013  1.00  0.00     0.127 C 
BRANCH  16  17
HETATM   17  C   UNL     1     -43.331 -47.534   9.038  1.00  0.00     0.003 A 
HETATM   18  C   UNL     1     -44.227 -46.341   8.800  1.00  0.00     0.007 A 
HETATM   19  C   UNL     1     -44.757 -47.538   9.534  1.00  0.00     0.007 A 
ENDBRANCH  16  17
ENDBRANCH  14  16
ENDBRANCH   7  12
ENDBRANCH   4   7
BRANCH   1  20
HETATM   20  C   UNL     1     -45.148 -53.294  13.162  1.00  0.00     0.044 A 
HETATM   21  C   UNL     1     -46.234 -52.769  13.880  1.00  0.00    -0.020 A 
HETATM   22  C   UNL     1     -46.582 -51.313  13.959  1.00  0.00     0.052 C 
HETATM   23  C   UNL     1     -47.029 -53.673  14.593  1.00  0.00     0.096 A 
HETATM   24  N   UNL     1     -46.835 -55.008  14.641  1.00  0.00    -0.375 N 
HETATM   25  C   UNL     1     -45.782 -55.476  13.951  1.00  0.00     0.090 A 
ATOM     26  HN  UNL     1     -47.452 -55.624  15.169  1.00  0.00     0.164 HD
HETATM   27  C   UNL     1     -44.924 -54.672  13.222  1.00  0.00     0.047 A 
ENDBRANCH   1  20
TORSDOF 5
ENDMDL
MODEL 7
REMARK VINA RESULT:      -6.1      4.171      7.021
REMARK  5 active torsions:
REMARK  status: ('A' for Active; 'I' for Inactive)
REMARK    1  A    between atoms: C_8  and  N_9 
REMARK       I    between atoms: N_9  and  C_10 
REMARK       I    between atoms: C_10  and  N_12 
REMARK    2  A    between atoms: N_12  and  C_13 
REMARK    3  A    between atoms: C_13  and  C_18 
REMARK       I    between atoms: C_18  and  N_20 
REMARK    4  A    between atoms: N_20  and  C_21 
REMARK    5  A    between atoms: C_21  and  C_22 
ROOT
HETATM    1  N   UNL     1     -44.155 -52.344  12.440  1.00  0.00    -0.313 N 
HETATM    2  C   UNL     1     -43.027 -51.745  12.965  1.00  0.00     0.299 C 
HETATM    3  O   UNL     1     -42.571 -51.937  14.088  1.00  0.00    -0.254 OA
HETATM    4  N   UNL     1     -42.452 -50.825  12.106  1.00  0.00    -0.226 NA
HETATM    5  H   UNL     1     -44.321 -52.208  11.456  1.00  0.00     0.170 HD
HETATM    6  H   UNL     1     -42.371 -51.167  11.160  1.00  0.00     0.133 HD
ENDROOT
BRANCH   4   7
HETATM    7  C   UNL     1     -41.249 -50.098  12.579  1.00  0.00     0.100 C 
HETATM    8  C   UNL     1     -41.598 -49.022  13.631  1.00  0.00     0.035 C 
HETATM    9  C   UNL     1     -40.739 -47.793  13.335  1.00  0.00     0.002 C 
HETATM   10  C   UNL     1     -39.891 -48.137  12.123  1.00  0.00     0.002 C 
HETATM   11  C   UNL     1     -40.633 -49.273  11.434  1.00  0.00     0.035 C 
BRANCH   7  12
HETATM   12  C   UNL     1     -40.201 -51.178  13.020  1.00  0.00     0.241 C 
HETATM   13  O   UNL     1     -39.605 -51.856  12.178  1.00  0.00    -0.271 OA
HETATM   14  N   UNL     1     -39.859 -51.200  14.354  1.00  0.00    -0.359 N 
HETATM   15  H   UNL     1     -40.503 -50.811  15.030  1.00  0.00     0.162 HD
BRANCH  14  16
HETATM   16  C   UNL     1     -38.870 -52.118  14.868  1.00  0.00     0.127 C 
BRANCH  16  17
HETATM   17  C   UNL     1     -39.561 -53.300  15.478  1.00  0.00     0.003 A 
HETATM   18  C   UNL     1     -38.871 -54.643  15.552  1.00  0.00     0.007 A 
HETATM   19  C   UNL     1     -40.020 -54.444  14.606  1.00  0.00     0.007 A 
ENDBRANCH  16  17
ENDBRANCH  14  16
ENDBRANCH   7  12
ENDBRANCH   4   7
BRANCH   1  20
HETATM   20  C   UNL     1     -45.031 -53.215  13.154  1.00  0.00     0.044 A 
HETATM   21  C   UNL     1     -46.143 -52.708  13.844  1.00  0.00    -0.020 A 
HETATM   22  C   UNL     1     -46.505 -51.256  13.931  1.00  0.00     0.052 C 
HETATM   23  C   UNL     1     -46.951 -53.628  14.521  1.00  0.00     0.096 A 
HETATM   24  N   UNL     1     -46.748 -54.961  14.558  1.00  0.00    -0.375 N 
HETATM   25  C   UNL     1     -45.670 -55.412  13.895  1.00  0.00     0.090 A 
ATOM     26  HN  UNL     1     -47.375 -55.589  15.060  1.00  0.00     0.164 HD
HETATM   27  C   UNL     1     -44.798 -54.591  13.203  1.00  0.00     0.047 A 
ENDBRANCH   1  20
TORSDOF 5
ENDMDL
MODEL 8
REMARK VINA RESULT:      -6.1      2.754      7.147
REMARK  5 active torsions:
REMARK  status: ('A' for Active; 'I' for Inactive)
REMARK    1  A    between atoms: C_8  and  N_9 
REMARK       I    between atoms: N_9  and  C_10 
REMARK       I    between atoms: C_10  and  N_12 
REMARK    2  A    between atoms: N_12  and  C_13 
REMARK    3  A    between atoms: C_13  and  C_18 
REMARK       I    between atoms: C_18  and  N_20 
REMARK    4  A    between atoms: N_20  and  C_21 
REMARK    5  A    between atoms: C_21  and  C_22 
ROOT
HETATM    1  N   UNL     1     -41.954 -48.285  10.227  1.00  0.00    -0.313 N 
HETATM    2  C   UNL     1     -41.925 -48.978  11.420  1.00  0.00     0.299 C 
HETATM    3  O   UNL     1     -42.520 -48.662  12.446  1.00  0.00    -0.254 OA
HETATM    4  N   UNL     1     -41.092 -50.082  11.386  1.00  0.00    -0.226 NA
HETATM    5  H   UNL     1     -41.545 -48.744   9.429  1.00  0.00     0.170 HD
HETATM    6  H   UNL     1     -41.210 -50.640  10.553  1.00  0.00     0.133 HD
ENDROOT
BRANCH   4   7
HETATM    7  C   UNL     1     -40.960 -50.885  12.626  1.00  0.00     0.100 C 
HETATM    8  C   UNL     1     -40.528 -50.025  13.833  1.00  0.00     0.035 C 
HETATM    9  C   UNL     1     -39.516 -50.837  14.640  1.00  0.00     0.002 C 
HETATM   10  C   UNL     1     -39.352 -52.164  13.921  1.00  0.00     0.002 C 
HETATM   11  C   UNL     1     -39.806 -51.896  12.493  1.00  0.00     0.035 C 
BRANCH   7  12
HETATM   12  C   UNL     1     -42.294 -51.691  12.797  1.00  0.00     0.241 C 
HETATM   13  O   UNL     1     -42.563 -52.630  12.041  1.00  0.00    -0.271 OA
HETATM   14  N   UNL     1     -43.044 -51.415  13.918  1.00  0.00    -0.359 N 
HETATM   15  H   UNL     1     -42.928 -50.521  14.376  1.00  0.00     0.162 HD
BRANCH  14  16
HETATM   16  C   UNL     1     -44.267 -52.127  14.206  1.00  0.00     0.127 C 
BRANCH  16  17
HETATM   17  C   UNL     1     -45.429 -51.187  14.080  1.00  0.00     0.003 A 
HETATM   18  C   UNL     1     -46.746 -51.496  14.753  1.00  0.00     0.007 A 
HETATM   19  C   UNL     1     -46.633 -51.575  13.258  1.00  0.00     0.007 A 
ENDBRANCH  16  17
ENDBRANCH  14  16
ENDBRANCH   7  12
ENDBRANCH   4   7
BRANCH   1  20
HETATM   20  C   UNL     1     -42.606 -47.033  10.018  1.00  0.00     0.044 A 
HETATM   21  C   UNL     1     -43.529 -46.869   8.973  1.00  0.00    -0.020 A 
HETATM   22  C   UNL     1     -43.897 -47.932   7.983  1.00  0.00     0.052 C 
HETATM   23  C   UNL     1     -44.122 -45.609   8.834  1.00  0.00     0.096 A 
HETATM   24  N   UNL     1     -43.881 -44.545   9.628  1.00  0.00    -0.375 N 
HETATM   25  C   UNL     1     -42.986 -44.733  10.612  1.00  0.00     0.090 A 
ATOM     26  HN  UNL     1     -44.350 -43.650   9.488  1.00  0.00     0.164 HD
HETATM   27  C   UNL     1     -42.331 -45.932  10.833  1.00  0.00     0.047 A 
ENDBRANCH   1  20
TORSDOF 5
ENDMDL
MODEL 9
REMARK VINA RESULT:      -6.0      3.984      6.195
REMARK  5 active torsions:
REMARK  status: ('A' for Active; 'I' for Inactive)
REMARK    1  A    between atoms: C_8  and  N_9 
REMARK       I    between atoms: N_9  and  C_10 
REMARK       I    between atoms: C_10  and  N_12 
REMARK    2  A    between atoms: N_12  and  C_13 
REMARK    3  A    between atoms: C_13  and  C_18 
REMARK       I    between atoms: C_18  and  N_20 
REMARK    4  A    between atoms: N_20  and  C_21 
REMARK    5  A    between atoms: C_21  and  C_22 
ROOT
HETATM    1  N   UNL     1     -43.649 -52.527  12.243  1.00  0.00    -0.313 N 
HETATM    2  C   UNL     1     -42.716 -51.677  12.801  1.00  0.00     0.299 C 
HETATM    3  O   UNL     1     -42.534 -51.503  14.002  1.00  0.00    -0.254 OA
HETATM    4  N   UNL     1     -42.002 -50.960  11.858  1.00  0.00    -0.226 NA
HETATM    5  H   UNL     1     -43.580 -52.683  11.250  1.00  0.00     0.170 HD
HETATM    6  H   UNL     1     -41.676 -51.532  11.092  1.00  0.00     0.133 HD
ENDROOT
BRANCH   4   7
HETATM    7  C   UNL     1     -40.990 -49.992  12.347  1.00  0.00     0.100 C 
HETATM    8  C   UNL     1     -41.626 -48.862  13.186  1.00  0.00     0.035 C 
HETATM    9  C   UNL     1     -40.926 -47.558  12.808  1.00  0.00     0.002 C 
HETATM   10  C   UNL     1     -39.887 -47.910  11.759  1.00  0.00     0.002 C 
HETATM   11  C   UNL     1     -40.359 -49.231  11.167  1.00  0.00     0.035 C 
BRANCH   7  12
HETATM   12  C   UNL     1     -39.861 -50.821  13.051  1.00  0.00     0.241 C 
HETATM   13  O   UNL     1     -39.199 -51.647  12.417  1.00  0.00    -0.271 OA
HETATM   14  N   UNL     1     -39.538 -50.457  14.340  1.00  0.00    -0.359 N 
HETATM   15  H   UNL     1     -40.222 -49.957  14.892  1.00  0.00     0.162 HD
BRANCH  14  16
HETATM   16  C   UNL     1     -38.483 -51.116  15.072  1.00  0.00     0.127 C 
BRANCH  16  17
HETATM   17  C   UNL     1     -37.220 -50.317  14.948  1.00  0.00     0.003 A 
HETATM   18  C   UNL     1     -36.704 -49.506  16.114  1.00  0.00     0.007 A 
HETATM   19  C   UNL     1     -37.276 -48.809  14.913  1.00  0.00     0.007 A 
ENDBRANCH  16  17
ENDBRANCH  14  16
ENDBRANCH   7  12
ENDBRANCH   4   7
BRANCH   1  20
HETATM   20  C   UNL     1     -44.622 -53.274  12.971  1.00  0.00     0.044 A 
HETATM   21  C   UNL     1     -45.820 -52.675  13.391  1.00  0.00    -0.020 A 
HETATM   22  C   UNL     1     -46.186 -51.240  13.157  1.00  0.00     0.052 C 
HETATM   23  C   UNL     1     -46.721 -53.474  14.104  1.00  0.00     0.096 A 
HETATM   24  N   UNL     1     -46.530 -54.773  14.414  1.00  0.00    -0.375 N 
HETATM   25  C   UNL     1     -45.370 -55.313  14.006  1.00  0.00     0.090 A 
ATOM     26  HN  UNL     1     -47.226 -55.314  14.928  1.00  0.00     0.164 HD
HETATM   27  C   UNL     1     -44.403 -54.612  13.306  1.00  0.00     0.047 A 
ENDBRANCH   1  20
TORSDOF 5
ENDMDL
