MODEL 1
REMARK VINA RESULT:      -5.9      0.000      0.000
REMARK  4 active torsions:
REMARK  status: ('A' for Active; 'I' for Inactive)
REMARK    1  A    between atoms: C_6  and  N_8 
REMARK       I    between atoms: N_8  and  C_9 
REMARK       I    between atoms: C_9  and  N_11 
REMARK    2  A    between atoms: N_11  and  C_12 
REMARK    3  A    between atoms: C_12  and  C_13 
REMARK    4  A    between atoms: C_13  and  C_14 
ROOT
HETATM    1  N   UNL     1     -42.854 -51.712  12.192  1.00  0.00    -0.337 N 
HETATM    2  C   UNL     1     -42.785 -50.359  12.421  1.00  0.00     0.316 C 
HETATM    3  O   UNL     1     -43.335 -49.795  13.357  1.00  0.00    -0.247 OA
HETATM    4  N   UNL     1     -41.989 -49.721  11.500  1.00  0.00    -0.343 N 
HETATM    5  H   UNL     1     -42.830 -51.982  11.219  1.00  0.00     0.164 HD
HETATM    6  H   UNL     1     -41.236 -50.301  11.158  1.00  0.00     0.164 HD
ENDROOT
BRANCH   1   7
HETATM    7  C   UNL     1     -43.627 -52.550  13.106  1.00  0.00     0.114 C 
HETATM    8  C   UNL     1     -42.882 -53.846  13.433  1.00  0.00     0.029 C 
HETATM    9  C   UNL     1     -43.714 -54.713  14.376  1.00  0.00     0.032 C 
HETATM   10  C   UNL     1     -45.120 -54.958  13.822  1.00  0.00     0.272 C 
HETATM   11  N   UNL     1     -45.849 -53.738  13.453  1.00  0.00     0.086 N 
HETATM   12  C   UNL     1     -46.326 -53.003  14.625  1.00  0.00     0.310 C 
HETATM   13  C   UNL     1     -45.042 -52.877  12.567  1.00  0.00     0.296 C 
ENDBRANCH   1   7
BRANCH   4  14
HETATM   14  C   UNL     1     -41.686 -48.317  11.734  1.00  0.00     0.129 C 
BRANCH  14  15
HETATM   15  C   UNL     1     -41.690 -47.477  10.456  1.00  0.00     0.058 C 
BRANCH  15  16
HETATM   16  C   UNL     1     -42.985 -47.618   9.693  1.00  0.00    -0.054 A 
HETATM   17  C   UNL     1     -42.984 -47.922   8.328  1.00  0.00     0.024 A 
HETATM   18  C   UNL     1     -44.200 -48.022   7.667  1.00  0.00     0.088 A 
HETATM   19  N   UNL     1     -45.397 -47.838   8.263  1.00  0.00    -0.375 N 
HETATM   20  C   UNL     1     -45.378 -47.536   9.578  1.00  0.00     0.088 A 
ATOM     21  HN  UNL     1     -46.272 -47.924   7.745  1.00  0.00     0.164 HD
HETATM   22  C   UNL     1     -44.215 -47.414  10.324  1.00  0.00     0.024 A 
ENDBRANCH  15  16
ENDBRANCH  14  15
ENDBRANCH   4  14
TORSDOF 4
ENDMDL
MODEL 2
REMARK VINA RESULT:      -5.8      3.201      5.175
REMARK  4 active torsions:
REMARK  status: ('A' for Active; 'I' for Inactive)
REMARK    1  A    between atoms: C_6  and  N_8 
REMARK       I    between atoms: N_8  and  C_9 
REMARK       I    between atoms: C_9  and  N_11 
REMARK    2  A    between atoms: N_11  and  C_12 
REMARK    3  A    between atoms: C_12  and  C_13 
REMARK    4  A    between atoms: C_13  and  C_14 
ROOT
HETATM    1  N   UNL     1     -42.279 -52.333  11.880  1.00  0.00    -0.337 N 
HETATM    2  C   UNL     1     -41.606 -51.167  12.153  1.00  0.00     0.316 C 
HETATM    3  O   UNL     1     -41.699 -50.552  13.206  1.00  0.00    -0.247 OA
HETATM    4  N   UNL     1     -40.780 -50.797  11.117  1.00  0.00    -0.343 N 
HETATM    5  H   UNL     1     -42.534 -52.463  10.912  1.00  0.00     0.164 HD
HETATM    6  H   UNL     1     -40.413 -51.585  10.603  1.00  0.00     0.164 HD
ENDROOT
BRANCH   1   7
HETATM    7  C   UNL     1     -43.171 -52.893  12.895  1.00  0.00     0.114 C 
HETATM    8  C   UNL     1     -42.586 -54.171  13.500  1.00  0.00     0.029 C 
HETATM    9  C   UNL     1     -43.540 -54.746  14.546  1.00  0.00     0.032 C 
HETATM   10  C   UNL     1     -44.946 -54.948  13.974  1.00  0.00     0.272 C 
HETATM   11  N   UNL     1     -45.521 -53.753  13.343  1.00  0.00     0.086 N 
HETATM   12  C   UNL     1     -45.950 -52.759  14.327  1.00  0.00     0.310 C 
HETATM   13  C   UNL     1     -44.595 -53.169  12.353  1.00  0.00     0.296 C 
ENDBRANCH   1   7
BRANCH   4  14
HETATM   14  C   UNL     1     -39.875 -49.680  11.348  1.00  0.00     0.129 C 
BRANCH  14  15
HETATM   15  C   UNL     1     -38.445 -50.118  11.663  1.00  0.00     0.058 C 
BRANCH  15  16
HETATM   16  C   UNL     1     -38.003 -49.659  13.031  1.00  0.00    -0.054 A 
HETATM   17  C   UNL     1     -37.429 -50.556  13.938  1.00  0.00     0.024 A 
HETATM   18  C   UNL     1     -37.056 -50.089  15.190  1.00  0.00     0.088 A 
HETATM   19  N   UNL     1     -37.216 -48.812  15.596  1.00  0.00    -0.375 N 
HETATM   20  C   UNL     1     -37.780 -47.964  14.711  1.00  0.00     0.088 A 
ATOM     21  HN  UNL     1     -36.925 -48.504  16.524  1.00  0.00     0.164 HD
HETATM   22  C   UNL     1     -38.186 -48.335  13.437  1.00  0.00     0.024 A 
ENDBRANCH  15  16
ENDBRANCH  14  15
ENDBRANCH   4  14
TORSDOF 4
ENDMDL
MODEL 3
REMARK VINA RESULT:      -5.7      1.966      7.100
REMARK  4 active torsions:
REMARK  status: ('A' for Active; 'I' for Inactive)
REMARK    1  A    between atoms: C_6  and  N_8 
REMARK       I    between atoms: N_8  and  C_9 
REMARK       I    between atoms: C_9  and  N_11 
REMARK    2  A    between atoms: N_11  and  C_12 
REMARK    3  A    between atoms: C_12  and  C_13 
REMARK    4  A    between atoms: C_13  and  C_14 
ROOT
HETATM    1  N   UNL     1     -41.585 -49.657  11.138  1.00  0.00    -0.337 N 
HETATM    2  C   UNL     1     -42.025 -50.431  12.185  1.00  0.00     0.316 C 
HETATM    3  O   UNL     1     -42.409 -49.981  13.256  1.00  0.00    -0.247 OA
HETATM    4  N   UNL     1     -42.024 -51.769  11.870  1.00  0.00    -0.343 N 
HETATM    5  H   UNL     1     -40.866 -50.078  10.569  1.00  0.00     0.164 HD
HETATM    6  H   UNL     1     -42.198 -51.945  10.891  1.00  0.00     0.164 HD
ENDROOT
BRANCH   1   7
HETATM    7  C   UNL     1     -41.562 -48.203  11.290  1.00  0.00     0.114 C 
HETATM    8  C   UNL     1     -42.287 -47.515  10.131  1.00  0.00     0.029 C 
HETATM    9  C   UNL     1     -42.238 -45.997  10.302  1.00  0.00     0.032 C 
HETATM   10  C   UNL     1     -40.802 -45.498  10.486  1.00  0.00     0.272 C 
HETATM   11  N   UNL     1     -40.059 -46.170  11.560  1.00  0.00     0.086 N 
HETATM   12  C   UNL     1     -40.493 -45.734  12.888  1.00  0.00     0.310 C 
HETATM   13  C   UNL     1     -40.127 -47.638  11.425  1.00  0.00     0.296 C 
ENDBRANCH   1   7
BRANCH   4  14
HETATM   14  C   UNL     1     -42.636 -52.683  12.824  1.00  0.00     0.129 C 
BRANCH  14  15
HETATM   15  C   UNL     1     -43.952 -53.281  12.326  1.00  0.00     0.058 C 
BRANCH  15  16
HETATM   16  C   UNL     1     -45.095 -52.989  13.267  1.00  0.00    -0.054 A 
HETATM   17  C   UNL     1     -45.595 -51.691  13.409  1.00  0.00     0.024 A 
HETATM   18  C   UNL     1     -46.635 -51.471  14.300  1.00  0.00     0.088 A 
HETATM   19  N   UNL     1     -47.200 -52.439  15.051  1.00  0.00    -0.375 N 
HETATM   20  C   UNL     1     -46.698 -53.684  14.910  1.00  0.00     0.088 A 
ATOM     21  HN  UNL     1     -47.967 -52.240  15.694  1.00  0.00     0.164 HD
HETATM   22  C   UNL     1     -45.661 -54.003  14.046  1.00  0.00     0.024 A 
ENDBRANCH  15  16
ENDBRANCH  14  15
ENDBRANCH   4  14
TORSDOF 4
ENDMDL
MODEL 4
REMARK VINA RESULT:      -5.6      3.364      6.924
REMARK  4 active torsions:
REMARK  status: ('A' for Active; 'I' for Inactive)
REMARK    1  A    between atoms: C_6  and  N_8 
REMARK       I    between atoms: N_8  and  C_9 
REMARK       I    between atoms: C_9  and  N_11 
REMARK    2  A    between atoms: N_11  and  C_12 
REMARK    3  A    between atoms: C_12  and  C_13 
REMARK    4  A    between atoms: C_13  and  C_14 
ROOT
HETATM    1  N   UNL     1     -41.485 -51.594  11.725  1.00  0.00    -0.337 N 
HETATM    2  C   UNL     1     -42.372 -52.248  12.546  1.00  0.00     0.316 C 
HETATM    3  O   UNL     1     -42.413 -52.108  13.760  1.00  0.00    -0.247 OA
HETATM    4  N   UNL     1     -43.237 -53.046  11.835  1.00  0.00    -0.343 N 
HETATM    5  H   UNL     1     -41.196 -52.113  10.909  1.00  0.00     0.164 HD
HETATM    6  H   UNL     1     -43.441 -52.686  10.913  1.00  0.00     0.164 HD
ENDROOT
BRANCH   1   7
HETATM    7  C   UNL     1     -40.519 -50.670  12.316  1.00  0.00     0.114 C 
HETATM    8  C   UNL     1     -40.175 -49.535  11.348  1.00  0.00     0.029 C 
HETATM    9  C   UNL     1     -39.153 -48.591  11.979  1.00  0.00     0.032 C 
HETATM   10  C   UNL     1     -37.916 -49.349  12.471  1.00  0.00     0.272 C 
HETATM   11  N   UNL     1     -38.211 -50.475  13.366  1.00  0.00     0.086 N 
HETATM   12  C   UNL     1     -38.601 -50.030  14.704  1.00  0.00     0.310 C 
HETATM   13  C   UNL     1     -39.222 -51.377  12.781  1.00  0.00     0.296 C 
ENDBRANCH   1   7
BRANCH   4  14
HETATM   14  C   UNL     1     -44.341 -53.653  12.564  1.00  0.00     0.129 C 
BRANCH  14  15
HETATM   15  C   UNL     1     -45.561 -52.738  12.684  1.00  0.00     0.058 C 
BRANCH  15  16
HETATM   16  C   UNL     1     -45.987 -52.552  14.120  1.00  0.00    -0.054 A 
HETATM   17  C   UNL     1     -45.603 -53.465  15.107  1.00  0.00     0.024 A 
HETATM   18  C   UNL     1     -46.035 -53.259  16.409  1.00  0.00     0.088 A 
HETATM   19  N   UNL     1     -46.815 -52.226  16.788  1.00  0.00    -0.375 N 
HETATM   20  C   UNL     1     -47.185 -51.361  15.821  1.00  0.00     0.088 A 
ATOM     21  HN  UNL     1     -47.111 -52.104  17.757  1.00  0.00     0.164 HD
HETATM   22  C   UNL     1     -46.804 -51.481  14.492  1.00  0.00     0.024 A 
ENDBRANCH  15  16
ENDBRANCH  14  15
ENDBRANCH   4  14
TORSDOF 4
ENDMDL
MODEL 5
REMARK VINA RESULT:      -5.5      2.008      2.790
REMARK  4 active torsions:
REMARK  status: ('A' for Active; 'I' for Inactive)
REMARK    1  A    between atoms: C_6  and  N_8 
REMARK       I    between atoms: N_8  and  C_9 
REMARK       I    between atoms: C_9  and  N_11 
REMARK    2  A    between atoms: N_11  and  C_12 
REMARK    3  A    between atoms: C_12  and  C_13 
REMARK    4  A    between atoms: C_13  and  C_14 
ROOT
HETATM    1  N   UNL     1     -42.516 -52.067  12.138  1.00  0.00    -0.337 N 
HETATM    2  C   UNL     1     -42.338 -50.711  12.268  1.00  0.00     0.316 C 
HETATM    3  O   UNL     1     -42.862 -50.031  13.139  1.00  0.00    -0.247 OA
HETATM    4  N   UNL     1     -41.464 -50.215  11.329  1.00  0.00    -0.343 N 
HETATM    5  H   UNL     1     -42.489 -52.412  11.190  1.00  0.00     0.164 HD
HETATM    6  H   UNL     1     -40.755 -50.882  11.058  1.00  0.00     0.164 HD
ENDROOT
BRANCH   1   7
HETATM    7  C   UNL     1     -43.385 -52.763  13.085  1.00  0.00     0.114 C 
HETATM    8  C   UNL     1     -42.767 -54.092  13.528  1.00  0.00     0.029 C 
HETATM    9  C   UNL     1     -43.697 -54.809  14.505  1.00  0.00     0.032 C 
HETATM   10  C   UNL     1     -45.105 -54.972  13.925  1.00  0.00     0.272 C 
HETATM   11  N   UNL     1     -45.712 -53.724  13.446  1.00  0.00     0.086 N 
HETATM   12  C   UNL     1     -46.151 -52.865  14.546  1.00  0.00     0.310 C 
HETATM   13  C   UNL     1     -44.808 -53.005  12.526  1.00  0.00     0.296 C 
ENDBRANCH   1   7
BRANCH   4  14
HETATM   14  C   UNL     1     -41.047 -48.828  11.467  1.00  0.00     0.129 C 
BRANCH  14  15
HETATM   15  C   UNL     1     -41.704 -47.896  10.449  1.00  0.00     0.058 C 
BRANCH  15  16
HETATM   16  C   UNL     1     -41.355 -46.449  10.702  1.00  0.00    -0.054 A 
HETATM   17  C   UNL     1     -40.023 -46.025  10.722  1.00  0.00     0.024 A 
HETATM   18  C   UNL     1     -39.753 -44.688  10.977  1.00  0.00     0.088 A 
HETATM   19  N   UNL     1     -40.705 -43.760  11.213  1.00  0.00    -0.375 N 
HETATM   20  C   UNL     1     -41.984 -44.190  11.199  1.00  0.00     0.088 A 
ATOM     21  HN  UNL     1     -40.469 -42.784  11.393  1.00  0.00     0.164 HD
HETATM   22  C   UNL     1     -42.354 -45.504  10.954  1.00  0.00     0.024 A 
ENDBRANCH  15  16
ENDBRANCH  14  15
ENDBRANCH   4  14
TORSDOF 4
ENDMDL
MODEL 6
REMARK VINA RESULT:      -5.5      4.201      6.336
REMARK  4 active torsions:
REMARK  status: ('A' for Active; 'I' for Inactive)
REMARK    1  A    between atoms: C_6  and  N_8 
REMARK       I    between atoms: N_8  and  C_9 
REMARK       I    between atoms: C_9  and  N_11 
REMARK    2  A    between atoms: N_11  and  C_12 
REMARK    3  A    between atoms: C_12  and  C_13 
REMARK    4  A    between atoms: C_13  and  C_14 
ROOT
HETATM    1  N   UNL     1     -42.292 -52.687  12.051  1.00  0.00    -0.337 N 
HETATM    2  C   UNL     1     -43.403 -53.018  12.788  1.00  0.00     0.316 C 
HETATM    3  O   UNL     1     -43.363 -53.443  13.934  1.00  0.00    -0.247 OA
HETATM    4  N   UNL     1     -44.568 -52.774  12.099  1.00  0.00    -0.343 N 
HETATM    5  H   UNL     1     -42.376 -52.845  11.057  1.00  0.00     0.164 HD
HETATM    6  H   UNL     1     -44.493 -51.995  11.460  1.00  0.00     0.164 HD
ENDROOT
BRANCH   1   7
HETATM    7  C   UNL     1     -40.968 -52.846  12.650  1.00  0.00     0.114 C 
HETATM    8  C   UNL     1     -40.777 -54.262  13.200  1.00  0.00     0.029 C 
HETATM    9  C   UNL     1     -39.394 -54.402  13.834  1.00  0.00     0.032 C 
HETATM   10  C   UNL     1     -39.145 -53.316  14.886  1.00  0.00     0.272 C 
HETATM   11  N   UNL     1     -39.365 -51.946  14.406  1.00  0.00     0.086 N 
HETATM   12  C   UNL     1     -38.289 -51.488  13.527  1.00  0.00     0.310 C 
HETATM   13  C   UNL     1     -40.685 -51.807  13.762  1.00  0.00     0.296 C 
ENDBRANCH   1   7
BRANCH   4  14
HETATM   14  C   UNL     1     -45.819 -52.910  12.830  1.00  0.00     0.129 C 
BRANCH  14  15
HETATM   15  C   UNL     1     -46.426 -51.569  13.243  1.00  0.00     0.058 C 
BRANCH  15  16
HETATM   16  C   UNL     1     -46.290 -51.321  14.725  1.00  0.00    -0.054 A 
HETATM   17  C   UNL     1     -47.359 -51.561  15.594  1.00  0.00     0.024 A 
HETATM   18  C   UNL     1     -47.191 -51.300  16.946  1.00  0.00     0.088 A 
HETATM   19  N   UNL     1     -46.050 -50.820  17.483  1.00  0.00    -0.375 N 
HETATM   20  C   UNL     1     -45.033 -50.584  16.629  1.00  0.00     0.088 A 
ATOM     21  HN  UNL     1     -45.961 -50.644  18.484  1.00  0.00     0.164 HD
HETATM   22  C   UNL     1     -45.104 -50.813  15.262  1.00  0.00     0.024 A 
ENDBRANCH  15  16
ENDBRANCH  14  15
ENDBRANCH   4  14
TORSDOF 4
ENDMDL
MODEL 7
REMARK VINA RESULT:      -5.4      2.387      4.477
REMARK  4 active torsions:
REMARK  status: ('A' for Active; 'I' for Inactive)
REMARK    1  A    between atoms: C_6  and  N_8 
REMARK       I    between atoms: N_8  and  C_9 
REMARK       I    between atoms: C_9  and  N_11 
REMARK    2  A    between atoms: N_11  and  C_12 
REMARK    3  A    between atoms: C_12  and  C_13 
REMARK    4  A    between atoms: C_13  and  C_14 
ROOT
HETATM    1  N   UNL     1     -42.753 -51.740  12.180  1.00  0.00    -0.337 N 
HETATM    2  C   UNL     1     -42.631 -50.396  12.439  1.00  0.00     0.316 C 
HETATM    3  O   UNL     1     -43.130 -49.837  13.406  1.00  0.00    -0.247 OA
HETATM    4  N   UNL     1     -41.844 -49.762  11.507  1.00  0.00    -0.343 N 
HETATM    5  H   UNL     1     -42.770 -51.986  11.201  1.00  0.00     0.164 HD
HETATM    6  H   UNL     1     -41.122 -50.359  11.127  1.00  0.00     0.164 HD
ENDROOT
BRANCH   1   7
HETATM    7  C   UNL     1     -43.524 -52.574  13.099  1.00  0.00     0.114 C 
HETATM    8  C   UNL     1     -42.769 -53.859  13.446  1.00  0.00     0.029 C 
HETATM    9  C   UNL     1     -43.599 -54.722  14.395  1.00  0.00     0.032 C 
HETATM   10  C   UNL     1     -45.000 -54.987  13.835  1.00  0.00     0.272 C 
HETATM   11  N   UNL     1     -45.737 -53.778  13.447  1.00  0.00     0.086 N 
HETATM   12  C   UNL     1     -46.228 -53.034  14.607  1.00  0.00     0.310 C 
HETATM   13  C   UNL     1     -44.932 -52.920  12.555  1.00  0.00     0.296 C 
ENDBRANCH   1   7
BRANCH   4  14
HETATM   14  C   UNL     1     -41.485 -48.375  11.764  1.00  0.00     0.129 C 
BRANCH  14  15
HETATM   15  C   UNL     1     -40.009 -48.076  11.503  1.00  0.00     0.058 C 
BRANCH  15  16
HETATM   16  C   UNL     1     -39.101 -49.044  12.223  1.00  0.00    -0.054 A 
HETATM   17  C   UNL     1     -39.096 -49.120  13.619  1.00  0.00     0.024 A 
HETATM   18  C   UNL     1     -38.231 -50.013  14.235  1.00  0.00     0.088 A 
HETATM   19  N   UNL     1     -37.381 -50.819  13.565  1.00  0.00    -0.375 N 
HETATM   20  C   UNL     1     -37.392 -50.725  12.219  1.00  0.00     0.088 A 
ATOM     21  HN  UNL     1     -36.761 -51.467  14.052  1.00  0.00     0.164 HD
HETATM   22  C   UNL     1     -38.220 -49.864  11.513  1.00  0.00     0.024 A 
ENDBRANCH  15  16
ENDBRANCH  14  15
ENDBRANCH   4  14
TORSDOF 4
ENDMDL
MODEL 8
REMARK VINA RESULT:      -5.3      2.134      3.146
REMARK  4 active torsions:
REMARK  status: ('A' for Active; 'I' for Inactive)
REMARK    1  A    between atoms: C_6  and  N_8 
REMARK       I    between atoms: N_8  and  C_9 
REMARK       I    between atoms: C_9  and  N_11 
REMARK    2  A    between atoms: N_11  and  C_12 
REMARK    3  A    between atoms: C_12  and  C_13 
REMARK    4  A    between atoms: C_13  and  C_14 
ROOT
HETATM    1  N   UNL     1     -42.764 -51.618  14.285  1.00  0.00    -0.337 N 
HETATM    2  C   UNL     1     -41.931 -51.490  13.200  1.00  0.00     0.316 C 
HETATM    3  O   UNL     1     -42.208 -51.878  12.074  1.00  0.00    -0.247 OA
HETATM    4  N   UNL     1     -40.766 -50.834  13.522  1.00  0.00    -0.343 N 
HETATM    5  H   UNL     1     -42.296 -51.749  15.170  1.00  0.00     0.164 HD
HETATM    6  H   UNL     1     -40.886 -50.153  14.258  1.00  0.00     0.164 HD
ENDROOT
BRANCH   1   7
HETATM    7  C   UNL     1     -44.067 -52.257  14.109  1.00  0.00     0.114 C 
HETATM    8  C   UNL     1     -45.189 -51.218  14.049  1.00  0.00     0.029 C 
HETATM    9  C   UNL     1     -46.542 -51.907  13.880  1.00  0.00     0.032 C 
HETATM   10  C   UNL     1     -46.771 -52.968  14.960  1.00  0.00     0.272 C 
HETATM   11  N   UNL     1     -45.691 -53.956  15.079  1.00  0.00     0.086 N 
HETATM   12  C   UNL     1     -45.702 -54.922  13.980  1.00  0.00     0.310 C 
HETATM   13  C   UNL     1     -44.375 -53.301  15.210  1.00  0.00     0.296 C 
ENDBRANCH   1   7
BRANCH   4  14
HETATM   14  C   UNL     1     -39.877 -50.472  12.428  1.00  0.00     0.129 C 
BRANCH  14  15
HETATM   15  C   UNL     1     -39.424 -49.012  12.476  1.00  0.00     0.058 C 
BRANCH  15  16
HETATM   16  C   UNL     1     -40.259 -48.133  11.576  1.00  0.00    -0.054 A 
HETATM   17  C   UNL     1     -39.983 -46.768  11.450  1.00  0.00     0.024 A 
HETATM   18  C   UNL     1     -40.790 -45.999  10.625  1.00  0.00     0.088 A 
HETATM   19  N   UNL     1     -41.839 -46.487   9.930  1.00  0.00    -0.375 N 
HETATM   20  C   UNL     1     -42.096 -47.805  10.072  1.00  0.00     0.088 A 
ATOM     21  HN  UNL     1     -42.408 -45.892   9.329  1.00  0.00     0.164 HD
HETATM   22  C   UNL     1     -41.348 -48.655  10.872  1.00  0.00     0.024 A 
ENDBRANCH  15  16
ENDBRANCH  14  15
ENDBRANCH   4  14
TORSDOF 4
ENDMDL
MODEL 9
REMARK VINA RESULT:      -5.2      1.608      2.450
REMARK  4 active torsions:
REMARK  status: ('A' for Active; 'I' for Inactive)
REMARK    1  A    between atoms: C_6  and  N_8 
REMARK       I    between atoms: N_8  and  C_9 
REMARK       I    between atoms: C_9  and  N_11 
REMARK    2  A    between atoms: N_11  and  C_12 
REMARK    3  A    between atoms: C_12  and  C_13 
REMARK    4  A    between atoms: C_13  and  C_14 
ROOT
HETATM    1  N   UNL     1     -44.091 -50.174  14.397  1.00  0.00    -0.337 N 
HETATM    2  C   UNL     1     -43.380 -49.911  13.251  1.00  0.00     0.316 C 
HETATM    3  O   UNL     1     -43.183 -50.730  12.364  1.00  0.00    -0.247 OA
HETATM    4  N   UNL     1     -42.953 -48.605  13.199  1.00  0.00    -0.343 N 
HETATM    5  H   UNL     1     -43.779 -49.674  15.216  1.00  0.00     0.164 HD
HETATM    6  H   UNL     1     -43.581 -47.965  13.665  1.00  0.00     0.164 HD
ENDROOT
BRANCH   1   7
HETATM    7  C   UNL     1     -44.654 -51.508  14.593  1.00  0.00     0.114 C 
HETATM    8  C   UNL     1     -46.154 -51.437  14.889  1.00  0.00     0.029 C 
HETATM    9  C   UNL     1     -46.719 -52.840  15.106  1.00  0.00     0.032 C 
HETATM   10  C   UNL     1     -45.937 -53.602  16.179  1.00  0.00     0.272 C 
HETATM   11  N   UNL     1     -44.487 -53.651  15.952  1.00  0.00     0.086 N 
HETATM   12  C   UNL     1     -44.126 -54.579  14.881  1.00  0.00     0.310 C 
HETATM   13  C   UNL     1     -43.934 -52.304  15.709  1.00  0.00     0.296 C 
ENDBRANCH   1   7
BRANCH   4  14
HETATM   14  C   UNL     1     -42.346 -48.147  11.958  1.00  0.00     0.129 C 
BRANCH  14  15
HETATM   15  C   UNL     1     -43.099 -46.985  11.311  1.00  0.00     0.058 C 
BRANCH  15  16
HETATM   16  C   UNL     1     -43.727 -47.381   9.996  1.00  0.00    -0.054 A 
HETATM   17  C   UNL     1     -45.110 -47.551   9.884  1.00  0.00     0.024 A 
HETATM   18  C   UNL     1     -45.637 -47.934   8.659  1.00  0.00     0.088 A 
HETATM   19  N   UNL     1     -44.892 -48.160   7.557  1.00  0.00    -0.375 N 
HETATM   20  C   UNL     1     -43.558 -48.002   7.687  1.00  0.00     0.088 A 
ATOM     21  HN  UNL     1     -45.315 -48.436   6.671  1.00  0.00     0.164 HD
HETATM   22  C   UNL     1     -42.937 -47.622   8.868  1.00  0.00     0.024 A 
ENDBRANCH  15  16
ENDBRANCH  14  15
ENDBRANCH   4  14
TORSDOF 4
ENDMDL
