MODEL 1
REMARK VINA RESULT:      -5.6      0.000      0.000
REMARK  7 active torsions:
REMARK  status: ('A' for Active; 'I' for Inactive)
REMARK    1  A    between atoms: C_2  and  C_3 
REMARK    2  A    between atoms: C_3  and  N_4 
REMARK    3  A    between atoms: C_5  and  N_6 
REMARK    4  A    between atoms: C_7  and  N_8 
REMARK    5  A    between atoms: N_8  and  C_9 
REMARK       I    between atoms: N_8  and  C_13 
REMARK    6  A    between atoms: C_9  and  C_10 
REMARK    7  A    between atoms: C_10  and  O_11 
ROOT
HETATM    1  N   UNL     1     -40.962 -47.816  11.125  1.00  0.00    -0.288 N 
HETATM    2  C   UNL     1     -40.272 -49.027  11.325  1.00  0.00     0.117 C 
HETATM    3  C   UNL     1     -39.307 -49.110  12.288  1.00  0.00     0.144 C 
HETATM    4  C   UNL     1     -38.998 -47.871  13.077  1.00  0.00     0.279 C 
HETATM    5  O   UNL     1     -38.081 -47.808  13.892  1.00  0.00    -0.265 OA
HETATM    6  N   UNL     1     -39.783 -46.788  12.853  1.00  0.00    -0.273 N 
HETATM    7  C   UNL     1     -40.679 -46.663  11.847  1.00  0.00     0.330 C 
HETATM    8  O   UNL     1     -41.189 -45.561  11.640  1.00  0.00    -0.246 OA
HETATM    9  H   UNL     1     -39.566 -45.950  13.366  1.00  0.00     0.173 HD
ENDROOT
BRANCH   3  10
HETATM   10  N   UNL     1     -38.590 -50.274  12.621  1.00  0.00    -0.309 N 
HETATM   11  C   UNL     1     -37.494 -50.757  11.884  1.00  0.00     0.220 C 
HETATM   12  O   UNL     1     -36.893 -51.791  12.206  1.00  0.00    -0.273 OA
HETATM   13  C   UNL     1     -36.945 -49.972  10.715  1.00  0.00     0.117 C 
BRANCH  10  14
HETATM   14  C   UNL     1     -38.978 -51.136  13.755  1.00  0.00     0.158 C 
BRANCH  14  15
HETATM   15  C   UNL     1     -40.277 -51.946  13.698  1.00  0.00     0.187 C 
BRANCH  15  16
HETATM   16  O   UNL     1     -40.341 -52.752  12.520  1.00  0.00    -0.394 OA
HETATM   17  C   UNL     1     -40.908 -54.027  12.808  1.00  0.00     0.201 C 
ENDBRANCH  15  16
ENDBRANCH  14  15
ENDBRANCH  10  14
ENDBRANCH   3  10
BRANCH   2  18
HETATM   18  N   UNL     1     -40.607 -50.143  10.560  1.00  0.00    -0.286 NA
HETATM   19  H   UNL     1     -39.813 -50.722  10.313  1.00  0.00     0.125 HD
HETATM   20  H   UNL     1     -41.154 -49.905   9.737  1.00  0.00     0.125 HD
ENDBRANCH   2  18
BRANCH   1  21
HETATM   21  C   UNL     1     -42.073 -47.691  10.160  1.00  0.00     0.135 C 
BRANCH  21  22
HETATM   22  C   UNL     1     -43.469 -47.817  10.800  1.00  0.00     0.016 C 
HETATM   23  C   UNL     1     -44.634 -47.490   9.872  1.00  0.00     0.006 C 
ENDBRANCH  21  22
ENDBRANCH   1  21
TORSDOF 7
ENDMDL
MODEL 2
REMARK VINA RESULT:      -5.1      2.235      3.941
REMARK  7 active torsions:
REMARK  status: ('A' for Active; 'I' for Inactive)
REMARK    1  A    between atoms: C_2  and  C_3 
REMARK    2  A    between atoms: C_3  and  N_4 
REMARK    3  A    between atoms: C_5  and  N_6 
REMARK    4  A    between atoms: C_7  and  N_8 
REMARK    5  A    between atoms: N_8  and  C_9 
REMARK       I    between atoms: N_8  and  C_13 
REMARK    6  A    between atoms: C_9  and  C_10 
REMARK    7  A    between atoms: C_10  and  O_11 
ROOT
HETATM    1  N   UNL     1     -43.246 -46.684   9.895  1.00  0.00    -0.288 N 
HETATM    2  C   UNL     1     -42.432 -47.406  10.789  1.00  0.00     0.117 C 
HETATM    3  C   UNL     1     -41.718 -46.745  11.746  1.00  0.00     0.144 C 
HETATM    4  C   UNL     1     -41.809 -45.247  11.776  1.00  0.00     0.279 C 
HETATM    5  O   UNL     1     -41.130 -44.551  12.526  1.00  0.00    -0.265 OA
HETATM    6  N   UNL     1     -42.687 -44.667  10.920  1.00  0.00    -0.273 N 
HETATM    7  C   UNL     1     -43.332 -45.297   9.912  1.00  0.00     0.330 C 
HETATM    8  O   UNL     1     -43.954 -44.621   9.092  1.00  0.00    -0.246 OA
HETATM    9  H   UNL     1     -42.736 -43.662  10.926  1.00  0.00     0.173 HD
ENDROOT
BRANCH   3  10
HETATM   10  N   UNL     1     -40.917 -47.356  12.728  1.00  0.00    -0.309 N 
HETATM   11  C   UNL     1     -41.397 -47.772  13.984  1.00  0.00     0.220 C 
HETATM   12  O   UNL     1     -40.657 -48.300  14.825  1.00  0.00    -0.273 OA
HETATM   13  C   UNL     1     -42.867 -47.675  14.318  1.00  0.00     0.117 C 
BRANCH  10  14
HETATM   14  C   UNL     1     -39.466 -47.555  12.544  1.00  0.00     0.158 C 
BRANCH  14  15
HETATM   15  C   UNL     1     -38.943 -48.825  11.867  1.00  0.00     0.187 C 
BRANCH  15  16
HETATM   16  O   UNL     1     -39.972 -49.807  11.729  1.00  0.00    -0.394 OA
HETATM   17  C   UNL     1     -39.695 -50.950  12.533  1.00  0.00     0.201 C 
ENDBRANCH  15  16
ENDBRANCH  14  15
ENDBRANCH  10  14
ENDBRANCH   3  10
BRANCH   2  18
HETATM   18  N   UNL     1     -42.393 -48.798  10.709  1.00  0.00    -0.286 NA
HETATM   19  H   UNL     1     -41.460 -49.185  10.801  1.00  0.00     0.125 HD
HETATM   20  H   UNL     1     -42.856 -49.157   9.879  1.00  0.00     0.125 HD
ENDBRANCH   2  18
BRANCH   1  21
HETATM   21  C   UNL     1     -44.107 -47.350   8.897  1.00  0.00     0.135 C 
BRANCH  21  22
HETATM   22  C   UNL     1     -45.480 -47.779   9.449  1.00  0.00     0.016 C 
HETATM   23  C   UNL     1     -46.646 -46.887   9.039  1.00  0.00     0.006 C 
ENDBRANCH  21  22
ENDBRANCH   1  21
TORSDOF 7
ENDMDL
MODEL 3
REMARK VINA RESULT:      -5.1      3.441      5.646
REMARK  7 active torsions:
REMARK  status: ('A' for Active; 'I' for Inactive)
REMARK    1  A    between atoms: C_2  and  C_3 
REMARK    2  A    between atoms: C_3  and  N_4 
REMARK    3  A    between atoms: C_5  and  N_6 
REMARK    4  A    between atoms: C_7  and  N_8 
REMARK    5  A    between atoms: N_8  and  C_9 
REMARK       I    between atoms: N_8  and  C_13 
REMARK    6  A    between atoms: C_9  and  C_10 
REMARK    7  A    between atoms: C_10  and  O_11 
ROOT
HETATM    1  N   UNL     1     -44.251 -51.833  12.976  1.00  0.00    -0.288 N 
HETATM    2  C   UNL     1     -43.196 -50.900  13.005  1.00  0.00     0.117 C 
HETATM    3  C   UNL     1     -41.936 -51.284  12.644  1.00  0.00     0.144 C 
HETATM    4  C   UNL     1     -41.727 -52.721  12.261  1.00  0.00     0.279 C 
HETATM    5  O   UNL     1     -40.619 -53.193  12.020  1.00  0.00    -0.265 OA
HETATM    6  N   UNL     1     -42.831 -53.505  12.190  1.00  0.00    -0.273 N 
HETATM    7  C   UNL     1     -44.065 -53.165  12.627  1.00  0.00     0.330 C 
HETATM    8  O   UNL     1     -44.936 -54.034  12.679  1.00  0.00    -0.246 OA
HETATM    9  H   UNL     1     -42.691 -54.473  11.951  1.00  0.00     0.173 HD
ENDROOT
BRANCH   3  10
HETATM   10  N   UNL     1     -40.816 -50.436  12.579  1.00  0.00    -0.309 N 
HETATM   11  C   UNL     1     -39.981 -50.155  13.675  1.00  0.00     0.220 C 
HETATM   12  O   UNL     1     -39.007 -49.396  13.578  1.00  0.00    -0.273 OA
HETATM   13  C   UNL     1     -40.188 -50.850  15.001  1.00  0.00     0.117 C 
BRANCH  10  14
HETATM   14  C   UNL     1     -40.457 -49.706  11.347  1.00  0.00     0.158 C 
BRANCH  14  15
HETATM   15  C   UNL     1     -41.049 -48.319  11.073  1.00  0.00     0.187 C 
BRANCH  15  16
HETATM   16  O   UNL     1     -42.447 -48.394  10.788  1.00  0.00    -0.394 OA
HETATM   17  C   UNL     1     -42.767 -47.643   9.620  1.00  0.00     0.201 C 
ENDBRANCH  15  16
ENDBRANCH  14  15
ENDBRANCH  10  14
ENDBRANCH   3  10
BRANCH   2  18
HETATM   18  N   UNL     1     -43.457 -49.580  13.370  1.00  0.00    -0.286 NA
HETATM   19  H   UNL     1     -43.955 -49.490  14.248  1.00  0.00     0.125 HD
HETATM   20  H   UNL     1     -43.921 -49.054  12.633  1.00  0.00     0.125 HD
ENDBRANCH   2  18
BRANCH   1  21
HETATM   21  C   UNL     1     -45.647 -51.454  13.270  1.00  0.00     0.135 C 
BRANCH  21  22
HETATM   22  C   UNL     1     -45.968 -51.387  14.776  1.00  0.00     0.016 C 
HETATM   23  C   UNL     1     -47.093 -52.308  15.237  1.00  0.00     0.006 C 
ENDBRANCH  21  22
ENDBRANCH   1  21
TORSDOF 7
ENDMDL
MODEL 4
REMARK VINA RESULT:      -4.9      3.822      5.751
REMARK  7 active torsions:
REMARK  status: ('A' for Active; 'I' for Inactive)
REMARK    1  A    between atoms: C_2  and  C_3 
REMARK    2  A    between atoms: C_3  and  N_4 
REMARK    3  A    between atoms: C_5  and  N_6 
REMARK    4  A    between atoms: C_7  and  N_8 
REMARK    5  A    between atoms: N_8  and  C_9 
REMARK       I    between atoms: N_8  and  C_13 
REMARK    6  A    between atoms: C_9  and  C_10 
REMARK    7  A    between atoms: C_10  and  O_11 
ROOT
HETATM    1  N   UNL     1     -44.325 -52.674  14.030  1.00  0.00    -0.288 N 
HETATM    2  C   UNL     1     -43.286 -51.798  14.399  1.00  0.00     0.117 C 
HETATM    3  C   UNL     1     -42.237 -51.589  13.550  1.00  0.00     0.144 C 
HETATM    4  C   UNL     1     -42.224 -52.347  12.254  1.00  0.00     0.279 C 
HETATM    5  O   UNL     1     -41.281 -52.311  11.469  1.00  0.00    -0.265 OA
HETATM    6  N   UNL     1     -43.318 -53.098  11.971  1.00  0.00    -0.273 N 
HETATM    7  C   UNL     1     -44.319 -53.383  12.835  1.00  0.00     0.330 C 
HETATM    8  O   UNL     1     -45.155 -54.229  12.515  1.00  0.00    -0.246 OA
HETATM    9  H   UNL     1     -43.304 -53.621  11.112  1.00  0.00     0.173 HD
ENDROOT
BRANCH   3  10
HETATM   10  N   UNL     1     -41.172 -50.699  13.780  1.00  0.00    -0.309 N 
HETATM   11  C   UNL     1     -41.096 -49.408  13.227  1.00  0.00     0.220 C 
HETATM   12  O   UNL     1     -40.137 -48.656  13.448  1.00  0.00    -0.273 OA
HETATM   13  C   UNL     1     -42.239 -48.850  12.412  1.00  0.00     0.117 C 
BRANCH  10  14
HETATM   14  C   UNL     1     -39.992 -51.079  14.583  1.00  0.00     0.158 C 
BRANCH  14  15
HETATM   15  C   UNL     1     -39.060 -52.195  14.101  1.00  0.00     0.187 C 
BRANCH  15  16
HETATM   16  O   UNL     1     -38.430 -51.855  12.864  1.00  0.00    -0.394 OA
HETATM   17  C   UNL     1     -37.395 -50.897  13.068  1.00  0.00     0.201 C 
ENDBRANCH  15  16
ENDBRANCH  14  15
ENDBRANCH  10  14
ENDBRANCH   3  10
BRANCH   2  18
HETATM   18  N   UNL     1     -43.357 -51.124  15.617  1.00  0.00    -0.286 NA
HETATM   19  H   UNL     1     -43.551 -51.728  16.408  1.00  0.00     0.125 HD
HETATM   20  H   UNL     1     -44.002 -50.338  15.593  1.00  0.00     0.125 HD
ENDBRANCH   2  18
BRANCH   1  21
HETATM   21  C   UNL     1     -45.525 -52.872  14.867  1.00  0.00     0.135 C 
BRANCH  21  22
HETATM   22  C   UNL     1     -46.607 -51.795  14.666  1.00  0.00     0.016 C 
HETATM   23  C   UNL     1     -47.352 -51.386  15.933  1.00  0.00     0.006 C 
ENDBRANCH  21  22
ENDBRANCH   1  21
TORSDOF 7
ENDMDL
MODEL 5
REMARK VINA RESULT:      -4.7      3.952      5.887
REMARK  7 active torsions:
REMARK  status: ('A' for Active; 'I' for Inactive)
REMARK    1  A    between atoms: C_2  and  C_3 
REMARK    2  A    between atoms: C_3  and  N_4 
REMARK    3  A    between atoms: C_5  and  N_6 
REMARK    4  A    between atoms: C_7  and  N_8 
REMARK    5  A    between atoms: N_8  and  C_9 
REMARK       I    between atoms: N_8  and  C_13 
REMARK    6  A    between atoms: C_9  and  C_10 
REMARK    7  A    between atoms: C_10  and  O_11 
ROOT
HETATM    1  N   UNL     1     -44.421 -52.802  14.073  1.00  0.00    -0.288 N 
HETATM    2  C   UNL     1     -43.202 -52.497  14.707  1.00  0.00     0.117 C 
HETATM    3  C   UNL     1     -42.060 -52.376  13.966  1.00  0.00     0.144 C 
HETATM    4  C   UNL     1     -42.158 -52.617  12.487  1.00  0.00     0.279 C 
HETATM    5  O   UNL     1     -41.178 -52.637  11.748  1.00  0.00    -0.265 OA
HETATM    6  N   UNL     1     -43.398 -52.824  11.979  1.00  0.00    -0.273 N 
HETATM    7  C   UNL     1     -44.520 -53.032  12.706  1.00  0.00     0.330 C 
HETATM    8  O   UNL     1     -45.544 -53.395  12.126  1.00  0.00    -0.246 OA
HETATM    9  H   UNL     1     -43.464 -53.004  10.991  1.00  0.00     0.173 HD
ENDROOT
BRANCH   3  10
HETATM   10  N   UNL     1     -40.797 -52.020  14.473  1.00  0.00    -0.309 N 
HETATM   11  C   UNL     1     -39.858 -52.948  14.958  1.00  0.00     0.220 C 
HETATM   12  O   UNL     1     -38.758 -52.594  15.404  1.00  0.00    -0.273 OA
HETATM   13  C   UNL     1     -40.121 -54.433  14.865  1.00  0.00     0.117 C 
BRANCH  10  14
HETATM   14  C   UNL     1     -40.372 -50.612  14.600  1.00  0.00     0.158 C 
BRANCH  14  15
HETATM   15  C   UNL     1     -39.876 -49.844  13.371  1.00  0.00     0.187 C 
BRANCH  15  16
HETATM   16  O   UNL     1     -38.787 -50.517  12.737  1.00  0.00    -0.394 OA
HETATM   17  C   UNL     1     -38.290 -49.756  11.639  1.00  0.00     0.201 C 
ENDBRANCH  15  16
ENDBRANCH  14  15
ENDBRANCH  10  14
ENDBRANCH   3  10
BRANCH   2  18
HETATM   18  N   UNL     1     -43.178 -52.283  16.084  1.00  0.00    -0.286 NA
HETATM   19  H   UNL     1     -43.121 -51.305  16.344  1.00  0.00     0.125 HD
HETATM   20  H   UNL     1     -42.459 -52.827  16.553  1.00  0.00     0.125 HD
ENDBRANCH   2  18
BRANCH   1  21
HETATM   21  C   UNL     1     -45.700 -52.859  14.809  1.00  0.00     0.135 C 
BRANCH  21  22
HETATM   22  C   UNL     1     -46.443 -51.510  14.868  1.00  0.00     0.016 C 
HETATM   23  C   UNL     1     -47.339 -51.321  16.087  1.00  0.00     0.006 C 
ENDBRANCH  21  22
ENDBRANCH   1  21
TORSDOF 7
ENDMDL
MODEL 6
REMARK VINA RESULT:      -4.7      3.140      4.615
REMARK  7 active torsions:
REMARK  status: ('A' for Active; 'I' for Inactive)
REMARK    1  A    between atoms: C_2  and  C_3 
REMARK    2  A    between atoms: C_3  and  N_4 
REMARK    3  A    between atoms: C_5  and  N_6 
REMARK    4  A    between atoms: C_7  and  N_8 
REMARK    5  A    between atoms: N_8  and  C_9 
REMARK       I    between atoms: N_8  and  C_13 
REMARK    6  A    between atoms: C_9  and  C_10 
REMARK    7  A    between atoms: C_10  and  O_11 
ROOT
HETATM    1  N   UNL     1     -43.545 -52.056  12.976  1.00  0.00    -0.288 N 
HETATM    2  C   UNL     1     -42.239 -51.805  12.514  1.00  0.00     0.117 C 
HETATM    3  C   UNL     1     -41.506 -50.791  13.062  1.00  0.00     0.144 C 
HETATM    4  C   UNL     1     -42.156 -49.954  14.126  1.00  0.00     0.279 C 
HETATM    5  O   UNL     1     -41.625 -48.958  14.609  1.00  0.00    -0.265 OA
HETATM    6  N   UNL     1     -43.386 -50.341  14.547  1.00  0.00    -0.273 N 
HETATM    7  C   UNL     1     -44.157 -51.283  13.956  1.00  0.00     0.330 C 
HETATM    8  O   UNL     1     -45.326 -51.406  14.321  1.00  0.00    -0.246 OA
HETATM    9  H   UNL     1     -43.831 -49.771  15.246  1.00  0.00     0.173 HD
ENDROOT
BRANCH   3  10
HETATM   10  N   UNL     1     -40.176 -50.479  12.727  1.00  0.00    -0.309 N 
HETATM   11  C   UNL     1     -39.815 -49.577  11.709  1.00  0.00     0.220 C 
HETATM   12  O   UNL     1     -38.631 -49.333  11.440  1.00  0.00    -0.273 OA
HETATM   13  C   UNL     1     -40.870 -48.793  10.964  1.00  0.00     0.117 C 
BRANCH  10  14
HETATM   14  C   UNL     1     -39.027 -51.133  13.385  1.00  0.00     0.158 C 
BRANCH  14  15
HETATM   15  C   UNL     1     -39.246 -52.363  14.271  1.00  0.00     0.187 C 
BRANCH  15  16
HETATM   16  O   UNL     1     -38.772 -53.554  13.640  1.00  0.00    -0.394 OA
HETATM   17  C   UNL     1     -39.224 -54.712  14.337  1.00  0.00     0.201 C 
ENDBRANCH  15  16
ENDBRANCH  14  15
ENDBRANCH  10  14
ENDBRANCH   3  10
BRANCH   2  18
HETATM   18  N   UNL     1     -41.693 -52.620  11.524  1.00  0.00    -0.286 NA
HETATM   19  H   UNL     1     -40.912 -53.182  11.843  1.00  0.00     0.125 HD
HETATM   20  H   UNL     1     -41.450 -52.105  10.682  1.00  0.00     0.125 HD
ENDBRANCH   2  18
BRANCH   1  21
HETATM   21  C   UNL     1     -44.352 -53.190  12.483  1.00  0.00     0.135 C 
BRANCH  21  22
HETATM   22  C   UNL     1     -44.186 -54.478  13.314  1.00  0.00     0.016 C 
HETATM   23  C   UNL     1     -45.488 -55.092  13.816  1.00  0.00     0.006 C 
ENDBRANCH  21  22
ENDBRANCH   1  21
TORSDOF 7
ENDMDL
MODEL 7
REMARK VINA RESULT:      -4.7      2.373      6.240
REMARK  7 active torsions:
REMARK  status: ('A' for Active; 'I' for Inactive)
REMARK    1  A    between atoms: C_2  and  C_3 
REMARK    2  A    between atoms: C_3  and  N_4 
REMARK    3  A    between atoms: C_5  and  N_6 
REMARK    4  A    between atoms: C_7  and  N_8 
REMARK    5  A    between atoms: N_8  and  C_9 
REMARK       I    between atoms: N_8  and  C_13 
REMARK    6  A    between atoms: C_9  and  C_10 
REMARK    7  A    between atoms: C_10  and  O_11 
ROOT
HETATM    1  N   UNL     1     -40.103 -48.748  12.357  1.00  0.00    -0.288 N 
HETATM    2  C   UNL     1     -40.209 -47.345  12.328  1.00  0.00     0.117 C 
HETATM    3  C   UNL     1     -41.077 -46.745  11.461  1.00  0.00     0.144 C 
HETATM    4  C   UNL     1     -41.864 -47.628  10.536  1.00  0.00     0.279 C 
HETATM    5  O   UNL     1     -42.592 -47.188   9.651  1.00  0.00    -0.265 OA
HETATM    6  N   UNL     1     -41.739 -48.967  10.712  1.00  0.00    -0.273 N 
HETATM    7  C   UNL     1     -40.823 -49.574  11.501  1.00  0.00     0.330 C 
HETATM    8  O   UNL     1     -40.692 -50.795  11.427  1.00  0.00    -0.246 OA
HETATM    9  H   UNL     1     -42.251 -49.561  10.082  1.00  0.00     0.173 HD
ENDROOT
BRANCH   3  10
HETATM   10  N   UNL     1     -41.314 -45.361  11.377  1.00  0.00    -0.309 N 
HETATM   11  C   UNL     1     -40.489 -44.466  10.671  1.00  0.00     0.220 C 
HETATM   12  O   UNL     1     -40.728 -43.251  10.626  1.00  0.00    -0.273 OA
HETATM   13  C   UNL     1     -39.323 -44.973   9.854  1.00  0.00     0.117 C 
BRANCH  10  14
HETATM   14  C   UNL     1     -42.432 -44.712  12.090  1.00  0.00     0.158 C 
BRANCH  14  15
HETATM   15  C   UNL     1     -42.346 -44.473  13.601  1.00  0.00     0.187 C 
BRANCH  15  16
HETATM   16  O   UNL     1     -41.008 -44.182  14.010  1.00  0.00    -0.394 OA
HETATM   17  C   UNL     1     -40.929 -44.044  15.426  1.00  0.00     0.201 C 
ENDBRANCH  15  16
ENDBRANCH  14  15
ENDBRANCH  10  14
ENDBRANCH   3  10
BRANCH   2  18
HETATM   18  N   UNL     1     -39.451 -46.581  13.214  1.00  0.00    -0.286 NA
HETATM   19  H   UNL     1     -38.547 -46.985  13.432  1.00  0.00     0.125 HD
HETATM   20  H   UNL     1     -39.959 -46.345  14.062  1.00  0.00     0.125 HD
ENDBRANCH   2  18
BRANCH   1  21
HETATM   21  C   UNL     1     -39.248 -49.455  13.331  1.00  0.00     0.135 C 
BRANCH  21  22
HETATM   22  C   UNL     1     -37.781 -49.599  12.882  1.00  0.00     0.016 C 
HETATM   23  C   UNL     1     -37.306 -51.035  12.683  1.00  0.00     0.006 C 
ENDBRANCH  21  22
ENDBRANCH   1  21
TORSDOF 7
ENDMDL
MODEL 8
REMARK VINA RESULT:      -4.7      2.468      6.132
REMARK  7 active torsions:
REMARK  status: ('A' for Active; 'I' for Inactive)
REMARK    1  A    between atoms: C_2  and  C_3 
REMARK    2  A    between atoms: C_3  and  N_4 
REMARK    3  A    between atoms: C_5  and  N_6 
REMARK    4  A    between atoms: C_7  and  N_8 
REMARK    5  A    between atoms: N_8  and  C_9 
REMARK       I    between atoms: N_8  and  C_13 
REMARK    6  A    between atoms: C_9  and  C_10 
REMARK    7  A    between atoms: C_10  and  O_11 
ROOT
HETATM    1  N   UNL     1     -42.341 -51.959  12.535  1.00  0.00    -0.288 N 
HETATM    2  C   UNL     1     -42.935 -50.684  12.597  1.00  0.00     0.117 C 
HETATM    3  C   UNL     1     -42.227 -49.583  12.206  1.00  0.00     0.144 C 
HETATM    4  C   UNL     1     -40.810 -49.787  11.756  1.00  0.00     0.279 C 
HETATM    5  O   UNL     1     -40.055 -48.857  11.483  1.00  0.00    -0.265 OA
HETATM    6  N   UNL     1     -40.373 -51.067  11.660  1.00  0.00    -0.273 N 
HETATM    7  C   UNL     1     -41.027 -52.156  12.125  1.00  0.00     0.330 C 
HETATM    8  O   UNL     1     -40.439 -53.237  12.146  1.00  0.00    -0.246 OA
HETATM    9  H   UNL     1     -39.418 -51.205  11.377  1.00  0.00     0.173 HD
ENDROOT
BRANCH   3  10
HETATM   10  N   UNL     1     -42.727 -48.269  12.168  1.00  0.00    -0.309 N 
HETATM   11  C   UNL     1     -42.694 -47.386  13.262  1.00  0.00     0.220 C 
HETATM   12  O   UNL     1     -43.151 -46.237  13.191  1.00  0.00    -0.273 OA
HETATM   13  C   UNL     1     -42.006 -47.778  14.550  1.00  0.00     0.117 C 
BRANCH  10  14
HETATM   14  C   UNL     1     -43.399 -47.720  10.973  1.00  0.00     0.158 C 
BRANCH  14  15
HETATM   15  C   UNL     1     -42.571 -47.212   9.789  1.00  0.00     0.187 C 
BRANCH  15  16
HETATM   16  O   UNL     1     -42.321 -45.809   9.888  1.00  0.00    -0.394 OA
HETATM   17  C   UNL     1     -41.021 -45.561  10.416  1.00  0.00     0.201 C 
ENDBRANCH  15  16
ENDBRANCH  14  15
ENDBRANCH  10  14
ENDBRANCH   3  10
BRANCH   2  18
HETATM   18  N   UNL     1     -44.256 -50.563  13.023  1.00  0.00    -0.286 NA
HETATM   19  H   UNL     1     -44.760 -49.802  12.581  1.00  0.00     0.125 HD
HETATM   20  H   UNL     1     -44.339 -50.514  14.035  1.00  0.00     0.125 HD
ENDBRANCH   2  18
BRANCH   1  21
HETATM   21  C   UNL     1     -43.084 -53.193  12.861  1.00  0.00     0.135 C 
BRANCH  21  22
HETATM   22  C   UNL     1     -43.068 -53.551  14.360  1.00  0.00     0.016 C 
HETATM   23  C   UNL     1     -43.386 -55.008  14.677  1.00  0.00     0.006 C 
ENDBRANCH  21  22
ENDBRANCH   1  21
TORSDOF 7
ENDMDL
MODEL 9
REMARK VINA RESULT:      -4.7      3.136      5.156
REMARK  7 active torsions:
REMARK  status: ('A' for Active; 'I' for Inactive)
REMARK    1  A    between atoms: C_2  and  C_3 
REMARK    2  A    between atoms: C_3  and  N_4 
REMARK    3  A    between atoms: C_5  and  N_6 
REMARK    4  A    between atoms: C_7  and  N_8 
REMARK    5  A    between atoms: N_8  and  C_9 
REMARK       I    between atoms: N_8  and  C_13 
REMARK    6  A    between atoms: C_9  and  C_10 
REMARK    7  A    between atoms: C_10  and  O_11 
ROOT
HETATM    1  N   UNL     1     -43.718 -52.026  13.102  1.00  0.00    -0.288 N 
HETATM    2  C   UNL     1     -42.448 -51.875  12.512  1.00  0.00     0.117 C 
HETATM    3  C   UNL     1     -41.553 -50.989  13.040  1.00  0.00     0.144 C 
HETATM    4  C   UNL     1     -41.989 -50.175  14.224  1.00  0.00     0.279 C 
HETATM    5  O   UNL     1     -41.303 -49.280  14.708  1.00  0.00    -0.265 OA
HETATM    6  N   UNL     1     -43.203 -50.465  14.755  1.00  0.00    -0.273 N 
HETATM    7  C   UNL     1     -44.132 -51.273  14.194  1.00  0.00     0.330 C 
HETATM    8  O   UNL     1     -45.263 -51.303  14.681  1.00  0.00    -0.246 OA
HETATM    9  H   UNL     1     -43.506 -49.909  15.536  1.00  0.00     0.173 HD
ENDROOT
BRANCH   3  10
HETATM   10  N   UNL     1     -40.239 -50.790  12.578  1.00  0.00    -0.309 N 
HETATM   11  C   UNL     1     -39.118 -51.473  13.085  1.00  0.00     0.220 C 
HETATM   12  O   UNL     1     -37.975 -51.264  12.655  1.00  0.00    -0.273 OA
HETATM   13  C   UNL     1     -39.282 -52.565  14.116  1.00  0.00     0.117 C 
BRANCH  10  14
HETATM   14  C   UNL     1     -39.914 -49.783  11.548  1.00  0.00     0.158 C 
BRANCH  14  15
HETATM   15  C   UNL     1     -41.004 -48.846  11.016  1.00  0.00     0.187 C 
BRANCH  15  16
HETATM   16  O   UNL     1     -40.588 -47.480  11.062  1.00  0.00    -0.394 OA
HETATM   17  C   UNL     1     -41.616 -46.621  10.577  1.00  0.00     0.201 C 
ENDBRANCH  15  16
ENDBRANCH  14  15
ENDBRANCH  10  14
ENDBRANCH   3  10
BRANCH   2  18
HETATM   18  N   UNL     1     -42.103 -52.662  11.415  1.00  0.00    -0.286 NA
HETATM   19  H   UNL     1     -41.575 -52.165  10.706  1.00  0.00     0.125 HD
HETATM   20  H   UNL     1     -42.903 -53.138  11.006  1.00  0.00     0.125 HD
ENDBRANCH   2  18
BRANCH   1  21
HETATM   21  C   UNL     1     -44.693 -53.029  12.630  1.00  0.00     0.135 C 
BRANCH  21  22
HETATM   22  C   UNL     1     -44.495 -54.427  13.246  1.00  0.00     0.016 C 
HETATM   23  C   UNL     1     -45.721 -55.000  13.949  1.00  0.00     0.006 C 
ENDBRANCH  21  22
ENDBRANCH   1  21
TORSDOF 7
ENDMDL
