MODEL 1
REMARK VINA RESULT:      -6.1      0.000      0.000
REMARK  4 active torsions:
REMARK  status: ('A' for Active; 'I' for Inactive)
REMARK    1  A    between atoms: O_2  and  C_3 
REMARK    2  A    between atoms: C_3  and  C_4 
REMARK    3  A    between atoms: C_4  and  N_5 
REMARK    4  A    between atoms: C_6  and  N_18 
ROOT
HETATM    1  N   UNL     1     -40.660 -48.613  11.947  1.00  0.00    -0.170 N 
HETATM    2  C   UNL     1     -41.678 -49.546  12.099  1.00  0.00     0.708 A 
HETATM    3  N   UNL     1     -42.744 -49.211  11.388  1.00  0.00    -0.172 N 
ATOM      4  HN  UNL     1     -43.605 -49.745  11.272  1.00  0.00     0.186 HD
HETATM    5  C   UNL     1     -42.444 -48.003  10.847  1.00  0.00     0.160 A 
HETATM    6  N   UNL     1     -43.274 -47.243  10.052  1.00  0.00    -0.287 N 
HETATM    7  C   UNL     1     -44.625 -47.643   9.729  1.00  0.00     0.163 C 
HETATM    8  C   UNL     1     -42.793 -46.045   9.532  1.00  0.00     0.330 A 
HETATM    9  O   UNL     1     -43.454 -45.304   8.803  1.00  0.00    -0.246 OA
HETATM   10  N   UNL     1     -41.503 -45.690   9.866  1.00  0.00    -0.273 N 
HETATM   11  C   UNL     1     -40.623 -46.389  10.663  1.00  0.00     0.280 A 
HETATM   12  O   UNL     1     -39.495 -45.965  10.883  1.00  0.00    -0.265 OA
HETATM   13  C   UNL     1     -41.174 -47.606  11.158  1.00  0.00     0.164 A 
HETATM   14  H   UNL     1     -41.170 -44.820   9.480  1.00  0.00     0.173 HD
ENDROOT
BRANCH   2  15
HETATM   15  N   UNL     1     -41.608 -50.730  12.848  1.00  0.00    -0.090 N 
HETATM   16  N   UNL     1     -41.220 -51.874  12.230  1.00  0.00    -0.284 N 
HETATM   17  C   UNL     1     -41.236 -52.810  13.184  1.00  0.00     0.025 A 
ATOM     18  HN  UNL     1     -40.969 -51.995  11.248  1.00  0.00     0.188 HD
HETATM   19  C   UNL     1     -40.838 -54.208  12.888  1.00  0.00     0.070 C 
HETATM   20  C   UNL     1     -41.673 -52.286  14.415  1.00  0.00     0.053 A 
HETATM   21  C   UNL     1     -41.891 -50.945  14.184  1.00  0.00     0.050 A 
HETATM   22  C   UNL     1     -42.403 -49.892  15.093  1.00  0.00     0.071 C 
ENDBRANCH   2  15
BRANCH   1  23
HETATM   23  C   UNL     1     -39.268 -48.749  12.349  1.00  0.00     0.174 C 
BRANCH  23  24
HETATM   24  C   UNL     1     -38.480 -49.707  11.451  1.00  0.00     0.187 C 
BRANCH  24  25
HETATM   25  O   UNL     1     -38.272 -50.944  12.136  1.00  0.00    -0.394 OA
HETATM   26  C   UNL     1     -38.006 -50.727  13.517  1.00  0.00     0.201 C 
ENDBRANCH  24  25
ENDBRANCH  23  24
ENDBRANCH   1  23
TORSDOF 4
ENDMDL
MODEL 2
REMARK VINA RESULT:      -6.0      3.607      5.783
REMARK  4 active torsions:
REMARK  status: ('A' for Active; 'I' for Inactive)
REMARK    1  A    between atoms: O_2  and  C_3 
REMARK    2  A    between atoms: C_3  and  C_4 
REMARK    3  A    between atoms: C_4  and  N_5 
REMARK    4  A    between atoms: C_6  and  N_18 
ROOT
HETATM    1  N   UNL     1     -43.067 -52.279  13.399  1.00  0.00    -0.170 N 
HETATM    2  C   UNL     1     -43.864 -51.235  13.850  1.00  0.00     0.708 A 
HETATM    3  N   UNL     1     -43.332 -50.061  13.545  1.00  0.00    -0.172 N 
ATOM      4  HN  UNL     1     -43.734 -49.137  13.705  1.00  0.00     0.186 HD
HETATM    5  C   UNL     1     -42.136 -50.352  12.973  1.00  0.00     0.160 A 
HETATM    6  N   UNL     1     -41.209 -49.436  12.523  1.00  0.00    -0.287 N 
HETATM    7  C   UNL     1     -41.397 -48.009  12.655  1.00  0.00     0.163 C 
HETATM    8  C   UNL     1     -40.049 -49.901  11.912  1.00  0.00     0.330 A 
HETATM    9  O   UNL     1     -39.170 -49.162  11.468  1.00  0.00    -0.246 OA
HETATM   10  N   UNL     1     -39.899 -51.268  11.809  1.00  0.00    -0.273 N 
HETATM   11  C   UNL     1     -40.772 -52.240  12.246  1.00  0.00     0.280 A 
HETATM   12  O   UNL     1     -40.523 -53.429  12.093  1.00  0.00    -0.265 OA
HETATM   13  C   UNL     1     -41.940 -51.699  12.858  1.00  0.00     0.164 A 
HETATM   14  H   UNL     1     -39.054 -51.588  11.363  1.00  0.00     0.173 HD
ENDROOT
BRANCH   2  15
HETATM   15  N   UNL     1     -45.103 -51.361  14.495  1.00  0.00    -0.090 N 
HETATM   16  N   UNL     1     -45.137 -51.380  15.852  1.00  0.00    -0.284 N 
HETATM   17  C   UNL     1     -46.430 -51.492  16.167  1.00  0.00     0.025 A 
ATOM     18  HN  UNL     1     -44.345 -51.321  16.492  1.00  0.00     0.188 HD
HETATM   19  C   UNL     1     -46.870 -51.519  17.584  1.00  0.00     0.070 C 
HETATM   20  C   UNL     1     -47.238 -51.587  15.018  1.00  0.00     0.053 A 
HETATM   21  C   UNL     1     -46.370 -51.484  13.954  1.00  0.00     0.050 A 
HETATM   22  C   UNL     1     -46.634 -51.562  12.497  1.00  0.00     0.071 C 
ENDBRANCH   2  15
BRANCH   1  23
HETATM   23  C   UNL     1     -43.422 -53.688  13.311  1.00  0.00     0.174 C 
BRANCH  23  24
HETATM   24  C   UNL     1     -43.398 -54.393  14.670  1.00  0.00     0.187 C 
BRANCH  24  25
HETATM   25  O   UNL     1     -44.735 -54.682  15.083  1.00  0.00    -0.394 OA
HETATM   26  C   UNL     1     -45.554 -55.017  13.970  1.00  0.00     0.201 C 
ENDBRANCH  24  25
ENDBRANCH  23  24
ENDBRANCH   1  23
TORSDOF 4
ENDMDL
MODEL 3
REMARK VINA RESULT:      -6.0      3.922      6.404
REMARK  4 active torsions:
REMARK  status: ('A' for Active; 'I' for Inactive)
REMARK    1  A    between atoms: O_2  and  C_3 
REMARK    2  A    between atoms: C_3  and  C_4 
REMARK    3  A    between atoms: C_4  and  N_5 
REMARK    4  A    between atoms: C_6  and  N_18 
ROOT
HETATM    1  N   UNL     1     -42.376 -52.914  13.863  1.00  0.00    -0.170 N 
HETATM    2  C   UNL     1     -43.106 -51.737  13.757  1.00  0.00     0.708 A 
HETATM    3  N   UNL     1     -42.306 -50.682  13.707  1.00  0.00    -0.172 N 
ATOM      4  HN  UNL     1     -42.572 -49.707  13.571  1.00  0.00     0.186 HD
HETATM    5  C   UNL     1     -41.054 -51.178  13.876  1.00  0.00     0.160 A 
HETATM    6  N   UNL     1     -39.891 -50.440  13.930  1.00  0.00    -0.287 N 
HETATM    7  C   UNL     1     -39.879 -48.997  13.852  1.00  0.00     0.163 C 
HETATM    8  C   UNL     1     -38.678 -51.110  14.058  1.00  0.00     0.330 A 
HETATM    9  O   UNL     1     -37.587 -50.540  14.103  1.00  0.00    -0.246 OA
HETATM   10  N   UNL     1     -38.726 -52.485  14.137  1.00  0.00    -0.273 N 
HETATM   11  C   UNL     1     -39.846 -53.286  14.105  1.00  0.00     0.280 A 
HETATM   12  O   UNL     1     -39.756 -54.505  14.182  1.00  0.00    -0.265 OA
HETATM   13  C   UNL     1     -41.054 -52.541  13.968  1.00  0.00     0.164 A 
HETATM   14  H   UNL     1     -37.838 -52.954  14.228  1.00  0.00     0.173 HD
ENDROOT
BRANCH   2  15
HETATM   15  N   UNL     1     -44.501 -51.635  13.652  1.00  0.00    -0.090 N 
HETATM   16  N   UNL     1     -45.074 -51.728  12.426  1.00  0.00    -0.284 N 
HETATM   17  C   UNL     1     -46.387 -51.611  12.645  1.00  0.00     0.025 A 
ATOM     18  HN  UNL     1     -44.605 -51.858  11.530  1.00  0.00     0.188 HD
HETATM   19  C   UNL     1     -47.357 -51.691  11.526  1.00  0.00     0.070 C 
HETATM   20  C   UNL     1     -46.669 -51.402  14.009  1.00  0.00     0.053 A 
HETATM   21  C   UNL     1     -45.446 -51.438  14.642  1.00  0.00     0.050 A 
HETATM   22  C   UNL     1     -45.106 -51.234  16.071  1.00  0.00     0.071 C 
ENDBRANCH   2  15
BRANCH   1  23
HETATM   23  C   UNL     1     -42.863 -54.274  13.690  1.00  0.00     0.174 C 
BRANCH  23  24
HETATM   24  C   UNL     1     -43.331 -54.911  15.003  1.00  0.00     0.187 C 
BRANCH  24  25
HETATM   25  O   UNL     1     -44.758 -54.900  15.058  1.00  0.00    -0.394 OA
HETATM   26  C   UNL     1     -45.323 -55.114  13.770  1.00  0.00     0.201 C 
ENDBRANCH  24  25
ENDBRANCH  23  24
ENDBRANCH   1  23
TORSDOF 4
ENDMDL
MODEL 4
REMARK VINA RESULT:      -5.6      1.996      5.755
REMARK  4 active torsions:
REMARK  status: ('A' for Active; 'I' for Inactive)
REMARK    1  A    between atoms: O_2  and  C_3 
REMARK    2  A    between atoms: C_3  and  C_4 
REMARK    3  A    between atoms: C_4  and  N_5 
REMARK    4  A    between atoms: C_6  and  N_18 
ROOT
HETATM    1  N   UNL     1     -40.161 -49.409  12.028  1.00  0.00    -0.170 N 
HETATM    2  C   UNL     1     -41.485 -49.509  11.623  1.00  0.00     0.708 A 
HETATM    3  N   UNL     1     -42.013 -50.667  11.993  1.00  0.00    -0.172 N 
ATOM      4  HN  UNL     1     -42.978 -50.975  11.877  1.00  0.00     0.186 HD
HETATM    5  C   UNL     1     -40.991 -51.356  12.561  1.00  0.00     0.160 A 
HETATM    6  N   UNL     1     -41.059 -52.636  13.066  1.00  0.00    -0.287 N 
HETATM    7  C   UNL     1     -42.263 -53.434  13.005  1.00  0.00     0.163 C 
HETATM    8  C   UNL     1     -39.928 -53.183  13.664  1.00  0.00     0.330 A 
HETATM    9  O   UNL     1     -39.895 -54.313  14.154  1.00  0.00    -0.246 OA
HETATM   10  N   UNL     1     -38.795 -52.398  13.698  1.00  0.00    -0.273 N 
HETATM   11  C   UNL     1     -38.648 -51.121  13.204  1.00  0.00     0.280 A 
HETATM   12  O   UNL     1     -37.583 -50.524  13.298  1.00  0.00    -0.265 OA
HETATM   13  C   UNL     1     -39.842 -50.618  12.609  1.00  0.00     0.164 A 
HETATM   14  H   UNL     1     -37.986 -52.809  14.136  1.00  0.00     0.173 HD
ENDROOT
BRANCH   2  15
HETATM   15  N   UNL     1     -42.224 -48.518  10.960  1.00  0.00    -0.090 N 
HETATM   16  N   UNL     1     -42.235 -48.507   9.603  1.00  0.00    -0.284 N 
HETATM   17  C   UNL     1     -43.019 -47.477   9.269  1.00  0.00     0.025 A 
ATOM     18  HN  UNL     1     -41.750 -49.146   8.973  1.00  0.00     0.188 HD
HETATM   19  C   UNL     1     -43.296 -47.161   7.846  1.00  0.00     0.070 C 
HETATM   20  C   UNL     1     -43.486 -46.792  10.405  1.00  0.00     0.053 A 
HETATM   21  C   UNL     1     -42.979 -47.485  11.483  1.00  0.00     0.050 A 
HETATM   22  C   UNL     1     -43.095 -47.208  12.935  1.00  0.00     0.071 C 
ENDBRANCH   2  15
BRANCH   1  23
HETATM   23  C   UNL     1     -39.327 -48.217  12.040  1.00  0.00     0.174 C 
BRANCH  23  24
HETATM   24  C   UNL     1     -39.493 -47.387  13.316  1.00  0.00     0.187 C 
BRANCH  24  25
HETATM   25  O   UNL     1     -39.571 -46.001  12.980  1.00  0.00    -0.394 OA
HETATM   26  C   UNL     1     -39.845 -45.824  11.595  1.00  0.00     0.201 C 
ENDBRANCH  24  25
ENDBRANCH  23  24
ENDBRANCH   1  23
TORSDOF 4
ENDMDL
MODEL 5
REMARK VINA RESULT:      -5.6      1.943      2.770
REMARK  4 active torsions:
REMARK  status: ('A' for Active; 'I' for Inactive)
REMARK    1  A    between atoms: O_2  and  C_3 
REMARK    2  A    between atoms: C_3  and  C_4 
REMARK    3  A    between atoms: C_4  and  N_5 
REMARK    4  A    between atoms: C_6  and  N_18 
ROOT
HETATM    1  N   UNL     1     -41.899 -48.076  12.620  1.00  0.00    -0.170 N 
HETATM    2  C   UNL     1     -42.009 -49.181  11.786  1.00  0.00     0.708 A 
HETATM    3  N   UNL     1     -42.434 -48.830  10.581  1.00  0.00    -0.172 N 
ATOM      4  HN  UNL     1     -42.546 -49.430   9.764  1.00  0.00     0.186 HD
HETATM    5  C   UNL     1     -42.688 -47.500  10.669  1.00  0.00     0.160 A 
HETATM    6  N   UNL     1     -43.185 -46.703   9.661  1.00  0.00    -0.287 N 
HETATM    7  C   UNL     1     -43.546 -47.224   8.361  1.00  0.00     0.163 C 
HETATM    8  C   UNL     1     -43.341 -45.341   9.898  1.00  0.00     0.330 A 
HETATM    9  O   UNL     1     -43.766 -44.547   9.057  1.00  0.00    -0.246 OA
HETATM   10  N   UNL     1     -42.994 -44.878  11.150  1.00  0.00    -0.273 N 
HETATM   11  C   UNL     1     -42.507 -45.614  12.207  1.00  0.00     0.280 A 
HETATM   12  O   UNL     1     -42.232 -45.082  13.275  1.00  0.00    -0.265 OA
HETATM   13  C   UNL     1     -42.366 -46.999  11.898  1.00  0.00     0.164 A 
HETATM   14  H   UNL     1     -43.112 -43.889  11.304  1.00  0.00     0.173 HD
ENDROOT
BRANCH   2  15
HETATM   15  N   UNL     1     -41.670 -50.502  12.116  1.00  0.00    -0.090 N 
HETATM   16  N   UNL     1     -42.659 -51.367  12.452  1.00  0.00    -0.284 N 
HETATM   17  C   UNL     1     -42.041 -52.527  12.695  1.00  0.00     0.025 A 
ATOM     18  HN  UNL     1     -43.659 -51.175  12.508  1.00  0.00     0.188 HD
HETATM   19  C   UNL     1     -42.811 -53.738  13.071  1.00  0.00     0.070 C 
HETATM   20  C   UNL     1     -40.645 -52.409  12.556  1.00  0.00     0.053 A 
HETATM   21  C   UNL     1     -40.427 -51.105  12.167  1.00  0.00     0.050 A 
HETATM   22  C   UNL     1     -39.155 -50.385  11.915  1.00  0.00     0.071 C 
ENDBRANCH   2  15
BRANCH   1  23
HETATM   23  C   UNL     1     -41.236 -48.007  13.914  1.00  0.00     0.174 C 
BRANCH  23  24
HETATM   24  C   UNL     1     -42.180 -48.304  15.083  1.00  0.00     0.187 C 
BRANCH  24  25
HETATM   25  O   UNL     1     -42.333 -49.717  15.228  1.00  0.00    -0.394 OA
HETATM   26  C   UNL     1     -43.632 -50.045  15.706  1.00  0.00     0.201 C 
ENDBRANCH  24  25
ENDBRANCH  23  24
ENDBRANCH   1  23
TORSDOF 4
ENDMDL
MODEL 6
REMARK VINA RESULT:      -5.5      3.061      6.055
REMARK  4 active torsions:
REMARK  status: ('A' for Active; 'I' for Inactive)
REMARK    1  A    between atoms: O_2  and  C_3 
REMARK    2  A    between atoms: C_3  and  C_4 
REMARK    3  A    between atoms: C_4  and  N_5 
REMARK    4  A    between atoms: C_6  and  N_18 
ROOT
HETATM    1  N   UNL     1     -42.141 -51.164  13.194  1.00  0.00    -0.170 N 
HETATM    2  C   UNL     1     -43.159 -50.270  12.890  1.00  0.00     0.708 A 
HETATM    3  N   UNL     1     -44.349 -50.835  13.028  1.00  0.00    -0.172 N 
ATOM      4  HN  UNL     1     -45.262 -50.392  12.925  1.00  0.00     0.186 HD
HETATM    5  C   UNL     1     -44.092 -52.132  13.334  1.00  0.00     0.160 A 
HETATM    6  N   UNL     1     -45.033 -53.118  13.536  1.00  0.00    -0.287 N 
HETATM    7  C   UNL     1     -46.452 -52.881  13.396  1.00  0.00     0.163 C 
HETATM    8  C   UNL     1     -44.604 -54.391  13.896  1.00  0.00     0.330 A 
HETATM    9  O   UNL     1     -45.368 -55.333  14.109  1.00  0.00    -0.246 OA
HETATM   10  N   UNL     1     -43.244 -54.585  14.014  1.00  0.00    -0.273 N 
HETATM   11  C   UNL     1     -42.247 -53.655  13.815  1.00  0.00     0.280 A 
HETATM   12  O   UNL     1     -41.067 -53.952  13.954  1.00  0.00    -0.265 OA
HETATM   13  C   UNL     1     -42.752 -52.372  13.454  1.00  0.00     0.164 A 
HETATM   14  H   UNL     1     -42.950 -55.512  14.276  1.00  0.00     0.173 HD
ENDROOT
BRANCH   2  15
HETATM   15  N   UNL     1     -42.996 -48.922  12.536  1.00  0.00    -0.090 N 
HETATM   16  N   UNL     1     -42.997 -48.585  11.222  1.00  0.00    -0.284 N 
HETATM   17  C   UNL     1     -42.840 -47.258  11.202  1.00  0.00     0.025 A 
ATOM     18  HN  UNL     1     -43.095 -49.209  10.422  1.00  0.00     0.188 HD
HETATM   19  C   UNL     1     -42.818 -46.512   9.920  1.00  0.00     0.070 C 
HETATM   20  C   UNL     1     -42.696 -46.733  12.500  1.00  0.00     0.053 A 
HETATM   21  C   UNL     1     -42.816 -47.815  13.345  1.00  0.00     0.050 A 
HETATM   22  C   UNL     1     -42.706 -47.888  14.822  1.00  0.00     0.071 C 
ENDBRANCH   2  15
BRANCH   1  23
HETATM   23  C   UNL     1     -40.734 -50.862  13.409  1.00  0.00     0.174 C 
BRANCH  23  24
HETATM   24  C   UNL     1     -39.893 -51.005  12.137  1.00  0.00     0.187 C 
BRANCH  24  25
HETATM   25  O   UNL     1     -40.097 -49.867  11.298  1.00  0.00    -0.394 OA
HETATM   26  C   UNL     1     -39.363 -48.744  11.770  1.00  0.00     0.201 C 
ENDBRANCH  24  25
ENDBRANCH  23  24
ENDBRANCH   1  23
TORSDOF 4
ENDMDL
MODEL 7
REMARK VINA RESULT:      -5.5      3.979      6.893
REMARK  4 active torsions:
REMARK  status: ('A' for Active; 'I' for Inactive)
REMARK    1  A    between atoms: O_2  and  C_3 
REMARK    2  A    between atoms: C_3  and  C_4 
REMARK    3  A    between atoms: C_4  and  N_5 
REMARK    4  A    between atoms: C_6  and  N_18 
ROOT
HETATM    1  N   UNL     1     -42.209 -52.302  13.393  1.00  0.00    -0.170 N 
HETATM    2  C   UNL     1     -43.407 -52.784  13.904  1.00  0.00     0.708 A 
HETATM    3  N   UNL     1     -43.198 -53.776  14.757  1.00  0.00    -0.172 N 
ATOM      4  HN  UNL     1     -43.893 -54.269  15.318  1.00  0.00     0.186 HD
HETATM    5  C   UNL     1     -41.859 -53.995  14.725  1.00  0.00     0.160 A 
HETATM    6  N   UNL     1     -41.180 -54.964  15.431  1.00  0.00    -0.287 N 
HETATM    7  C   UNL     1     -41.849 -55.919  16.285  1.00  0.00     0.163 C 
HETATM    8  C   UNL     1     -39.793 -55.023  15.325  1.00  0.00     0.330 A 
HETATM    9  O   UNL     1     -39.099 -55.844  15.925  1.00  0.00    -0.246 OA
HETATM   10  N   UNL     1     -39.188 -54.102  14.496  1.00  0.00    -0.273 N 
HETATM   11  C   UNL     1     -39.800 -53.118  13.751  1.00  0.00     0.280 A 
HETATM   12  O   UNL     1     -39.146 -52.355  13.051  1.00  0.00    -0.265 OA
HETATM   13  C   UNL     1     -41.217 -53.108  13.907  1.00  0.00     0.164 A 
HETATM   14  H   UNL     1     -38.184 -54.158  14.432  1.00  0.00     0.173 HD
ENDROOT
BRANCH   2  15
HETATM   15  N   UNL     1     -44.686 -52.280  13.626  1.00  0.00    -0.090 N 
HETATM   16  N   UNL     1     -45.203 -52.451  12.383  1.00  0.00    -0.284 N 
HETATM   17  C   UNL     1     -46.414 -51.889  12.428  1.00  0.00     0.025 A 
ATOM     18  HN  UNL     1     -44.762 -52.910  11.586  1.00  0.00     0.188 HD
HETATM   19  C   UNL     1     -47.305 -51.902  11.242  1.00  0.00     0.070 C 
HETATM   20  C   UNL     1     -46.673 -51.315  13.687  1.00  0.00     0.053 A 
HETATM   21  C   UNL     1     -45.559 -51.591  14.449  1.00  0.00     0.050 A 
HETATM   22  C   UNL     1     -45.235 -51.200  15.842  1.00  0.00     0.071 C 
ENDBRANCH   2  15
BRANCH   1  23
HETATM   23  C   UNL     1     -42.000 -51.074  12.640  1.00  0.00     0.174 C 
BRANCH  23  24
HETATM   24  C   UNL     1     -42.168 -49.815  13.495  1.00  0.00     0.187 C 
BRANCH  24  25
HETATM   25  O   UNL     1     -41.091 -49.723  14.429  1.00  0.00    -0.394 OA
HETATM   26  C   UNL     1     -41.576 -49.655  15.765  1.00  0.00     0.201 C 
ENDBRANCH  24  25
ENDBRANCH  23  24
ENDBRANCH   1  23
TORSDOF 4
ENDMDL
MODEL 8
REMARK VINA RESULT:      -5.5      4.142      7.670
REMARK  4 active torsions:
REMARK  status: ('A' for Active; 'I' for Inactive)
REMARK    1  A    between atoms: O_2  and  C_3 
REMARK    2  A    between atoms: C_3  and  C_4 
REMARK    3  A    between atoms: C_4  and  N_5 
REMARK    4  A    between atoms: C_6  and  N_18 
ROOT
HETATM    1  N   UNL     1     -42.353 -53.162  14.103  1.00  0.00    -0.170 N 
HETATM    2  C   UNL     1     -43.252 -53.732  14.994  1.00  0.00     0.708 A 
HETATM    3  N   UNL     1     -42.641 -54.569  15.820  1.00  0.00    -0.172 N 
ATOM      4  HN  UNL     1     -43.050 -55.075  16.605  1.00  0.00     0.186 HD
HETATM    5  C   UNL     1     -41.352 -54.607  15.396  1.00  0.00     0.160 A 
HETATM    6  N   UNL     1     -40.345 -55.376  15.936  1.00  0.00    -0.287 N 
HETATM    7  C   UNL     1     -40.567 -56.296  17.029  1.00  0.00     0.163 C 
HETATM    8  C   UNL     1     -39.060 -55.260  15.414  1.00  0.00     0.330 A 
HETATM    9  O   UNL     1     -38.093 -55.896  15.837  1.00  0.00    -0.246 OA
HETATM   10  N   UNL     1     -38.884 -54.380  14.368  1.00  0.00    -0.273 N 
HETATM   11  C   UNL     1     -39.843 -53.592  13.769  1.00  0.00     0.280 A 
HETATM   12  O   UNL     1     -39.559 -52.843  12.842  1.00  0.00    -0.265 OA
HETATM   13  C   UNL     1     -41.134 -53.753  14.351  1.00  0.00     0.164 A 
HETATM   14  H   UNL     1     -37.948 -54.308  14.003  1.00  0.00     0.173 HD
ENDROOT
BRANCH   2  15
HETATM   15  N   UNL     1     -44.623 -53.446  15.083  1.00  0.00    -0.090 N 
HETATM   16  N   UNL     1     -45.021 -52.371  15.809  1.00  0.00    -0.284 N 
HETATM   17  C   UNL     1     -46.352 -52.348  15.697  1.00  0.00     0.025 A 
ATOM     18  HN  UNL     1     -44.432 -51.720  16.329  1.00  0.00     0.188 HD
HETATM   19  C   UNL     1     -47.154 -51.281  16.346  1.00  0.00     0.070 C 
HETATM   20  C   UNL     1     -46.827 -53.430  14.932  1.00  0.00     0.053 A 
HETATM   21  C   UNL     1     -45.700 -54.115  14.532  1.00  0.00     0.050 A 
HETATM   22  C   UNL     1     -45.573 -55.365  13.745  1.00  0.00     0.071 C 
ENDBRANCH   2  15
BRANCH   1  23
HETATM   23  C   UNL     1     -42.581 -52.024  13.224  1.00  0.00     0.174 C 
BRANCH  23  24
HETATM   24  C   UNL     1     -42.377 -50.679  13.927  1.00  0.00     0.187 C 
BRANCH  24  25
HETATM   25  O   UNL     1     -43.438 -49.789  13.575  1.00  0.00    -0.394 OA
HETATM   26  C   UNL     1     -42.999 -48.816  12.634  1.00  0.00     0.201 C 
ENDBRANCH  24  25
ENDBRANCH  23  24
ENDBRANCH   1  23
TORSDOF 4
ENDMDL
MODEL 9
REMARK VINA RESULT:      -5.5      2.920      5.766
REMARK  4 active torsions:
REMARK  status: ('A' for Active; 'I' for Inactive)
REMARK    1  A    between atoms: O_2  and  C_3 
REMARK    2  A    between atoms: C_3  and  C_4 
REMARK    3  A    between atoms: C_4  and  N_5 
REMARK    4  A    between atoms: C_6  and  N_18 
ROOT
HETATM    1  N   UNL     1     -41.831 -50.421  12.648  1.00  0.00    -0.170 N 
HETATM    2  C   UNL     1     -42.890 -49.526  12.731  1.00  0.00     0.708 A 
HETATM    3  N   UNL     1     -44.044 -50.162  12.870  1.00  0.00    -0.172 N 
ATOM      4  HN  UNL     1     -44.966 -49.751  13.012  1.00  0.00     0.186 HD
HETATM    5  C   UNL     1     -43.734 -51.481  12.782  1.00  0.00     0.160 A 
HETATM    6  N   UNL     1     -44.629 -52.528  12.836  1.00  0.00    -0.287 N 
HETATM    7  C   UNL     1     -46.056 -52.328  12.954  1.00  0.00     0.163 C 
HETATM    8  C   UNL     1     -44.141 -53.830  12.783  1.00  0.00     0.330 A 
HETATM    9  O   UNL     1     -44.860 -54.829  12.836  1.00  0.00    -0.246 OA
HETATM   10  N   UNL     1     -42.776 -53.984  12.663  1.00  0.00    -0.273 N 
HETATM   11  C   UNL     1     -41.826 -52.990  12.589  1.00  0.00     0.280 A 
HETATM   12  O   UNL     1     -40.636 -53.258  12.487  1.00  0.00    -0.265 OA
HETATM   13  C   UNL     1     -42.389 -51.682  12.655  1.00  0.00     0.164 A 
HETATM   14  H   UNL     1     -42.440 -54.934  12.627  1.00  0.00     0.173 HD
ENDROOT
BRANCH   2  15
HETATM   15  N   UNL     1     -42.791 -48.127  12.733  1.00  0.00    -0.090 N 
HETATM   16  N   UNL     1     -42.883 -47.465  13.913  1.00  0.00    -0.284 N 
HETATM   17  C   UNL     1     -42.740 -46.173  13.601  1.00  0.00     0.025 A 
ATOM     18  HN  UNL     1     -43.029 -47.866  14.840  1.00  0.00     0.188 HD
HETATM   19  C   UNL     1     -42.758 -45.128  14.654  1.00  0.00     0.070 C 
HETATM   20  C   UNL     1     -42.595 -45.988  12.213  1.00  0.00     0.053 A 
HETATM   21  C   UNL     1     -42.613 -47.256  11.674  1.00  0.00     0.050 A 
HETATM   22  C   UNL     1     -42.548 -47.690  10.257  1.00  0.00     0.071 C 
ENDBRANCH   2  15
BRANCH   1  23
HETATM   23  C   UNL     1     -40.410 -50.122  12.748  1.00  0.00     0.174 C 
BRANCH  23  24
HETATM   24  C   UNL     1     -39.775 -49.792  11.393  1.00  0.00     0.187 C 
BRANCH  24  25
HETATM   25  O   UNL     1     -38.516 -49.151  11.599  1.00  0.00    -0.394 OA
HETATM   26  C   UNL     1     -37.438 -50.047  11.354  1.00  0.00     0.201 C 
ENDBRANCH  24  25
ENDBRANCH  23  24
ENDBRANCH   1  23
TORSDOF 4
ENDMDL
