MODEL 1
REMARK VINA RESULT:      -5.8      0.000      0.000
REMARK  4 active torsions:
REMARK  status: ('A' for Active; 'I' for Inactive)
REMARK       I    between atoms: C_2  and  N_3 
REMARK    1  A    between atoms: C_2  and  C_13 
REMARK    2  A    between atoms: N_3  and  C_4 
REMARK    3  A    between atoms: C_4  and  C_5 
REMARK    4  A    between atoms: C_5  and  C_6 
ROOT
HETATM    1  O   UNL     1     -45.266 -54.577  16.359  1.00  0.00    -0.273 OA
HETATM    2  C   UNL     1     -44.950 -54.254  15.220  1.00  0.00     0.222 C 
HETATM    3  N   UNL     1     -43.699 -54.499  14.690  1.00  0.00    -0.360 N 
HETATM    4  H   UNL     1     -43.546 -54.316  13.708  1.00  0.00     0.162 HD
ENDROOT
BRANCH   3   5
HETATM    5  C   UNL     1     -42.706 -55.256  15.432  1.00  0.00     0.127 C 
BRANCH   5   6
HETATM    6  C   UNL     1     -41.316 -54.644  15.284  1.00  0.00     0.059 C 
BRANCH   6   7
HETATM    7  C   UNL     1     -41.204 -53.701  14.120  1.00  0.00    -0.041 A 
HETATM    8  C   UNL     1     -41.331 -52.321  14.286  1.00  0.00     0.010 A 
HETATM    9  C   UNL     1     -41.251 -51.483  13.178  1.00  0.00     0.018 A 
HETATM   10  C   UNL     1     -41.035 -52.056  11.936  1.00  0.00     0.087 A 
HETATM   11  N   UNL     1     -40.889 -53.383  11.738  1.00  0.00    -0.375 N 
HETATM   12  C   UNL     1     -40.973 -54.173  12.831  1.00  0.00     0.094 A 
ATOM     13  HN  UNL     1     -40.725 -53.771  10.809  1.00  0.00     0.164 HD
ENDBRANCH   6   7
ENDBRANCH   5   6
ENDBRANCH   3   5
BRANCH   2  14
HETATM   14  C   UNL     1     -45.873 -53.503  14.266  1.00  0.00     0.082 C 
HETATM   15  C   UNL     1     -45.197 -53.009  12.969  1.00  0.00     0.019 C 
HETATM   16  C   UNL     1     -45.518 -51.502  12.963  1.00  0.00    -0.013 C 
HETATM   17  C   UNL     1     -44.679 -50.810  14.051  1.00  0.00     0.005 C 
HETATM   18  C   UNL     1     -46.916 -51.475  13.576  1.00  0.00     0.010 C 
HETATM   19  C   UNL     1     -45.357 -51.265  15.350  1.00  0.00     0.006 C 
HETATM   20  C   UNL     1     -46.473 -52.201  14.849  1.00  0.00    -0.001 C 
ENDBRANCH   2  14
TORSDOF 4
ENDMDL
MODEL 2
REMARK VINA RESULT:      -5.6      2.316      3.133
REMARK  4 active torsions:
REMARK  status: ('A' for Active; 'I' for Inactive)
REMARK       I    between atoms: C_2  and  N_3 
REMARK    1  A    between atoms: C_2  and  C_13 
REMARK    2  A    between atoms: N_3  and  C_4 
REMARK    3  A    between atoms: C_4  and  C_5 
REMARK    4  A    between atoms: C_5  and  C_6 
ROOT
HETATM    1  O   UNL     1     -43.061 -54.264  13.636  1.00  0.00    -0.273 OA
HETATM    2  C   UNL     1     -43.781 -53.364  13.219  1.00  0.00     0.222 C 
HETATM    3  N   UNL     1     -43.296 -52.289  12.501  1.00  0.00    -0.360 N 
HETATM    4  H   UNL     1     -43.958 -51.648  12.084  1.00  0.00     0.162 HD
ENDROOT
BRANCH   3   5
HETATM    5  C   UNL     1     -41.900 -52.217  12.109  1.00  0.00     0.127 C 
BRANCH   5   6
HETATM    6  C   UNL     1     -41.089 -51.376  13.092  1.00  0.00     0.059 C 
BRANCH   6   7
HETATM    7  C   UNL     1     -39.761 -50.940  12.541  1.00  0.00    -0.041 A 
HETATM    8  C   UNL     1     -38.560 -51.354  13.120  1.00  0.00     0.010 A 
HETATM    9  C   UNL     1     -37.351 -50.904  12.598  1.00  0.00     0.018 A 
HETATM   10  C   UNL     1     -37.384 -50.058  11.503  1.00  0.00     0.087 A 
HETATM   11  N   UNL     1     -38.523 -49.649  10.905  1.00  0.00    -0.375 N 
HETATM   12  C   UNL     1     -39.682 -50.101  11.433  1.00  0.00     0.094 A 
ATOM     13  HN  UNL     1     -38.510 -49.030  10.095  1.00  0.00     0.164 HD
ENDBRANCH   6   7
ENDBRANCH   5   6
ENDBRANCH   3   5
BRANCH   2  14
HETATM   14  C   UNL     1     -45.281 -53.291  13.476  1.00  0.00     0.082 C 
HETATM   15  C   UNL     1     -45.946 -51.964  13.050  1.00  0.00     0.019 C 
HETATM   16  C   UNL     1     -46.657 -51.504  14.337  1.00  0.00    -0.013 C 
HETATM   17  C   UNL     1     -45.599 -51.028  15.348  1.00  0.00     0.005 C 
HETATM   18  C   UNL     1     -47.101 -52.833  14.945  1.00  0.00     0.010 C 
HETATM   19  C   UNL     1     -44.948 -52.340  15.807  1.00  0.00     0.006 C 
HETATM   20  C   UNL     1     -45.681 -53.403  14.968  1.00  0.00    -0.001 C 
ENDBRANCH   2  14
TORSDOF 4
ENDMDL
MODEL 3
REMARK VINA RESULT:      -5.5      2.479      3.764
REMARK  4 active torsions:
REMARK  status: ('A' for Active; 'I' for Inactive)
REMARK       I    between atoms: C_2  and  N_3 
REMARK    1  A    between atoms: C_2  and  C_13 
REMARK    2  A    between atoms: N_3  and  C_4 
REMARK    3  A    between atoms: C_4  and  C_5 
REMARK    4  A    between atoms: C_5  and  C_6 
ROOT
HETATM    1  O   UNL     1     -44.684 -50.816  13.966  1.00  0.00    -0.273 OA
HETATM    2  C   UNL     1     -44.324 -51.758  13.269  1.00  0.00     0.222 C 
HETATM    3  N   UNL     1     -43.176 -51.728  12.504  1.00  0.00    -0.360 N 
HETATM    4  H   UNL     1     -42.875 -52.580  12.049  1.00  0.00     0.162 HD
ENDROOT
BRANCH   3   5
HETATM    5  C   UNL     1     -42.264 -50.599  12.563  1.00  0.00     0.127 C 
BRANCH   5   6
HETATM    6  C   UNL     1     -41.056 -50.905  13.445  1.00  0.00     0.059 C 
BRANCH   6   7
HETATM    7  C   UNL     1     -39.744 -50.701  12.744  1.00  0.00    -0.041 A 
HETATM    8  C   UNL     1     -38.546 -51.161  13.292  1.00  0.00     0.010 A 
HETATM    9  C   UNL     1     -37.346 -50.927  12.624  1.00  0.00     0.018 A 
HETATM   10  C   UNL     1     -37.389 -50.246  11.420  1.00  0.00     0.087 A 
HETATM   11  N   UNL     1     -38.529 -49.802  10.849  1.00  0.00    -0.375 N 
HETATM   12  C   UNL     1     -39.677 -50.042  11.520  1.00  0.00     0.094 A 
ATOM     13  HN  UNL     1     -38.523 -49.309   9.956  1.00  0.00     0.164 HD
ENDBRANCH   6   7
ENDBRANCH   5   6
ENDBRANCH   3   5
BRANCH   2  14
HETATM   14  C   UNL     1     -45.116 -53.052  13.120  1.00  0.00     0.082 C 
HETATM   15  C   UNL     1     -46.438 -53.095  13.916  1.00  0.00     0.019 C 
HETATM   16  C   UNL     1     -46.299 -54.383  14.750  1.00  0.00    -0.013 C 
HETATM   17  C   UNL     1     -45.260 -54.148  15.859  1.00  0.00     0.005 C 
HETATM   18  C   UNL     1     -45.539 -55.298  13.792  1.00  0.00     0.010 C 
HETATM   19  C   UNL     1     -43.933 -54.134  15.090  1.00  0.00     0.006 C 
HETATM   20  C   UNL     1     -44.378 -54.316  13.627  1.00  0.00    -0.001 C 
ENDBRANCH   2  14
TORSDOF 4
ENDMDL
MODEL 4
REMARK VINA RESULT:      -5.5      1.328      1.879
REMARK  4 active torsions:
REMARK  status: ('A' for Active; 'I' for Inactive)
REMARK       I    between atoms: C_2  and  N_3 
REMARK    1  A    between atoms: C_2  and  C_13 
REMARK    2  A    between atoms: N_3  and  C_4 
REMARK    3  A    between atoms: C_4  and  C_5 
REMARK    4  A    between atoms: C_5  and  C_6 
ROOT
HETATM    1  O   UNL     1     -44.292 -55.330  14.584  1.00  0.00    -0.273 OA
HETATM    2  C   UNL     1     -44.072 -54.202  15.011  1.00  0.00     0.222 C 
HETATM    3  N   UNL     1     -42.796 -53.700  15.178  1.00  0.00    -0.360 N 
HETATM    4  H   UNL     1     -42.689 -52.724  15.418  1.00  0.00     0.162 HD
ENDROOT
BRANCH   3   5
HETATM    5  C   UNL     1     -41.631 -54.456  14.755  1.00  0.00     0.127 C 
BRANCH   5   6
HETATM    6  C   UNL     1     -41.390 -54.314  13.254  1.00  0.00     0.059 C 
BRANCH   6   7
HETATM    7  C   UNL     1     -40.794 -52.988  12.874  1.00  0.00    -0.041 A 
HETATM    8  C   UNL     1     -39.752 -52.421  13.607  1.00  0.00     0.010 A 
HETATM    9  C   UNL     1     -39.246 -51.177  13.240  1.00  0.00     0.018 A 
HETATM   10  C   UNL     1     -39.798 -50.544  12.138  1.00  0.00     0.087 A 
HETATM   11  N   UNL     1     -40.794 -51.069  11.393  1.00  0.00    -0.375 N 
HETATM   12  C   UNL     1     -41.265 -52.277  11.774  1.00  0.00     0.094 A 
ATOM     13  HN  UNL     1     -41.172 -50.578  10.584  1.00  0.00     0.164 HD
ENDBRANCH   6   7
ENDBRANCH   5   6
ENDBRANCH   3   5
BRANCH   2  14
HETATM   14  C   UNL     1     -45.164 -53.236  15.454  1.00  0.00     0.082 C 
HETATM   15  C   UNL     1     -46.568 -53.546  14.890  1.00  0.00     0.019 C 
HETATM   16  C   UNL     1     -46.975 -52.217  14.224  1.00  0.00    -0.013 C 
HETATM   17  C   UNL     1     -46.144 -52.028  12.943  1.00  0.00     0.005 C 
HETATM   18  C   UNL     1     -46.348 -51.189  15.163  1.00  0.00     0.010 C 
HETATM   19  C   UNL     1     -44.750 -51.687  13.484  1.00  0.00     0.006 C 
HETATM   20  C   UNL     1     -44.941 -51.769  15.010  1.00  0.00    -0.001 C 
ENDBRANCH   2  14
TORSDOF 4
ENDMDL
MODEL 5
REMARK VINA RESULT:      -5.3      4.025      5.294
REMARK  4 active torsions:
REMARK  status: ('A' for Active; 'I' for Inactive)
REMARK       I    between atoms: C_2  and  N_3 
REMARK    1  A    between atoms: C_2  and  C_13 
REMARK    2  A    between atoms: N_3  and  C_4 
REMARK    3  A    between atoms: C_4  and  C_5 
REMARK    4  A    between atoms: C_5  and  C_6 
ROOT
HETATM    1  O   UNL     1     -42.141 -50.809  14.599  1.00  0.00    -0.273 OA
HETATM    2  C   UNL     1     -42.800 -51.303  13.691  1.00  0.00     0.222 C 
HETATM    3  N   UNL     1     -42.899 -50.728  12.440  1.00  0.00    -0.360 N 
HETATM    4  H   UNL     1     -43.358 -51.248  11.704  1.00  0.00     0.162 HD
ENDROOT
BRANCH   3   5
HETATM    5  C   UNL     1     -42.135 -49.542  12.096  1.00  0.00     0.127 C 
BRANCH   5   6
HETATM    6  C   UNL     1     -42.985 -48.279  12.212  1.00  0.00     0.059 C 
BRANCH   6   7
HETATM    7  C   UNL     1     -43.201 -47.588  10.896  1.00  0.00    -0.041 A 
HETATM    8  C   UNL     1     -44.437 -47.626  10.248  1.00  0.00     0.010 A 
HETATM    9  C   UNL     1     -44.589 -46.997   9.015  1.00  0.00     0.018 A 
HETATM   10  C   UNL     1     -43.496 -46.340   8.475  1.00  0.00     0.087 A 
HETATM   11  N   UNL     1     -42.292 -46.266   9.079  1.00  0.00    -0.375 N 
HETATM   12  C   UNL     1     -42.172 -46.887  10.274  1.00  0.00     0.094 A 
ATOM     13  HN  UNL     1     -41.510 -45.768   8.655  1.00  0.00     0.164 HD
ENDBRANCH   6   7
ENDBRANCH   5   6
ENDBRANCH   3   5
BRANCH   2  14
HETATM   14  C   UNL     1     -43.625 -52.576  13.838  1.00  0.00     0.082 C 
HETATM   15  C   UNL     1     -44.326 -53.044  12.544  1.00  0.00     0.019 C 
HETATM   16  C   UNL     1     -45.801 -53.164  12.973  1.00  0.00    -0.013 C 
HETATM   17  C   UNL     1     -46.380 -51.752  13.163  1.00  0.00     0.005 C 
HETATM   18  C   UNL     1     -45.672 -53.650  14.415  1.00  0.00     0.010 C 
HETATM   19  C   UNL     1     -45.718 -51.281  14.464  1.00  0.00     0.006 C 
HETATM   20  C   UNL     1     -44.803 -52.463  14.836  1.00  0.00    -0.001 C 
ENDBRANCH   2  14
TORSDOF 4
ENDMDL
MODEL 6
REMARK VINA RESULT:      -5.2      1.754      4.546
REMARK  4 active torsions:
REMARK  status: ('A' for Active; 'I' for Inactive)
REMARK       I    between atoms: C_2  and  N_3 
REMARK    1  A    between atoms: C_2  and  C_13 
REMARK    2  A    between atoms: N_3  and  C_4 
REMARK    3  A    between atoms: C_4  and  C_5 
REMARK    4  A    between atoms: C_5  and  C_6 
ROOT
HETATM    1  O   UNL     1     -43.451 -55.795  15.250  1.00  0.00    -0.273 OA
HETATM    2  C   UNL     1     -42.862 -54.753  15.513  1.00  0.00     0.222 C 
HETATM    3  N   UNL     1     -43.294 -53.873  16.485  1.00  0.00    -0.360 N 
HETATM    4  H   UNL     1     -42.696 -53.096  16.734  1.00  0.00     0.162 HD
ENDROOT
BRANCH   3   5
HETATM    5  C   UNL     1     -44.431 -54.189  17.331  1.00  0.00     0.127 C 
BRANCH   5   6
HETATM    6  C   UNL     1     -45.539 -53.149  17.184  1.00  0.00     0.059 C 
BRANCH   6   7
HETATM    7  C   UNL     1     -45.857 -52.820  15.754  1.00  0.00    -0.041 A 
HETATM    8  C   UNL     1     -45.669 -51.536  15.242  1.00  0.00     0.010 A 
HETATM    9  C   UNL     1     -46.003 -51.264  13.918  1.00  0.00     0.018 A 
HETATM   10  C   UNL     1     -46.508 -52.295  13.144  1.00  0.00     0.087 A 
HETATM   11  N   UNL     1     -46.687 -53.554  13.598  1.00  0.00    -0.375 N 
HETATM   12  C   UNL     1     -46.355 -53.789  14.887  1.00  0.00     0.094 A 
ATOM     13  HN  UNL     1     -47.056 -54.291  12.997  1.00  0.00     0.164 HD
ENDBRANCH   6   7
ENDBRANCH   5   6
ENDBRANCH   3   5
BRANCH   2  14
HETATM   14  C   UNL     1     -41.616 -54.275  14.776  1.00  0.00     0.082 C 
HETATM   15  C   UNL     1     -41.165 -52.842  15.132  1.00  0.00     0.019 C 
HETATM   16  C   UNL     1     -41.094 -52.149  13.757  1.00  0.00    -0.013 C 
HETATM   17  C   UNL     1     -42.525 -51.921  13.241  1.00  0.00     0.005 C 
HETATM   18  C   UNL     1     -40.610 -53.283  12.857  1.00  0.00     0.010 C 
HETATM   19  C   UNL     1     -42.980 -53.334  12.851  1.00  0.00     0.006 C 
HETATM   20  C   UNL     1     -41.770 -54.205  13.237  1.00  0.00    -0.001 C 
ENDBRANCH   2  14
TORSDOF 4
ENDMDL
MODEL 7
REMARK VINA RESULT:      -5.2      2.074      3.488
REMARK  4 active torsions:
REMARK  status: ('A' for Active; 'I' for Inactive)
REMARK       I    between atoms: C_2  and  N_3 
REMARK    1  A    between atoms: C_2  and  C_13 
REMARK    2  A    between atoms: N_3  and  C_4 
REMARK    3  A    between atoms: C_4  and  C_5 
REMARK    4  A    between atoms: C_5  and  C_6 
ROOT
HETATM    1  O   UNL     1     -43.332 -51.373  12.871  1.00  0.00    -0.273 OA
HETATM    2  C   UNL     1     -43.188 -52.573  12.662  1.00  0.00     0.222 C 
HETATM    3  N   UNL     1     -41.976 -53.132  12.309  1.00  0.00    -0.360 N 
HETATM    4  H   UNL     1     -41.901 -54.139  12.271  1.00  0.00     0.162 HD
ENDROOT
BRANCH   3   5
HETATM    5  C   UNL     1     -40.766 -52.331  12.263  1.00  0.00     0.127 C 
BRANCH   5   6
HETATM    6  C   UNL     1     -40.262 -52.002  13.666  1.00  0.00     0.059 C 
BRANCH   6   7
HETATM    7  C   UNL     1     -39.941 -53.223  14.481  1.00  0.00    -0.041 A 
HETATM    8  C   UNL     1     -40.593 -53.487  15.686  1.00  0.00     0.010 A 
HETATM    9  C   UNL     1     -40.247 -54.614  16.426  1.00  0.00     0.018 A 
HETATM   10  C   UNL     1     -39.260 -55.448  15.928  1.00  0.00     0.087 A 
HETATM   11  N   UNL     1     -38.619 -55.236  14.759  1.00  0.00    -0.375 N 
HETATM   12  C   UNL     1     -38.976 -54.134  14.062  1.00  0.00     0.094 A 
ATOM     13  HN  UNL     1     -37.901 -55.875  14.418  1.00  0.00     0.164 HD
ENDBRANCH   6   7
ENDBRANCH   5   6
ENDBRANCH   3   5
BRANCH   2  14
HETATM   14  C   UNL     1     -44.327 -53.585  12.718  1.00  0.00     0.082 C 
HETATM   15  C   UNL     1     -45.726 -52.971  12.940  1.00  0.00     0.019 C 
HETATM   16  C   UNL     1     -46.247 -53.732  14.174  1.00  0.00    -0.013 C 
HETATM   17  C   UNL     1     -45.480 -53.251  15.417  1.00  0.00     0.005 C 
HETATM   18  C   UNL     1     -45.658 -55.124  13.957  1.00  0.00     0.010 C 
HETATM   19  C   UNL     1     -44.092 -53.879  15.230  1.00  0.00     0.006 C 
HETATM   20  C   UNL     1     -44.220 -54.605  13.878  1.00  0.00    -0.001 C 
ENDBRANCH   2  14
TORSDOF 4
ENDMDL
MODEL 8
REMARK VINA RESULT:      -5.2      2.483      3.426
REMARK  4 active torsions:
REMARK  status: ('A' for Active; 'I' for Inactive)
REMARK       I    between atoms: C_2  and  N_3 
REMARK    1  A    between atoms: C_2  and  C_13 
REMARK    2  A    between atoms: N_3  and  C_4 
REMARK    3  A    between atoms: C_4  and  C_5 
REMARK    4  A    between atoms: C_5  and  C_6 
ROOT
HETATM    1  O   UNL     1     -43.713 -50.167  13.327  1.00  0.00    -0.273 OA
HETATM    2  C   UNL     1     -43.843 -51.084  14.131  1.00  0.00     0.222 C 
HETATM    3  N   UNL     1     -43.001 -52.177  14.162  1.00  0.00    -0.360 N 
HETATM    4  H   UNL     1     -43.091 -52.835  14.925  1.00  0.00     0.162 HD
ENDROOT
BRANCH   3   5
HETATM    5  C   UNL     1     -41.837 -52.253  13.298  1.00  0.00     0.127 C 
BRANCH   5   6
HETATM    6  C   UNL     1     -40.580 -51.766  14.014  1.00  0.00     0.059 C 
BRANCH   6   7
HETATM    7  C   UNL     1     -39.556 -51.183  13.081  1.00  0.00    -0.041 A 
HETATM    8  C   UNL     1     -38.189 -51.319  13.324  1.00  0.00     0.010 A 
HETATM    9  C   UNL     1     -37.271 -50.740  12.452  1.00  0.00     0.018 A 
HETATM   10  C   UNL     1     -37.757 -50.049  11.354  1.00  0.00     0.087 A 
HETATM   11  N   UNL     1     -39.070 -49.912  11.075  1.00  0.00    -0.375 N 
HETATM   12  C   UNL     1     -39.938 -50.484  11.940  1.00  0.00     0.094 A 
ATOM     13  HN  UNL     1     -39.392 -49.402  10.253  1.00  0.00     0.164 HD
ENDBRANCH   6   7
ENDBRANCH   5   6
ENDBRANCH   3   5
BRANCH   2  14
HETATM   14  C   UNL     1     -44.969 -51.158  15.156  1.00  0.00     0.082 C 
HETATM   15  C   UNL     1     -44.928 -52.402  16.070  1.00  0.00     0.019 C 
HETATM   16  C   UNL     1     -46.330 -53.014  15.885  1.00  0.00    -0.013 C 
HETATM   17  C   UNL     1     -46.417 -53.643  14.484  1.00  0.00     0.005 C 
HETATM   18  C   UNL     1     -47.200 -51.769  15.727  1.00  0.00     0.010 C 
HETATM   19  C   UNL     1     -46.490 -52.419  13.561  1.00  0.00     0.006 C 
HETATM   20  C   UNL     1     -46.388 -51.238  14.544  1.00  0.00    -0.001 C 
ENDBRANCH   2  14
TORSDOF 4
ENDMDL
MODEL 9
REMARK VINA RESULT:      -5.2      2.128      5.602
REMARK  4 active torsions:
REMARK  status: ('A' for Active; 'I' for Inactive)
REMARK       I    between atoms: C_2  and  N_3 
REMARK    1  A    between atoms: C_2  and  C_13 
REMARK    2  A    between atoms: N_3  and  C_4 
REMARK    3  A    between atoms: C_4  and  C_5 
REMARK    4  A    between atoms: C_5  and  C_6 
ROOT
HETATM    1  O   UNL     1     -45.275 -54.505  16.008  1.00  0.00    -0.273 OA
HETATM    2  C   UNL     1     -44.846 -54.307  14.877  1.00  0.00     0.222 C 
HETATM    3  N   UNL     1     -45.579 -53.663  13.900  1.00  0.00    -0.360 N 
HETATM    4  H   UNL     1     -45.121 -53.427  13.030  1.00  0.00     0.162 HD
ENDROOT
BRANCH   3   5
HETATM    5  C   UNL     1     -46.878 -53.087  14.195  1.00  0.00     0.127 C 
BRANCH   5   6
HETATM    6  C   UNL     1     -46.780 -51.582  14.429  1.00  0.00     0.059 C 
BRANCH   6   7
HETATM    7  C   UNL     1     -46.779 -51.208  15.883  1.00  0.00    -0.041 A 
HETATM    8  C   UNL     1     -47.953 -51.210  16.637  1.00  0.00     0.010 A 
HETATM    9  C   UNL     1     -47.916 -50.829  17.975  1.00  0.00     0.018 A 
HETATM   10  C   UNL     1     -46.695 -50.465  18.519  1.00  0.00     0.087 A 
HETATM   11  N   UNL     1     -45.536 -50.467  17.828  1.00  0.00    -0.375 N 
HETATM   12  C   UNL     1     -45.603 -50.841  16.531  1.00  0.00     0.094 A 
ATOM     13  HN  UNL     1     -44.653 -50.199  18.264  1.00  0.00     0.164 HD
ENDBRANCH   6   7
ENDBRANCH   5   6
ENDBRANCH   3   5
BRANCH   2  14
HETATM   14  C   UNL     1     -43.482 -54.785  14.393  1.00  0.00     0.082 C 
HETATM   15  C   UNL     1     -42.558 -55.332  15.503  1.00  0.00     0.019 C 
HETATM   16  C   UNL     1     -41.276 -54.496  15.331  1.00  0.00    -0.013 C 
HETATM   17  C   UNL     1     -41.549 -53.061  15.814  1.00  0.00     0.005 C 
HETATM   18  C   UNL     1     -41.219 -54.315  13.816  1.00  0.00     0.010 C 
HETATM   19  C   UNL     1     -42.442 -52.489  14.704  1.00  0.00     0.006 C 
HETATM   20  C   UNL     1     -42.610 -53.682  13.745  1.00  0.00    -0.001 C 
ENDBRANCH   2  14
TORSDOF 4
ENDMDL
