MODEL 1
REMARK VINA RESULT:      -5.9      0.000      0.000
REMARK  5 active torsions:
REMARK  status: ('A' for Active; 'I' for Inactive)
REMARK    1  A    between atoms: C_2  and  C_3 
REMARK    2  A    between atoms: C_2  and  N_14 
REMARK    3  A    between atoms: C_3  and  N_4 
REMARK       I    between atoms: N_4  and  C_5 
REMARK    4  A    between atoms: C_5  and  C_7 
REMARK    5  A    between atoms: C_7  and  N_8 
ROOT
HETATM    1  N   UNL     1     -43.066 -48.891  11.573  1.00  0.00    -0.358 N 
HETATM    2  C   UNL     1     -42.096 -48.170  10.912  1.00  0.00     0.237 C 
HETATM    3  O   UNL     1     -40.901 -48.450  10.979  1.00  0.00    -0.272 OA
HETATM    4  H   UNL     1     -44.041 -48.619  11.517  1.00  0.00     0.162 HD
ENDROOT
BRANCH   1   5
HETATM    5  C   UNL     1     -42.727 -50.018  12.442  1.00  0.00     0.158 C 
BRANCH   5   6
HETATM    6  C   UNL     1     -43.680 -50.174  13.669  1.00  0.00     0.236 C 
HETATM    7  C   UNL     1     -43.067 -49.371  14.837  1.00  0.00     0.044 C 
BRANCH   6   8
HETATM    8  N   UNL     1     -43.911 -51.596  14.064  1.00  0.00     0.094 N 
HETATM    9  C   UNL     1     -44.403 -52.454  12.967  1.00  0.00     0.273 C 
HETATM   10  C   UNL     1     -45.833 -52.146  12.513  1.00  0.00     0.031 C 
HETATM   11  C   UNL     1     -46.828 -52.062  13.674  1.00  0.00     0.007 C 
HETATM   12  C   UNL     1     -46.272 -51.280  14.871  1.00  0.00     0.010 C 
HETATM   13  C   UNL     1     -47.191 -51.406  16.084  1.00  0.00     0.011 C 
HETATM   14  C   UNL     1     -44.848 -51.761  15.199  1.00  0.00     0.277 C 
ENDBRANCH   6   8
ENDBRANCH   5   6
ENDBRANCH   1   5
BRANCH   2  15
HETATM   15  C   UNL     1     -42.594 -47.009  10.083  1.00  0.00     0.249 C 
BRANCH  15  16
HETATM   16  N   UNL     1     -43.597 -47.435   9.143  1.00  0.00    -0.264 N 
HETATM   17  C   UNL     1     -43.450 -47.833   7.851  1.00  0.00     0.213 A 
HETATM   18  N   UNL     1     -44.625 -48.208   7.396  1.00  0.00    -0.281 N 
HETATM   19  N   UNL     1     -45.503 -48.037   8.441  1.00  0.00    -0.008 NA
ATOM     20  HN  UNL     1     -44.841 -48.553   6.462  1.00  0.00     0.184 HD
HETATM   21  N   UNL     1     -44.880 -47.573   9.516  1.00  0.00    -0.005 NA
ENDBRANCH  15  16
ENDBRANCH   2  15
TORSDOF 5
ENDMDL
MODEL 2
REMARK VINA RESULT:      -5.7      2.312      3.394
REMARK  5 active torsions:
REMARK  status: ('A' for Active; 'I' for Inactive)
REMARK    1  A    between atoms: C_2  and  C_3 
REMARK    2  A    between atoms: C_2  and  N_14 
REMARK    3  A    between atoms: C_3  and  N_4 
REMARK       I    between atoms: N_4  and  C_5 
REMARK    4  A    between atoms: C_5  and  C_7 
REMARK    5  A    between atoms: C_7  and  N_8 
ROOT
HETATM    1  N   UNL     1     -42.654 -49.038  11.348  1.00  0.00    -0.358 N 
HETATM    2  C   UNL     1     -42.850 -47.674  11.330  1.00  0.00     0.237 C 
HETATM    3  O   UNL     1     -43.113 -47.029  12.343  1.00  0.00    -0.272 OA
HETATM    4  H   UNL     1     -42.464 -49.544  10.491  1.00  0.00     0.162 HD
ENDROOT
BRANCH   1   5
HETATM    5  C   UNL     1     -42.793 -49.819  12.578  1.00  0.00     0.158 C 
BRANCH   5   6
HETATM    6  C   UNL     1     -41.645 -50.853  12.797  1.00  0.00     0.236 C 
HETATM    7  C   UNL     1     -40.332 -50.200  12.312  1.00  0.00     0.044 C 
BRANCH   6   8
HETATM    8  N   UNL     1     -41.880 -52.156  12.104  1.00  0.00     0.094 N 
HETATM    9  C   UNL     1     -43.144 -52.820  12.481  1.00  0.00     0.273 C 
HETATM   10  C   UNL     1     -43.173 -53.358  13.916  1.00  0.00     0.031 C 
HETATM   11  C   UNL     1     -41.946 -54.204  14.267  1.00  0.00     0.007 C 
HETATM   12  C   UNL     1     -40.637 -53.581  13.762  1.00  0.00     0.010 C 
HETATM   13  C   UNL     1     -39.469 -54.550  13.928  1.00  0.00     0.011 C 
HETATM   14  C   UNL     1     -40.793 -53.144  12.295  1.00  0.00     0.277 C 
ENDBRANCH   6   8
ENDBRANCH   5   6
ENDBRANCH   1   5
BRANCH   2  15
HETATM   15  C   UNL     1     -42.713 -47.011   9.980  1.00  0.00     0.249 C 
BRANCH  15  16
HETATM   16  N   UNL     1     -43.730 -47.470   9.070  1.00  0.00    -0.264 N 
HETATM   17  C   UNL     1     -43.606 -47.885   7.782  1.00  0.00     0.213 A 
HETATM   18  N   UNL     1     -44.784 -48.288   7.360  1.00  0.00    -0.281 N 
HETATM   19  N   UNL     1     -45.641 -48.116   8.422  1.00  0.00    -0.008 NA
ATOM     20  HN  UNL     1     -45.015 -48.653   6.437  1.00  0.00     0.184 HD
HETATM   21  N   UNL     1     -45.001 -47.624   9.475  1.00  0.00    -0.005 NA
ENDBRANCH  15  16
ENDBRANCH   2  15
TORSDOF 5
ENDMDL
MODEL 3
REMARK VINA RESULT:      -5.6      1.494      2.117
REMARK  5 active torsions:
REMARK  status: ('A' for Active; 'I' for Inactive)
REMARK    1  A    between atoms: C_2  and  C_3 
REMARK    2  A    between atoms: C_2  and  N_14 
REMARK    3  A    between atoms: C_3  and  N_4 
REMARK       I    between atoms: N_4  and  C_5 
REMARK    4  A    between atoms: C_5  and  C_7 
REMARK    5  A    between atoms: C_7  and  N_8 
ROOT
HETATM    1  N   UNL     1     -43.175 -49.293  12.020  1.00  0.00    -0.358 N 
HETATM    2  C   UNL     1     -42.916 -47.953  11.831  1.00  0.00     0.237 C 
HETATM    3  O   UNL     1     -43.011 -47.127  12.736  1.00  0.00    -0.272 OA
HETATM    4  H   UNL     1     -43.111 -49.946  11.247  1.00  0.00     0.162 HD
ENDROOT
BRANCH   1   5
HETATM    5  C   UNL     1     -43.629 -49.815  13.309  1.00  0.00     0.158 C 
BRANCH   5   6
HETATM    6  C   UNL     1     -43.829 -51.362  13.325  1.00  0.00     0.236 C 
HETATM    7  C   UNL     1     -42.574 -52.000  12.689  1.00  0.00     0.044 C 
BRANCH   6   8
HETATM    8  N   UNL     1     -45.069 -51.808  12.618  1.00  0.00     0.094 N 
HETATM    9  C   UNL     1     -46.314 -51.237  13.170  1.00  0.00     0.273 C 
HETATM   10  C   UNL     1     -46.688 -51.759  14.562  1.00  0.00     0.031 C 
HETATM   11  C   UNL     1     -46.656 -53.286  14.661  1.00  0.00     0.007 C 
HETATM   12  C   UNL     1     -45.426 -53.895  13.974  1.00  0.00     0.010 C 
HETATM   13  C   UNL     1     -45.539 -55.416  13.896  1.00  0.00     0.011 C 
HETATM   14  C   UNL     1     -45.243 -53.278  12.578  1.00  0.00     0.277 C 
ENDBRANCH   6   8
ENDBRANCH   5   6
ENDBRANCH   1   5
BRANCH   2  15
HETATM   15  C   UNL     1     -42.493 -47.558  10.436  1.00  0.00     0.249 C 
BRANCH  15  16
HETATM   16  N   UNL     1     -43.599 -47.639   9.516  1.00  0.00    -0.264 N 
HETATM   17  C   UNL     1     -43.584 -47.824   8.170  1.00  0.00     0.213 A 
HETATM   18  N   UNL     1     -44.827 -47.911   7.750  1.00  0.00    -0.281 N 
HETATM   19  N   UNL     1     -45.612 -47.778   8.871  1.00  0.00    -0.008 NA
ATOM     20  HN  UNL     1     -45.144 -48.048   6.790  1.00  0.00     0.184 HD
HETATM   21  N   UNL     1     -44.867 -47.620   9.958  1.00  0.00    -0.005 NA
ENDBRANCH  15  16
ENDBRANCH   2  15
TORSDOF 5
ENDMDL
MODEL 4
REMARK VINA RESULT:      -5.6      4.490      5.209
REMARK  5 active torsions:
REMARK  status: ('A' for Active; 'I' for Inactive)
REMARK    1  A    between atoms: C_2  and  C_3 
REMARK    2  A    between atoms: C_2  and  N_14 
REMARK    3  A    between atoms: C_3  and  N_4 
REMARK       I    between atoms: N_4  and  C_5 
REMARK    4  A    between atoms: C_5  and  C_7 
REMARK    5  A    between atoms: C_7  and  N_8 
ROOT
HETATM    1  N   UNL     1     -41.705 -52.459  13.486  1.00  0.00    -0.358 N 
HETATM    2  C   UNL     1     -40.377 -52.824  13.519  1.00  0.00     0.237 C 
HETATM    3  O   UNL     1     -39.996 -53.960  13.244  1.00  0.00    -0.272 OA
HETATM    4  H   UNL     1     -41.989 -51.520  13.742  1.00  0.00     0.162 HD
ENDROOT
BRANCH   1   5
HETATM    5  C   UNL     1     -42.760 -53.420  13.163  1.00  0.00     0.158 C 
BRANCH   5   6
HETATM    6  C   UNL     1     -43.781 -53.645  14.321  1.00  0.00     0.236 C 
HETATM    7  C   UNL     1     -43.276 -54.840  15.160  1.00  0.00     0.044 C 
BRANCH   6   8
HETATM    8  N   UNL     1     -45.177 -53.881  13.845  1.00  0.00     0.094 N 
HETATM    9  C   UNL     1     -45.560 -53.066  12.674  1.00  0.00     0.273 C 
HETATM   10  C   UNL     1     -45.707 -51.569  12.965  1.00  0.00     0.031 C 
HETATM   11  C   UNL     1     -46.582 -51.276  14.187  1.00  0.00     0.007 C 
HETATM   12  C   UNL     1     -46.277 -52.209  15.367  1.00  0.00     0.010 C 
HETATM   13  C   UNL     1     -47.310 -52.042  16.479  1.00  0.00     0.011 C 
HETATM   14  C   UNL     1     -46.212 -53.667  14.882  1.00  0.00     0.277 C 
ENDBRANCH   6   8
ENDBRANCH   5   6
ENDBRANCH   1   5
BRANCH   2  15
HETATM   15  C   UNL     1     -39.407 -51.734  13.908  1.00  0.00     0.249 C 
BRANCH  15  16
HETATM   16  N   UNL     1     -38.761 -51.176  12.748  1.00  0.00    -0.264 N 
HETATM   17  C   UNL     1     -39.222 -50.243  11.874  1.00  0.00     0.213 A 
HETATM   18  N   UNL     1     -38.267 -49.975  11.011  1.00  0.00    -0.281 N 
HETATM   19  N   UNL     1     -37.200 -50.763  11.376  1.00  0.00    -0.008 NA
ATOM     20  HN  UNL     1     -38.308 -49.319  10.231  1.00  0.00     0.184 HD
HETATM   21  N   UNL     1     -37.492 -51.495  12.443  1.00  0.00    -0.005 NA
ENDBRANCH  15  16
ENDBRANCH   2  15
TORSDOF 5
ENDMDL
MODEL 5
REMARK VINA RESULT:      -5.5      2.217      2.857
REMARK  5 active torsions:
REMARK  status: ('A' for Active; 'I' for Inactive)
REMARK    1  A    between atoms: C_2  and  C_3 
REMARK    2  A    between atoms: C_2  and  N_14 
REMARK    3  A    between atoms: C_3  and  N_4 
REMARK       I    between atoms: N_4  and  C_5 
REMARK    4  A    between atoms: C_5  and  C_7 
REMARK    5  A    between atoms: C_7  and  N_8 
ROOT
HETATM    1  N   UNL     1     -42.042 -51.492  11.852  1.00  0.00    -0.358 N 
HETATM    2  C   UNL     1     -40.715 -51.119  11.868  1.00  0.00     0.237 C 
HETATM    3  O   UNL     1     -39.848 -51.785  12.429  1.00  0.00    -0.272 OA
HETATM    4  H   UNL     1     -42.737 -50.908  11.401  1.00  0.00     0.162 HD
ENDROOT
BRANCH   1   5
HETATM    5  C   UNL     1     -42.513 -52.691  12.546  1.00  0.00     0.158 C 
BRANCH   5   6
HETATM    6  C   UNL     1     -43.255 -52.390  13.885  1.00  0.00     0.236 C 
HETATM    7  C   UNL     1     -42.236 -52.567  15.032  1.00  0.00     0.044 C 
BRANCH   6   8
HETATM    8  N   UNL     1     -44.458 -53.250  14.104  1.00  0.00     0.094 N 
HETATM    9  C   UNL     1     -45.397 -53.272  12.964  1.00  0.00     0.273 C 
HETATM   10  C   UNL     1     -46.143 -51.954  12.731  1.00  0.00     0.031 C 
HETATM   11  C   UNL     1     -46.787 -51.395  14.003  1.00  0.00     0.007 C 
HETATM   12  C   UNL     1     -45.860 -51.488  15.222  1.00  0.00     0.010 C 
HETATM   13  C   UNL     1     -46.606 -51.133  16.506  1.00  0.00     0.011 C 
HETATM   14  C   UNL     1     -45.242 -52.893  15.308  1.00  0.00     0.277 C 
ENDBRANCH   6   8
ENDBRANCH   5   6
ENDBRANCH   1   5
BRANCH   2  15
HETATM   15  C   UNL     1     -40.386 -49.837  11.141  1.00  0.00     0.249 C 
BRANCH  15  16
HETATM   16  N   UNL     1     -41.428 -48.859  11.316  1.00  0.00    -0.264 N 
HETATM   17  C   UNL     1     -42.059 -48.100  10.382  1.00  0.00     0.213 A 
HETATM   18  N   UNL     1     -42.998 -47.401  10.980  1.00  0.00    -0.281 N 
HETATM   19  N   UNL     1     -42.936 -47.749  12.309  1.00  0.00    -0.008 NA
ATOM     20  HN  UNL     1     -43.640 -46.736  10.548  1.00  0.00     0.184 HD
HETATM   21  N   UNL     1     -41.983 -48.648  12.521  1.00  0.00    -0.005 NA
ENDBRANCH  15  16
ENDBRANCH   2  15
TORSDOF 5
ENDMDL
MODEL 6
REMARK VINA RESULT:      -5.4      2.076      3.004
REMARK  5 active torsions:
REMARK  status: ('A' for Active; 'I' for Inactive)
REMARK    1  A    between atoms: C_2  and  C_3 
REMARK    2  A    between atoms: C_2  and  N_14 
REMARK    3  A    between atoms: C_3  and  N_4 
REMARK       I    between atoms: N_4  and  C_5 
REMARK    4  A    between atoms: C_5  and  C_7 
REMARK    5  A    between atoms: C_7  and  N_8 
ROOT
HETATM    1  N   UNL     1     -43.069 -49.174  11.879  1.00  0.00    -0.358 N 
HETATM    2  C   UNL     1     -42.479 -48.026  11.396  1.00  0.00     0.237 C 
HETATM    3  O   UNL     1     -41.999 -47.167  12.133  1.00  0.00    -0.272 OA
HETATM    4  H   UNL     1     -43.477 -49.851  11.245  1.00  0.00     0.162 HD
ENDROOT
BRANCH   1   5
HETATM    5  C   UNL     1     -43.206 -49.422  13.314  1.00  0.00     0.158 C 
BRANCH   5   6
HETATM    6  C   UNL     1     -43.413 -50.927  13.673  1.00  0.00     0.236 C 
HETATM    7  C   UNL     1     -44.750 -51.042  14.438  1.00  0.00     0.044 C 
BRANCH   6   8
HETATM    8  N   UNL     1     -42.291 -51.507  14.473  1.00  0.00     0.094 N 
HETATM    9  C   UNL     1     -41.046 -51.708  13.704  1.00  0.00     0.273 C 
HETATM   10  C   UNL     1     -41.124 -52.817  12.650  1.00  0.00     0.031 C 
HETATM   11  C   UNL     1     -41.686 -54.131  13.199  1.00  0.00     0.007 C 
HETATM   12  C   UNL     1     -42.905 -53.917  14.106  1.00  0.00     0.010 C 
HETATM   13  C   UNL     1     -43.299 -55.213  14.810  1.00  0.00     0.011 C 
HETATM   14  C   UNL     1     -42.618 -52.798  15.120  1.00  0.00     0.277 C 
ENDBRANCH   6   8
ENDBRANCH   5   6
ENDBRANCH   1   5
BRANCH   2  15
HETATM   15  C   UNL     1     -42.445 -47.890   9.892  1.00  0.00     0.249 C 
BRANCH  15  16
HETATM   16  N   UNL     1     -43.345 -46.859   9.444  1.00  0.00    -0.264 N 
HETATM   17  C   UNL     1     -44.677 -46.935   9.186  1.00  0.00     0.213 A 
HETATM   18  N   UNL     1     -45.109 -45.733   8.876  1.00  0.00    -0.281 N 
HETATM   19  N   UNL     1     -44.011 -44.909   8.953  1.00  0.00    -0.008 NA
ATOM     20  HN  UNL     1     -46.062 -45.467   8.628  1.00  0.00     0.184 HD
HETATM   21  N   UNL     1     -42.929 -45.589   9.309  1.00  0.00    -0.005 NA
ENDBRANCH  15  16
ENDBRANCH   2  15
TORSDOF 5
ENDMDL
MODEL 7
REMARK VINA RESULT:      -5.3      3.823      4.905
REMARK  5 active torsions:
REMARK  status: ('A' for Active; 'I' for Inactive)
REMARK    1  A    between atoms: C_2  and  C_3 
REMARK    2  A    between atoms: C_2  and  N_14 
REMARK    3  A    between atoms: C_3  and  N_4 
REMARK       I    between atoms: N_4  and  C_5 
REMARK    4  A    between atoms: C_5  and  C_7 
REMARK    5  A    between atoms: C_7  and  N_8 
ROOT
HETATM    1  N   UNL     1     -41.195 -52.683  14.701  1.00  0.00    -0.358 N 
HETATM    2  C   UNL     1     -40.110 -52.929  13.888  1.00  0.00     0.237 C 
HETATM    3  O   UNL     1     -39.982 -53.975  13.254  1.00  0.00    -0.272 OA
HETATM    4  H   UNL     1     -41.259 -51.821  15.229  1.00  0.00     0.162 HD
ENDROOT
BRANCH   1   5
HETATM    5  C   UNL     1     -42.249 -53.679  14.900  1.00  0.00     0.158 C 
BRANCH   5   6
HETATM    6  C   UNL     1     -43.617 -53.280  14.265  1.00  0.00     0.236 C 
HETATM    7  C   UNL     1     -43.694 -53.942  12.872  1.00  0.00     0.044 C 
BRANCH   6   8
HETATM    8  N   UNL     1     -43.817 -51.802  14.164  1.00  0.00     0.094 N 
HETATM    9  C   UNL     1     -44.364 -51.182  15.388  1.00  0.00     0.273 C 
HETATM   10  C   UNL     1     -45.820 -51.552  15.689  1.00  0.00     0.031 C 
HETATM   11  C   UNL     1     -46.747 -51.374  14.484  1.00  0.00     0.007 C 
HETATM   12  C   UNL     1     -46.129 -51.900  13.182  1.00  0.00     0.010 C 
HETATM   13  C   UNL     1     -46.977 -51.507  11.974  1.00  0.00     0.011 C 
HETATM   14  C   UNL     1     -44.686 -51.388  13.039  1.00  0.00     0.277 C 
ENDBRANCH   6   8
ENDBRANCH   5   6
ENDBRANCH   1   5
BRANCH   2  15
HETATM   15  C   UNL     1     -39.084 -51.824  13.811  1.00  0.00     0.249 C 
BRANCH  15  16
HETATM   16  N   UNL     1     -39.324 -50.970  12.677  1.00  0.00    -0.264 N 
HETATM   17  C   UNL     1     -38.429 -50.361  11.856  1.00  0.00     0.213 A 
HETATM   18  N   UNL     1     -39.092 -49.742  10.905  1.00  0.00    -0.281 N 
HETATM   19  N   UNL     1     -40.422 -49.986  11.155  1.00  0.00    -0.008 NA
ATOM     20  HN  UNL     1     -38.701 -49.193  10.140  1.00  0.00     0.184 HD
HETATM   21  N   UNL     1     -40.572 -50.745  12.233  1.00  0.00    -0.005 NA
ENDBRANCH  15  16
ENDBRANCH   2  15
TORSDOF 5
ENDMDL
MODEL 8
REMARK VINA RESULT:      -5.2      4.236      6.435
REMARK  5 active torsions:
REMARK  status: ('A' for Active; 'I' for Inactive)
REMARK    1  A    between atoms: C_2  and  C_3 
REMARK    2  A    between atoms: C_2  and  N_14 
REMARK    3  A    between atoms: C_3  and  N_4 
REMARK       I    between atoms: N_4  and  C_5 
REMARK    4  A    between atoms: C_5  and  C_7 
REMARK    5  A    between atoms: C_7  and  N_8 
ROOT
HETATM    1  N   UNL     1     -39.093 -48.091  12.617  1.00  0.00    -0.358 N 
HETATM    2  C   UNL     1     -39.550 -49.062  13.482  1.00  0.00     0.237 C 
HETATM    3  O   UNL     1     -40.426 -48.845  14.316  1.00  0.00    -0.272 OA
HETATM    4  H   UNL     1     -38.351 -48.295  11.957  1.00  0.00     0.162 HD
ENDROOT
BRANCH   1   5
HETATM    5  C   UNL     1     -39.593 -46.717  12.669  1.00  0.00     0.158 C 
BRANCH   5   6
HETATM    6  C   UNL     1     -40.443 -46.311  11.425  1.00  0.00     0.236 C 
HETATM    7  C   UNL     1     -39.615 -45.294  10.609  1.00  0.00     0.044 C 
BRANCH   6   8
HETATM    8  N   UNL     1     -41.781 -45.747  11.778  1.00  0.00     0.094 N 
HETATM    9  C   UNL     1     -42.580 -46.608  12.673  1.00  0.00     0.273 C 
HETATM   10  C   UNL     1     -43.082 -47.903  12.026  1.00  0.00     0.031 C 
HETATM   11  C   UNL     1     -43.768 -47.674  10.676  1.00  0.00     0.007 C 
HETATM   12  C   UNL     1     -43.008 -46.678   9.790  1.00  0.00     0.010 C 
HETATM   13  C   UNL     1     -43.827 -46.304   8.558  1.00  0.00     0.011 C 
HETATM   14  C   UNL     1     -42.629 -45.430  10.606  1.00  0.00     0.277 C 
ENDBRANCH   6   8
ENDBRANCH   5   6
ENDBRANCH   1   5
BRANCH   2  15
HETATM   15  C   UNL     1     -38.912 -50.423  13.335  1.00  0.00     0.249 C 
BRANCH  15  16
HETATM   16  N   UNL     1     -39.809 -51.351  12.698  1.00  0.00    -0.264 N 
HETATM   17  C   UNL     1     -40.742 -51.121  11.737  1.00  0.00     0.213 A 
HETATM   18  N   UNL     1     -41.277 -52.272  11.394  1.00  0.00    -0.281 N 
HETATM   19  N   UNL     1     -40.648 -53.222  12.164  1.00  0.00    -0.008 NA
ATOM     20  HN  UNL     1     -42.008 -52.428  10.700  1.00  0.00     0.184 HD
HETATM   21  N   UNL     1     -39.742 -52.667  12.958  1.00  0.00    -0.005 NA
ENDBRANCH  15  16
ENDBRANCH   2  15
TORSDOF 5
ENDMDL
MODEL 9
REMARK VINA RESULT:      -5.1      3.976      7.021
REMARK  5 active torsions:
REMARK  status: ('A' for Active; 'I' for Inactive)
REMARK    1  A    between atoms: C_2  and  C_3 
REMARK    2  A    between atoms: C_2  and  N_14 
REMARK    3  A    between atoms: C_3  and  N_4 
REMARK       I    between atoms: N_4  and  C_5 
REMARK    4  A    between atoms: C_5  and  C_7 
REMARK    5  A    between atoms: C_7  and  N_8 
ROOT
HETATM    1  N   UNL     1     -41.847 -52.368  13.011  1.00  0.00    -0.358 N 
HETATM    2  C   UNL     1     -41.827 -53.733  13.201  1.00  0.00     0.237 C 
HETATM    3  O   UNL     1     -40.978 -54.460  12.690  1.00  0.00    -0.272 OA
HETATM    4  H   UNL     1     -42.576 -51.799  13.427  1.00  0.00     0.162 HD
ENDROOT
BRANCH   1   5
HETATM    5  C   UNL     1     -40.879 -51.698  12.143  1.00  0.00     0.158 C 
BRANCH   5   6
HETATM    6  C   UNL     1     -40.740 -50.169  12.420  1.00  0.00     0.236 C 
HETATM    7  C   UNL     1     -42.080 -49.503  12.034  1.00  0.00     0.044 C 
BRANCH   6   8
HETATM    8  N   UNL     1     -39.601 -49.534  11.690  1.00  0.00     0.094 N 
HETATM    9  C   UNL     1     -38.294 -50.178  11.935  1.00  0.00     0.273 C 
HETATM   10  C   UNL     1     -37.747 -49.982  13.352  1.00  0.00     0.031 C 
HETATM   11  C   UNL     1     -37.768 -48.521  13.809  1.00  0.00     0.007 C 
HETATM   12  C   UNL     1     -39.076 -47.807  13.441  1.00  0.00     0.010 C 
HETATM   13  C   UNL     1     -38.976 -46.307  13.706  1.00  0.00     0.011 C 
HETATM   14  C   UNL     1     -39.435 -48.090  11.972  1.00  0.00     0.277 C 
ENDBRANCH   6   8
ENDBRANCH   5   6
ENDBRANCH   1   5
BRANCH   2  15
HETATM   15  C   UNL     1     -42.914 -54.286  14.092  1.00  0.00     0.249 C 
BRANCH  15  16
HETATM   16  N   UNL     1     -44.220 -53.941  13.593  1.00  0.00    -0.264 N 
HETATM   17  C   UNL     1     -45.396 -53.837  14.265  1.00  0.00     0.213 A 
HETATM   18  N   UNL     1     -46.319 -53.421  13.426  1.00  0.00    -0.281 N 
HETATM   19  N   UNL     1     -45.683 -53.265  12.217  1.00  0.00    -0.008 NA
ATOM     20  HN  UNL     1     -47.303 -53.250  13.629  1.00  0.00     0.184 HD
HETATM   21  N   UNL     1     -44.396 -53.573  12.313  1.00  0.00    -0.005 NA
ENDBRANCH  15  16
ENDBRANCH   2  15
TORSDOF 5
ENDMDL
