MODEL 1
REMARK VINA RESULT:      -4.8      0.000      0.000
REMARK  6 active torsions:
REMARK  status: ('A' for Active; 'I' for Inactive)
REMARK    1  A    between atoms: N_1  and  C_2 
REMARK    2  A    between atoms: C_2  and  C_3 
REMARK    3  A    between atoms: C_3  and  N_4 
REMARK    4  A    between atoms: N_4  and  S_5 
REMARK    5  A    between atoms: S_5  and  C_8 
REMARK    6  A    between atoms: C_8  and  C_9 
ROOT
HETATM    1  S   UNL     1     -41.407 -46.124  11.038  1.00  0.00     0.214 S 
HETATM    2  O   UNL     1     -41.065 -45.524  12.310  1.00  0.00    -0.211 OA
HETATM    3  O   UNL     1     -41.588 -45.323   9.847  1.00  0.00    -0.211 OA
ENDROOT
BRANCH   1   4
HETATM    4  N   UNL     1     -40.142 -47.221  10.706  1.00  0.00    -0.218 NA
HETATM    5  H   UNL     1     -40.434 -47.870   9.968  1.00  0.00     0.139 HD
BRANCH   4   6
HETATM    6  C   UNL     1     -39.805 -48.050  11.912  1.00  0.00     0.134 C 
BRANCH   6   7
HETATM    7  C   UNL     1     -39.575 -49.514  11.512  1.00  0.00     0.282 C 
BRANCH   7   8
HETATM    8  N   UNL     1     -40.415 -49.926  10.382  1.00  0.00     0.079 N 
HETATM    9  H   UNL     1     -40.083 -50.832  10.045  1.00  0.00     0.312 HD
HETATM   10  H   UNL     1     -40.259 -49.281   9.609  1.00  0.00     0.312 HD
ENDBRANCH   7   8
ENDBRANCH   6   7
ENDBRANCH   4   6
ENDBRANCH   1   4
BRANCH   1  11
HETATM   11  C   UNL     1     -42.826 -47.208  11.242  1.00  0.00     0.216 C 
BRANCH  11  12
HETATM   12  C   UNL     1     -43.465 -47.484   9.929  1.00  0.00     0.049 A 
HETATM   13  C   UNL     1     -44.836 -47.428   9.579  1.00  0.00     0.054 A 
HETATM   14  C   UNL     1     -44.865 -47.801   8.260  1.00  0.00     0.169 A 
HETATM   15  O   UNL     1     -43.603 -48.037   7.830  1.00  0.00    -0.250 OA
HETATM   16  N   UNL     1     -42.714 -47.825   8.871  1.00  0.00    -0.265 N 
ATOM     17  HN  UNL     1     -41.698 -47.911   8.841  1.00  0.00     0.194 HD
ENDBRANCH  11  12
ENDBRANCH   1  11
TORSDOF 6
ENDMDL
MODEL 2
REMARK VINA RESULT:      -4.5      5.549      6.482
REMARK  6 active torsions:
REMARK  status: ('A' for Active; 'I' for Inactive)
REMARK    1  A    between atoms: N_1  and  C_2 
REMARK    2  A    between atoms: C_2  and  C_3 
REMARK    3  A    between atoms: C_3  and  N_4 
REMARK    4  A    between atoms: N_4  and  S_5 
REMARK    5  A    between atoms: S_5  and  C_8 
REMARK    6  A    between atoms: C_8  and  C_9 
ROOT
HETATM    1  S   UNL     1     -40.898 -52.178  13.089  1.00  0.00     0.214 S 
HETATM    2  O   UNL     1     -39.542 -51.989  12.620  1.00  0.00    -0.211 OA
HETATM    3  O   UNL     1     -41.333 -51.669  14.372  1.00  0.00    -0.211 OA
ENDROOT
BRANCH   1   4
HETATM    4  N   UNL     1     -41.887 -51.446  11.907  1.00  0.00    -0.218 NA
HETATM    5  H   UNL     1     -41.433 -51.511  10.990  1.00  0.00     0.139 HD
BRANCH   4   6
HETATM    6  C   UNL     1     -42.094 -49.986  12.193  1.00  0.00     0.134 C 
BRANCH   6   7
HETATM    7  C   UNL     1     -41.242 -49.126  11.249  1.00  0.00     0.282 C 
BRANCH   7   8
HETATM    8  N   UNL     1     -40.412 -49.935  10.349  1.00  0.00     0.079 N 
HETATM    9  H   UNL     1     -40.311 -50.869  10.753  1.00  0.00     0.312 HD
HETATM   10  H   UNL     1     -39.470 -49.547  10.339  1.00  0.00     0.312 HD
ENDBRANCH   7   8
ENDBRANCH   6   7
ENDBRANCH   4   6
ENDBRANCH   1   4
BRANCH   1  11
HETATM   11  C   UNL     1     -41.346 -53.914  12.960  1.00  0.00     0.216 C 
BRANCH  11  12
HETATM   12  C   UNL     1     -42.809 -54.091  13.153  1.00  0.00     0.049 A 
HETATM   13  C   UNL     1     -43.507 -54.518  14.309  1.00  0.00     0.054 A 
HETATM   14  C   UNL     1     -44.823 -54.528  13.926  1.00  0.00     0.169 A 
HETATM   15  O   UNL     1     -44.922 -54.109  12.642  1.00  0.00    -0.250 OA
HETATM   16  N   UNL     1     -43.660 -53.818  12.153  1.00  0.00    -0.265 N 
ATOM     17  HN  UNL     1     -43.425 -53.468  11.224  1.00  0.00     0.194 HD
ENDBRANCH  11  12
ENDBRANCH   1  11
TORSDOF 6
ENDMDL
MODEL 3
REMARK VINA RESULT:      -4.5      2.429      4.307
REMARK  6 active torsions:
REMARK  status: ('A' for Active; 'I' for Inactive)
REMARK    1  A    between atoms: N_1  and  C_2 
REMARK    2  A    between atoms: C_2  and  C_3 
REMARK    3  A    between atoms: C_3  and  N_4 
REMARK    4  A    between atoms: N_4  and  S_5 
REMARK    5  A    between atoms: S_5  and  C_8 
REMARK    6  A    between atoms: C_8  and  C_9 
ROOT
HETATM    1  S   UNL     1     -41.261 -48.731  11.250  1.00  0.00     0.214 S 
HETATM    2  O   UNL     1     -42.398 -48.427  12.092  1.00  0.00    -0.211 OA
HETATM    3  O   UNL     1     -40.768 -50.084  11.104  1.00  0.00    -0.211 OA
ENDROOT
BRANCH   1   4
HETATM    4  N   UNL     1     -41.702 -48.198   9.690  1.00  0.00    -0.218 NA
HETATM    5  H   UNL     1     -41.091 -47.426   9.404  1.00  0.00     0.139 HD
BRANCH   4   6
HETATM    6  C   UNL     1     -43.110 -47.674   9.668  1.00  0.00     0.134 C 
BRANCH   6   7
HETATM    7  C   UNL     1     -43.565 -47.411   8.226  1.00  0.00     0.282 C 
BRANCH   7   8
HETATM    8  N   UNL     1     -42.947 -48.334   7.266  1.00  0.00     0.079 N 
HETATM    9  H   UNL     1     -43.520 -48.351   6.419  1.00  0.00     0.312 HD
HETATM   10  H   UNL     1     -43.001 -49.279   7.643  1.00  0.00     0.312 HD
ENDBRANCH   7   8
ENDBRANCH   6   7
ENDBRANCH   4   6
ENDBRANCH   1   4
BRANCH   1  11
HETATM   11  C   UNL     1     -39.891 -47.645  11.667  1.00  0.00     0.216 C 
BRANCH  11  12
HETATM   12  C   UNL     1     -40.181 -46.252  11.238  1.00  0.00     0.049 A 
HETATM   13  C   UNL     1     -40.882 -45.236  11.932  1.00  0.00     0.054 A 
HETATM   14  C   UNL     1     -40.878 -44.171  11.071  1.00  0.00     0.169 A 
HETATM   15  O   UNL     1     -40.198 -44.502   9.947  1.00  0.00    -0.250 OA
HETATM   16  N   UNL     1     -39.743 -45.806  10.051  1.00  0.00    -0.265 N 
ATOM     17  HN  UNL     1     -39.190 -46.321   9.367  1.00  0.00     0.194 HD
ENDBRANCH  11  12
ENDBRANCH   1  11
TORSDOF 6
ENDMDL
MODEL 4
REMARK VINA RESULT:      -4.5      1.895      3.876
REMARK  6 active torsions:
REMARK  status: ('A' for Active; 'I' for Inactive)
REMARK    1  A    between atoms: N_1  and  C_2 
REMARK    2  A    between atoms: C_2  and  C_3 
REMARK    3  A    between atoms: C_3  and  N_4 
REMARK    4  A    between atoms: N_4  and  S_5 
REMARK    5  A    between atoms: S_5  and  C_8 
REMARK    6  A    between atoms: C_8  and  C_9 
ROOT
HETATM    1  S   UNL     1     -41.904 -45.625  10.387  1.00  0.00     0.214 S 
HETATM    2  O   UNL     1     -40.462 -45.755  10.379  1.00  0.00    -0.211 OA
HETATM    3  O   UNL     1     -42.548 -44.361  10.673  1.00  0.00    -0.211 OA
ENDROOT
BRANCH   1   4
HETATM    4  N   UNL     1     -42.404 -46.090   8.823  1.00  0.00    -0.218 NA
HETATM    5  H   UNL     1     -42.264 -45.311   8.171  1.00  0.00     0.139 HD
BRANCH   4   6
HETATM    6  C   UNL     1     -43.867 -46.430   8.794  1.00  0.00     0.134 C 
BRANCH   6   7
HETATM    7  C   UNL     1     -44.092 -47.785   8.108  1.00  0.00     0.282 C 
BRANCH   7   8
HETATM    8  N   UNL     1     -42.957 -48.183   7.266  1.00  0.00     0.079 N 
HETATM    9  H   UNL     1     -42.304 -47.399   7.211  1.00  0.00     0.312 HD
HETATM   10  H   UNL     1     -43.292 -48.319   6.313  1.00  0.00     0.312 HD
ENDBRANCH   7   8
ENDBRANCH   6   7
ENDBRANCH   4   6
ENDBRANCH   1   4
BRANCH   1  11
HETATM   11  C   UNL     1     -42.621 -46.903  11.428  1.00  0.00     0.216 C 
BRANCH  11  12
HETATM   12  C   UNL     1     -41.725 -48.088  11.491  1.00  0.00     0.049 A 
HETATM   13  C   UNL     1     -41.201 -48.745  12.631  1.00  0.00     0.054 A 
HETATM   14  C   UNL     1     -40.422 -49.747  12.116  1.00  0.00     0.169 A 
HETATM   15  O   UNL     1     -40.490 -49.723  10.764  1.00  0.00    -0.250 OA
HETATM   16  N   UNL     1     -41.321 -48.690  10.363  1.00  0.00    -0.265 N 
ATOM     17  HN  UNL     1     -41.574 -48.438   9.408  1.00  0.00     0.194 HD
ENDBRANCH  11  12
ENDBRANCH   1  11
TORSDOF 6
ENDMDL
MODEL 5
REMARK VINA RESULT:      -4.4      6.696      8.199
REMARK  6 active torsions:
REMARK  status: ('A' for Active; 'I' for Inactive)
REMARK    1  A    between atoms: N_1  and  C_2 
REMARK    2  A    between atoms: C_2  and  C_3 
REMARK    3  A    between atoms: C_3  and  N_4 
REMARK    4  A    between atoms: N_4  and  S_5 
REMARK    5  A    between atoms: S_5  and  C_8 
REMARK    6  A    between atoms: C_8  and  C_9 
ROOT
HETATM    1  S   UNL     1     -44.598 -54.443  13.665  1.00  0.00     0.214 S 
HETATM    2  O   UNL     1     -45.474 -55.506  14.112  1.00  0.00    -0.211 OA
HETATM    3  O   UNL     1     -44.426 -54.146  12.259  1.00  0.00    -0.211 OA
ENDROOT
BRANCH   1   4
HETATM    4  N   UNL     1     -45.204 -53.026  14.398  1.00  0.00    -0.218 NA
HETATM    5  H   UNL     1     -46.185 -53.167  14.661  1.00  0.00     0.139 HD
BRANCH   4   6
HETATM    6  C   UNL     1     -45.166 -51.860  13.452  1.00  0.00     0.134 C 
BRANCH   6   7
HETATM    7  C   UNL     1     -46.565 -51.577  12.889  1.00  0.00     0.282 C 
BRANCH   7   8
HETATM    8  N   UNL     1     -46.772 -52.181  11.568  1.00  0.00     0.079 N 
HETATM    9  H   UNL     1     -46.554 -51.482  10.854  1.00  0.00     0.312 HD
HETATM   10  H   UNL     1     -47.765 -52.379  11.453  1.00  0.00     0.312 HD
ENDBRANCH   7   8
ENDBRANCH   6   7
ENDBRANCH   4   6
ENDBRANCH   1   4
BRANCH   1  11
HETATM   11  C   UNL     1     -42.984 -54.627  14.433  1.00  0.00     0.216 C 
BRANCH  11  12
HETATM   12  C   UNL     1     -41.970 -53.806  13.720  1.00  0.00     0.049 A 
HETATM   13  C   UNL     1     -41.470 -52.525  14.055  1.00  0.00     0.054 A 
HETATM   14  C   UNL     1     -40.586 -52.232  13.050  1.00  0.00     0.169 A 
HETATM   15  O   UNL     1     -40.529 -53.270  12.182  1.00  0.00    -0.250 OA
HETATM   16  N   UNL     1     -41.387 -54.272  12.606  1.00  0.00    -0.265 N 
ATOM     17  HN  UNL     1     -41.543 -55.177  12.162  1.00  0.00     0.194 HD
ENDBRANCH  11  12
ENDBRANCH   1  11
TORSDOF 6
ENDMDL
MODEL 6
REMARK VINA RESULT:      -4.4      6.439      7.080
REMARK  6 active torsions:
REMARK  status: ('A' for Active; 'I' for Inactive)
REMARK    1  A    between atoms: N_1  and  C_2 
REMARK    2  A    between atoms: C_2  and  C_3 
REMARK    3  A    between atoms: C_3  and  N_4 
REMARK    4  A    between atoms: N_4  and  S_5 
REMARK    5  A    between atoms: S_5  and  C_8 
REMARK    6  A    between atoms: C_8  and  C_9 
ROOT
HETATM    1  S   UNL     1     -43.496 -53.158  12.881  1.00  0.00     0.214 S 
HETATM    2  O   UNL     1     -44.366 -54.192  12.362  1.00  0.00    -0.211 OA
HETATM    3  O   UNL     1     -42.563 -53.423  13.956  1.00  0.00    -0.211 OA
ENDROOT
BRANCH   1   4
HETATM    4  N   UNL     1     -42.572 -52.638  11.544  1.00  0.00    -0.218 NA
HETATM    5  H   UNL     1     -42.422 -53.423  10.902  1.00  0.00     0.139 HD
BRANCH   4   6
HETATM    6  C   UNL     1     -41.216 -52.153  11.970  1.00  0.00     0.134 C 
BRANCH   6   7
HETATM    7  C   UNL     1     -41.118 -50.629  11.825  1.00  0.00     0.282 C 
BRANCH   7   8
HETATM    8  N   UNL     1     -40.412 -50.225  10.602  1.00  0.00     0.079 N 
HETATM    9  H   UNL     1     -40.681 -49.266  10.374  1.00  0.00     0.312 HD
HETATM   10  H   UNL     1     -40.756 -50.790   9.827  1.00  0.00     0.312 HD
ENDBRANCH   7   8
ENDBRANCH   6   7
ENDBRANCH   4   6
ENDBRANCH   1   4
BRANCH   1  11
HETATM   11  C   UNL     1     -44.464 -51.699  13.286  1.00  0.00     0.216 C 
BRANCH  11  12
HETATM   12  C   UNL     1     -45.490 -52.022  14.312  1.00  0.00     0.049 A 
HETATM   13  C   UNL     1     -46.714 -51.362  14.582  1.00  0.00     0.054 A 
HETATM   14  C   UNL     1     -47.246 -52.055  15.638  1.00  0.00     0.169 A 
HETATM   15  O   UNL     1     -46.424 -53.079  15.967  1.00  0.00    -0.250 OA
HETATM   16  N   UNL     1     -45.323 -53.074  15.126  1.00  0.00    -0.265 N 
ATOM     17  HN  UNL     1     -44.545 -53.734  15.127  1.00  0.00     0.194 HD
ENDBRANCH  11  12
ENDBRANCH   1  11
TORSDOF 6
ENDMDL
MODEL 7
REMARK VINA RESULT:      -4.4      5.707      6.508
REMARK  6 active torsions:
REMARK  status: ('A' for Active; 'I' for Inactive)
REMARK    1  A    between atoms: N_1  and  C_2 
REMARK    2  A    between atoms: C_2  and  C_3 
REMARK    3  A    between atoms: C_3  and  N_4 
REMARK    4  A    between atoms: N_4  and  S_5 
REMARK    5  A    between atoms: S_5  and  C_8 
REMARK    6  A    between atoms: C_8  and  C_9 
ROOT
HETATM    1  S   UNL     1     -41.368 -52.281  12.752  1.00  0.00     0.214 S 
HETATM    2  O   UNL     1     -42.410 -51.330  12.428  1.00  0.00    -0.211 OA
HETATM    3  O   UNL     1     -40.725 -53.078  11.730  1.00  0.00    -0.211 OA
ENDROOT
BRANCH   1   4
HETATM    4  N   UNL     1     -40.141 -51.363  13.504  1.00  0.00    -0.218 NA
HETATM    5  H   UNL     1     -40.319 -51.311  14.513  1.00  0.00     0.139 HD
BRANCH   4   6
HETATM    6  C   UNL     1     -40.119 -49.952  12.989  1.00  0.00     0.134 C 
BRANCH   6   7
HETATM    7  C   UNL     1     -39.376 -49.880  11.647  1.00  0.00     0.282 C 
BRANCH   7   8
HETATM    8  N   UNL     1     -40.277 -50.033  10.498  1.00  0.00     0.079 N 
HETATM    9  H   UNL     1     -41.047 -49.369  10.600  1.00  0.00     0.312 HD
HETATM   10  H   UNL     1     -40.711 -50.954  10.547  1.00  0.00     0.312 HD
ENDBRANCH   7   8
ENDBRANCH   6   7
ENDBRANCH   4   6
ENDBRANCH   1   4
BRANCH   1  11
HETATM   11  C   UNL     1     -41.924 -53.359  14.079  1.00  0.00     0.216 C 
BRANCH  11  12
HETATM   12  C   UNL     1     -43.245 -53.955  13.747  1.00  0.00     0.049 A 
HETATM   13  C   UNL     1     -44.162 -54.615  14.602  1.00  0.00     0.054 A 
HETATM   14  C   UNL     1     -45.191 -54.982  13.776  1.00  0.00     0.169 A 
HETATM   15  O   UNL     1     -44.936 -54.552  12.518  1.00  0.00    -0.250 OA
HETATM   16  N   UNL     1     -43.720 -53.891  12.495  1.00  0.00    -0.265 N 
ATOM     17  HN  UNL     1     -43.275 -53.446  11.691  1.00  0.00     0.194 HD
ENDBRANCH  11  12
ENDBRANCH   1  11
TORSDOF 6
ENDMDL
MODEL 8
REMARK VINA RESULT:      -4.3      7.005      7.507
REMARK  6 active torsions:
REMARK  status: ('A' for Active; 'I' for Inactive)
REMARK    1  A    between atoms: N_1  and  C_2 
REMARK    2  A    between atoms: C_2  and  C_3 
REMARK    3  A    between atoms: C_3  and  N_4 
REMARK    4  A    between atoms: N_4  and  S_5 
REMARK    5  A    between atoms: S_5  and  C_8 
REMARK    6  A    between atoms: C_8  and  C_9 
ROOT
HETATM    1  S   UNL     1     -43.765 -54.082  15.307  1.00  0.00     0.214 S 
HETATM    2  O   UNL     1     -43.902 -55.414  14.756  1.00  0.00    -0.211 OA
HETATM    3  O   UNL     1     -43.019 -53.840  16.524  1.00  0.00    -0.211 OA
ENDROOT
BRANCH   1   4
HETATM    4  N   UNL     1     -43.017 -53.164  14.079  1.00  0.00    -0.218 NA
HETATM    5  H   UNL     1     -43.730 -52.794  13.443  1.00  0.00     0.139 HD
BRANCH   4   6
HETATM    6  C   UNL     1     -42.086 -54.006  13.254  1.00  0.00     0.134 C 
BRANCH   6   7
HETATM    7  C   UNL     1     -40.973 -53.142  12.646  1.00  0.00     0.282 C 
BRANCH   7   8
HETATM    8  N   UNL     1     -41.301 -52.673  11.295  1.00  0.00     0.079 N 
HETATM    9  H   UNL     1     -42.313 -52.540  11.235  1.00  0.00     0.312 HD
HETATM   10  H   UNL     1     -41.092 -53.419  10.632  1.00  0.00     0.312 HD
ENDBRANCH   7   8
ENDBRANCH   6   7
ENDBRANCH   4   6
ENDBRANCH   1   4
BRANCH   1  11
HETATM   11  C   UNL     1     -45.384 -53.315  15.445  1.00  0.00     0.216 C 
BRANCH  11  12
HETATM   12  C   UNL     1     -45.829 -52.795  14.125  1.00  0.00     0.049 A 
HETATM   13  C   UNL     1     -46.338 -51.513  13.801  1.00  0.00     0.054 A 
HETATM   14  C   UNL     1     -46.611 -51.586  12.460  1.00  0.00     0.169 A 
HETATM   15  O   UNL     1     -46.266 -52.810  11.995  1.00  0.00    -0.250 OA
HETATM   16  N   UNL     1     -45.758 -53.572  13.034  1.00  0.00    -0.265 N 
ATOM     17  HN  UNL     1     -45.403 -54.527  12.982  1.00  0.00     0.194 HD
ENDBRANCH  11  12
ENDBRANCH   1  11
TORSDOF 6
ENDMDL
MODEL 9
REMARK VINA RESULT:      -4.2      7.355      8.343
REMARK  6 active torsions:
REMARK  status: ('A' for Active; 'I' for Inactive)
REMARK    1  A    between atoms: N_1  and  C_2 
REMARK    2  A    between atoms: C_2  and  C_3 
REMARK    3  A    between atoms: C_3  and  N_4 
REMARK    4  A    between atoms: N_4  and  S_5 
REMARK    5  A    between atoms: S_5  and  C_8 
REMARK    6  A    between atoms: C_8  and  C_9 
ROOT
HETATM    1  S   UNL     1     -45.092 -53.321  12.787  1.00  0.00     0.214 S 
HETATM    2  O   UNL     1     -46.031 -52.751  11.843  1.00  0.00    -0.211 OA
HETATM    3  O   UNL     1     -45.167 -54.711  13.182  1.00  0.00    -0.211 OA
ENDROOT
BRANCH   1   4
HETATM    4  N   UNL     1     -43.555 -53.091  12.083  1.00  0.00    -0.218 NA
HETATM    5  H   UNL     1     -43.474 -53.664  11.236  1.00  0.00     0.139 HD
BRANCH   4   6
HETATM    6  C   UNL     1     -42.456 -53.523  13.012  1.00  0.00     0.134 C 
BRANCH   6   7
HETATM    7  C   UNL     1     -41.085 -53.134  12.443  1.00  0.00     0.282 C 
BRANCH   7   8
HETATM    8  N   UNL     1     -41.187 -52.467  11.140  1.00  0.00     0.079 N 
HETATM    9  H   UNL     1     -41.994 -52.848  10.643  1.00  0.00     0.312 HD
HETATM   10  H   UNL     1     -40.379 -52.730  10.576  1.00  0.00     0.312 HD
ENDBRANCH   7   8
ENDBRANCH   6   7
ENDBRANCH   4   6
ENDBRANCH   1   4
BRANCH   1  11
HETATM   11  C   UNL     1     -45.013 -52.291  14.257  1.00  0.00     0.216 C 
BRANCH  11  12
HETATM   12  C   UNL     1     -45.061 -53.129  15.484  1.00  0.00     0.049 A 
HETATM   13  C   UNL     1     -44.093 -53.259  16.510  1.00  0.00     0.054 A 
HETATM   14  C   UNL     1     -44.634 -54.174  17.374  1.00  0.00     0.169 A 
HETATM   15  O   UNL     1     -45.855 -54.551  16.924  1.00  0.00    -0.250 OA
HETATM   16  N   UNL     1     -46.137 -53.886  15.743  1.00  0.00    -0.265 N 
ATOM     17  HN  UNL     1     -46.987 -53.957  15.184  1.00  0.00     0.194 HD
ENDBRANCH  11  12
ENDBRANCH   1  11
TORSDOF 6
ENDMDL
