MODEL 1
REMARK VINA RESULT:      -5.9      0.000      0.000
REMARK  3 active torsions:
REMARK  status: ('A' for Active; 'I' for Inactive)
REMARK    1  A    between atoms: C_5  and  C_6 
REMARK    2  A    between atoms: C_6  and  N_7 
REMARK       I    between atoms: N_7  and  C_8 
REMARK       I    between atoms: C_8  and  N_10 
REMARK    3  A    between atoms: N_10  and  C_11 
ROOT
HETATM    1  N   UNL     1     -40.526 -49.456  10.523  1.00  0.00    -0.342 N 
HETATM    2  C   UNL     1     -41.678 -48.713  10.650  1.00  0.00     0.320 C 
HETATM    3  O   UNL     1     -42.251 -48.578  11.723  1.00  0.00    -0.247 OA
HETATM    4  N   UNL     1     -42.110 -48.204   9.445  1.00  0.00    -0.309 N 
HETATM    5  H   UNL     1     -39.911 -49.233   9.754  1.00  0.00     0.164 HD
HETATM    6  H   UNL     1     -41.758 -48.664   8.619  1.00  0.00     0.170 HD
ENDROOT
BRANCH   1   7
HETATM    7  C   UNL     1     -39.944 -50.069  11.704  1.00  0.00     0.129 C 
BRANCH   7   8
HETATM    8  C   UNL     1     -38.580 -49.464  12.079  1.00  0.00     0.007 C 
HETATM    9  C   UNL     1     -37.597 -50.485  12.675  1.00  0.00     0.036 C 
HETATM   10  C   UNL     1     -37.986 -50.918  14.092  1.00  0.00     0.272 C 
HETATM   11  N   UNL     1     -38.175 -49.796  15.022  1.00  0.00     0.084 N 
HETATM   12  C   UNL     1     -36.910 -49.198  15.438  1.00  0.00     0.309 C 
HETATM   13  C   UNL     1     -39.115 -48.805  14.490  1.00  0.00     0.272 C 
HETATM   14  C   UNL     1     -38.769 -48.309  13.079  1.00  0.00     0.036 C 
ENDBRANCH   7   8
ENDBRANCH   1   7
BRANCH   4  15
HETATM   15  C   UNL     1     -43.231 -47.352   9.293  1.00  0.00     0.038 A 
HETATM   16  C   UNL     1     -44.527 -47.832   9.110  1.00  0.00     0.046 A 
HETATM   17  C   UNL     1     -45.556 -46.926   8.927  1.00  0.00     0.090 A 
HETATM   18  N   UNL     1     -45.385 -45.590   8.934  1.00  0.00    -0.375 N 
HETATM   19  C   UNL     1     -44.128 -45.145   9.137  1.00  0.00     0.090 A 
ATOM     20  HN  UNL     1     -46.165 -44.948   8.793  1.00  0.00     0.164 HD
HETATM   21  C   UNL     1     -43.032 -45.974   9.330  1.00  0.00     0.046 A 
ENDBRANCH   4  15
TORSDOF 3
ENDMDL
MODEL 2
REMARK VINA RESULT:      -5.9      3.003      3.899
REMARK  3 active torsions:
REMARK  status: ('A' for Active; 'I' for Inactive)
REMARK    1  A    between atoms: C_5  and  C_6 
REMARK    2  A    between atoms: C_6  and  N_7 
REMARK       I    between atoms: N_7  and  C_8 
REMARK       I    between atoms: C_8  and  N_10 
REMARK    3  A    between atoms: N_10  and  C_11 
ROOT
HETATM    1  N   UNL     1     -40.597 -50.472  11.142  1.00  0.00    -0.342 N 
HETATM    2  C   UNL     1     -41.464 -49.407  11.229  1.00  0.00     0.320 C 
HETATM    3  O   UNL     1     -42.138 -49.196  12.228  1.00  0.00    -0.247 OA
HETATM    4  N   UNL     1     -41.506 -48.668  10.066  1.00  0.00    -0.309 N 
HETATM    5  H   UNL     1     -39.822 -50.392  10.499  1.00  0.00     0.164 HD
HETATM    6  H   UNL     1     -41.182 -49.136   9.233  1.00  0.00     0.170 HD
ENDROOT
BRANCH   1   7
HETATM    7  C   UNL     1     -40.442 -51.356  12.285  1.00  0.00     0.129 C 
BRANCH   7   8
HETATM    8  C   UNL     1     -41.186 -52.691  12.111  1.00  0.00     0.007 C 
HETATM    9  C   UNL     1     -42.697 -52.593  12.378  1.00  0.00     0.036 C 
HETATM   10  C   UNL     1     -43.021 -52.410  13.865  1.00  0.00     0.272 C 
HETATM   11  N   UNL     1     -42.420 -53.434  14.731  1.00  0.00     0.084 N 
HETATM   12  C   UNL     1     -43.104 -54.719  14.630  1.00  0.00     0.309 C 
HETATM   13  C   UNL     1     -40.976 -53.549  14.509  1.00  0.00     0.272 C 
HETATM   14  C   UNL     1     -40.582 -53.759  13.041  1.00  0.00     0.036 C 
ENDBRANCH   7   8
ENDBRANCH   1   7
BRANCH   4  15
HETATM   15  C   UNL     1     -42.264 -47.484   9.899  1.00  0.00     0.038 A 
HETATM   16  C   UNL     1     -41.926 -46.277  10.510  1.00  0.00     0.046 A 
HETATM   17  C   UNL     1     -42.750 -45.181  10.325  1.00  0.00     0.090 A 
HETATM   18  N   UNL     1     -43.863 -45.202   9.565  1.00  0.00    -0.375 N 
HETATM   19  C   UNL     1     -44.158 -46.372   8.963  1.00  0.00     0.090 A 
ATOM     20  HN  UNL     1     -44.451 -44.376   9.451  1.00  0.00     0.164 HD
HETATM   21  C   UNL     1     -43.396 -47.525   9.088  1.00  0.00     0.046 A 
ENDBRANCH   4  15
TORSDOF 3
ENDMDL
MODEL 3
REMARK VINA RESULT:      -5.8      4.540      5.716
REMARK  3 active torsions:
REMARK  status: ('A' for Active; 'I' for Inactive)
REMARK    1  A    between atoms: C_5  and  C_6 
REMARK    2  A    between atoms: C_6  and  N_7 
REMARK       I    between atoms: N_7  and  C_8 
REMARK       I    between atoms: C_8  and  N_10 
REMARK    3  A    between atoms: N_10  and  C_11 
ROOT
HETATM    1  N   UNL     1     -41.287 -51.825  11.583  1.00  0.00    -0.342 N 
HETATM    2  C   UNL     1     -42.201 -52.204  12.540  1.00  0.00     0.320 C 
HETATM    3  O   UNL     1     -42.007 -52.019  13.734  1.00  0.00    -0.247 OA
HETATM    4  N   UNL     1     -43.297 -52.838  11.997  1.00  0.00    -0.309 N 
HETATM    5  H   UNL     1     -41.633 -51.649  10.651  1.00  0.00     0.164 HD
HETATM    6  H   UNL     1     -43.172 -53.224  11.074  1.00  0.00     0.170 HD
ENDROOT
BRANCH   1   7
HETATM    7  C   UNL     1     -40.068 -51.149  11.994  1.00  0.00     0.129 C 
BRANCH   7   8
HETATM    8  C   UNL     1     -39.847 -49.818  11.255  1.00  0.00     0.007 C 
HETATM    9  C   UNL     1     -38.672 -48.995  11.808  1.00  0.00     0.036 C 
HETATM   10  C   UNL     1     -38.978 -48.380  13.177  1.00  0.00     0.272 C 
HETATM   11  N   UNL     1     -40.211 -47.581  13.205  1.00  0.00     0.084 N 
HETATM   12  C   UNL     1     -40.054 -46.291  12.542  1.00  0.00     0.309 C 
HETATM   13  C   UNL     1     -41.356 -48.339  12.692  1.00  0.00     0.272 C 
HETATM   14  C   UNL     1     -41.126 -48.963  11.308  1.00  0.00     0.036 C 
ENDBRANCH   7   8
ENDBRANCH   1   7
BRANCH   4  15
HETATM   15  C   UNL     1     -44.418 -53.275  12.743  1.00  0.00     0.038 A 
HETATM   16  C   UNL     1     -44.528 -54.566  13.259  1.00  0.00     0.046 A 
HETATM   17  C   UNL     1     -45.679 -54.917  13.940  1.00  0.00     0.090 A 
HETATM   18  N   UNL     1     -46.708 -54.074  14.156  1.00  0.00    -0.375 N 
HETATM   19  C   UNL     1     -46.571 -52.823  13.671  1.00  0.00     0.090 A 
ATOM     20  HN  UNL     1     -47.545 -54.366  14.659  1.00  0.00     0.164 HD
HETATM   21  C   UNL     1     -45.456 -52.376  12.976  1.00  0.00     0.046 A 
ENDBRANCH   4  15
TORSDOF 3
ENDMDL
MODEL 4
REMARK VINA RESULT:      -5.7      1.856      2.760
REMARK  3 active torsions:
REMARK  status: ('A' for Active; 'I' for Inactive)
REMARK    1  A    between atoms: C_5  and  C_6 
REMARK    2  A    between atoms: C_6  and  N_7 
REMARK       I    between atoms: N_7  and  C_8 
REMARK       I    between atoms: C_8  and  N_10 
REMARK    3  A    between atoms: N_10  and  C_11 
ROOT
HETATM    1  N   UNL     1     -40.687 -49.384  10.637  1.00  0.00    -0.342 N 
HETATM    2  C   UNL     1     -41.747 -48.510  10.725  1.00  0.00     0.320 C 
HETATM    3  O   UNL     1     -42.130 -48.056  11.796  1.00  0.00    -0.247 OA
HETATM    4  N   UNL     1     -42.328 -48.264   9.500  1.00  0.00    -0.309 N 
HETATM    5  H   UNL     1     -40.188 -49.424   9.761  1.00  0.00     0.164 HD
HETATM    6  H   UNL     1     -42.147 -48.946   8.780  1.00  0.00     0.170 HD
ENDROOT
BRANCH   1   7
HETATM    7  C   UNL     1     -39.970 -49.753  11.846  1.00  0.00     0.129 C 
BRANCH   7   8
HETATM    8  C   UNL     1     -40.058 -51.257  12.155  1.00  0.00     0.007 C 
HETATM    9  C   UNL     1     -41.494 -51.807  12.134  1.00  0.00     0.036 C 
HETATM   10  C   UNL     1     -42.321 -51.338  13.335  1.00  0.00     0.272 C 
HETATM   11  N   UNL     1     -41.691 -51.619  14.633  1.00  0.00     0.084 N 
HETATM   12  C   UNL     1     -41.770 -53.030  14.995  1.00  0.00     0.309 C 
HETATM   13  C   UNL     1     -40.322 -51.101  14.692  1.00  0.00     0.272 C 
HETATM   14  C   UNL     1     -39.429 -51.554  13.528  1.00  0.00     0.036 C 
ENDBRANCH   7   8
ENDBRANCH   1   7
BRANCH   4  15
HETATM   15  C   UNL     1     -43.393 -47.356   9.289  1.00  0.00     0.038 A 
HETATM   16  C   UNL     1     -43.207 -45.977   9.202  1.00  0.00     0.046 A 
HETATM   17  C   UNL     1     -44.313 -45.162   9.038  1.00  0.00     0.090 A 
HETATM   18  N   UNL     1     -45.574 -45.625   8.936  1.00  0.00    -0.375 N 
HETATM   19  C   UNL     1     -45.731 -46.964   8.997  1.00  0.00     0.090 A 
ATOM     20  HN  UNL     1     -46.369 -44.997   8.819  1.00  0.00     0.164 HD
HETATM   21  C   UNL     1     -44.685 -47.862   9.161  1.00  0.00     0.046 A 
ENDBRANCH   4  15
TORSDOF 3
ENDMDL
MODEL 5
REMARK VINA RESULT:      -5.4      4.434      5.585
REMARK  3 active torsions:
REMARK  status: ('A' for Active; 'I' for Inactive)
REMARK    1  A    between atoms: C_5  and  C_6 
REMARK    2  A    between atoms: C_6  and  N_7 
REMARK       I    between atoms: N_7  and  C_8 
REMARK       I    between atoms: C_8  and  N_10 
REMARK    3  A    between atoms: N_10  and  C_11 
ROOT
HETATM    1  N   UNL     1     -42.038 -51.443  12.026  1.00  0.00    -0.342 N 
HETATM    2  C   UNL     1     -41.909 -50.080  12.166  1.00  0.00     0.320 C 
HETATM    3  O   UNL     1     -41.967 -49.529  13.258  1.00  0.00    -0.247 OA
HETATM    4  N   UNL     1     -41.761 -49.439  10.955  1.00  0.00    -0.309 N 
HETATM    5  H   UNL     1     -41.620 -51.870  11.213  1.00  0.00     0.164 HD
HETATM    6  H   UNL     1     -42.071 -49.952  10.143  1.00  0.00     0.170 HD
ENDROOT
BRANCH   1   7
HETATM    7  C   UNL     1     -42.209 -52.265  13.212  1.00  0.00     0.129 C 
BRANCH   7   8
HETATM    8  C   UNL     1     -43.058 -53.521  12.950  1.00  0.00     0.007 C 
HETATM    9  C   UNL     1     -44.479 -53.210  12.452  1.00  0.00     0.036 C 
HETATM   10  C   UNL     1     -45.373 -52.629  13.551  1.00  0.00     0.272 C 
HETATM   11  N   UNL     1     -45.432 -53.455  14.765  1.00  0.00     0.084 N 
HETATM   12  C   UNL     1     -46.249 -54.650  14.585  1.00  0.00     0.309 C 
HETATM   13  C   UNL     1     -44.093 -53.763  15.274  1.00  0.00     0.272 C 
HETATM   14  C   UNL     1     -43.150 -54.374  14.228  1.00  0.00     0.036 C 
ENDBRANCH   7   8
ENDBRANCH   1   7
BRANCH   4  15
HETATM   15  C   UNL     1     -41.545 -48.048  10.808  1.00  0.00     0.038 A 
HETATM   16  C   UNL     1     -40.355 -47.423  11.180  1.00  0.00     0.046 A 
HETATM   17  C   UNL     1     -40.248 -46.051  11.040  1.00  0.00     0.090 A 
HETATM   18  N   UNL     1     -41.229 -45.272  10.542  1.00  0.00    -0.375 N 
HETATM   19  C   UNL     1     -42.362 -45.899  10.165  1.00  0.00     0.090 A 
ATOM     20  HN  UNL     1     -41.120 -44.262  10.455  1.00  0.00     0.164 HD
HETATM   21  C   UNL     1     -42.564 -47.268  10.266  1.00  0.00     0.046 A 
ENDBRANCH   4  15
TORSDOF 3
ENDMDL
MODEL 6
REMARK VINA RESULT:      -5.3      3.955      5.626
REMARK  3 active torsions:
REMARK  status: ('A' for Active; 'I' for Inactive)
REMARK    1  A    between atoms: C_5  and  C_6 
REMARK    2  A    between atoms: C_6  and  N_7 
REMARK       I    between atoms: N_7  and  C_8 
REMARK       I    between atoms: C_8  and  N_10 
REMARK    3  A    between atoms: N_10  and  C_11 
ROOT
HETATM    1  N   UNL     1     -40.732 -51.192  11.340  1.00  0.00    -0.342 N 
HETATM    2  C   UNL     1     -41.709 -51.610  12.215  1.00  0.00     0.320 C 
HETATM    3  O   UNL     1     -42.277 -50.836  12.975  1.00  0.00    -0.247 OA
HETATM    4  N   UNL     1     -41.918 -52.970  12.158  1.00  0.00    -0.309 N 
HETATM    5  H   UNL     1     -40.578 -51.750  10.512  1.00  0.00     0.164 HD
HETATM    6  H   UNL     1     -41.169 -53.517  11.760  1.00  0.00     0.170 HD
ENDROOT
BRANCH   1   7
HETATM    7  C   UNL     1     -40.387 -49.782  11.282  1.00  0.00     0.129 C 
BRANCH   7   8
HETATM    8  C   UNL     1     -38.916 -49.513  11.644  1.00  0.00     0.007 C 
HETATM    9  C   UNL     1     -38.249 -50.669  12.407  1.00  0.00     0.036 C 
HETATM   10  C   UNL     1     -38.757 -50.794  13.847  1.00  0.00     0.272 C 
HETATM   11  N   UNL     1     -38.652 -49.549  14.621  1.00  0.00     0.084 N 
HETATM   12  C   UNL     1     -37.279 -49.256  15.018  1.00  0.00     0.309 C 
HETATM   13  C   UNL     1     -39.286 -48.425  13.926  1.00  0.00     0.272 C 
HETATM   14  C   UNL     1     -38.803 -48.227  12.483  1.00  0.00     0.036 C 
ENDBRANCH   7   8
ENDBRANCH   1   7
BRANCH   4  15
HETATM   15  C   UNL     1     -42.906 -53.658  12.903  1.00  0.00     0.038 A 
HETATM   16  C   UNL     1     -44.249 -53.694  12.528  1.00  0.00     0.046 A 
HETATM   17  C   UNL     1     -45.152 -54.356  13.340  1.00  0.00     0.090 A 
HETATM   18  N   UNL     1     -44.809 -54.993  14.476  1.00  0.00    -0.375 N 
HETATM   19  C   UNL     1     -43.502 -54.968  14.808  1.00  0.00     0.090 A 
ATOM     20  HN  UNL     1     -45.500 -55.469  15.055  1.00  0.00     0.164 HD
HETATM   21  C   UNL     1     -42.521 -54.332  14.060  1.00  0.00     0.046 A 
ENDBRANCH   4  15
TORSDOF 3
ENDMDL
MODEL 7
REMARK VINA RESULT:      -5.1      4.040      6.041
REMARK  3 active torsions:
REMARK  status: ('A' for Active; 'I' for Inactive)
REMARK    1  A    between atoms: C_5  and  C_6 
REMARK    2  A    between atoms: C_6  and  N_7 
REMARK       I    between atoms: N_7  and  C_8 
REMARK       I    between atoms: C_8  and  N_10 
REMARK    3  A    between atoms: N_10  and  C_11 
ROOT
HETATM    1  N   UNL     1     -41.718 -49.679  11.318  1.00  0.00    -0.342 N 
HETATM    2  C   UNL     1     -42.277 -50.473  12.294  1.00  0.00     0.320 C 
HETATM    3  O   UNL     1     -42.705 -50.011  13.344  1.00  0.00    -0.247 OA
HETATM    4  N   UNL     1     -42.245 -51.811  11.964  1.00  0.00    -0.309 N 
HETATM    5  H   UNL     1     -41.735 -50.024  10.370  1.00  0.00     0.164 HD
HETATM    6  H   UNL     1     -41.575 -52.076  11.258  1.00  0.00     0.170 HD
ENDROOT
BRANCH   1   7
HETATM    7  C   UNL     1     -41.668 -48.240  11.518  1.00  0.00     0.129 C 
BRANCH   7   8
HETATM    8  C   UNL     1     -40.230 -47.695  11.563  1.00  0.00     0.007 C 
HETATM    9  C   UNL     1     -39.657 -47.590  12.986  1.00  0.00     0.036 C 
HETATM   10  C   UNL     1     -40.295 -46.456  13.795  1.00  0.00     0.272 C 
HETATM   11  N   UNL     1     -40.234 -45.148  13.128  1.00  0.00     0.084 N 
HETATM   12  C   UNL     1     -38.897 -44.565  13.165  1.00  0.00     0.309 C 
HETATM   13  C   UNL     1     -40.782 -45.208  11.770  1.00  0.00     0.272 C 
HETATM   14  C   UNL     1     -40.167 -46.310  10.895  1.00  0.00     0.036 C 
ENDBRANCH   7   8
ENDBRANCH   1   7
BRANCH   4  15
HETATM   15  C   UNL     1     -42.807 -52.842  12.754  1.00  0.00     0.038 A 
HETATM   16  C   UNL     1     -42.116 -53.460  13.796  1.00  0.00     0.046 A 
HETATM   17  C   UNL     1     -42.730 -54.489  14.487  1.00  0.00     0.090 A 
HETATM   18  N   UNL     1     -43.978 -54.925  14.225  1.00  0.00    -0.375 N 
HETATM   19  C   UNL     1     -44.639 -54.298  13.231  1.00  0.00     0.090 A 
ATOM     20  HN  UNL     1     -44.401 -55.690  14.752  1.00  0.00     0.164 HD
HETATM   21  C   UNL     1     -44.109 -53.257  12.481  1.00  0.00     0.046 A 
ENDBRANCH   4  15
TORSDOF 3
ENDMDL
MODEL 8
REMARK VINA RESULT:      -4.9      4.082      4.736
REMARK  3 active torsions:
REMARK  status: ('A' for Active; 'I' for Inactive)
REMARK    1  A    between atoms: C_5  and  C_6 
REMARK    2  A    between atoms: C_6  and  N_7 
REMARK       I    between atoms: N_7  and  C_8 
REMARK       I    between atoms: C_8  and  N_10 
REMARK    3  A    between atoms: N_10  and  C_11 
ROOT
HETATM    1  N   UNL     1     -41.829 -49.948  11.715  1.00  0.00    -0.342 N 
HETATM    2  C   UNL     1     -42.549 -50.820  12.501  1.00  0.00     0.320 C 
HETATM    3  O   UNL     1     -42.062 -51.854  12.941  1.00  0.00    -0.247 OA
HETATM    4  N   UNL     1     -43.853 -50.414  12.677  1.00  0.00    -0.309 N 
HETATM    5  H   UNL     1     -42.123 -48.983  11.701  1.00  0.00     0.164 HD
HETATM    6  H   UNL     1     -44.207 -49.756  11.998  1.00  0.00     0.170 HD
ENDROOT
BRANCH   1   7
HETATM    7  C   UNL     1     -40.434 -50.238  11.428  1.00  0.00     0.129 C 
BRANCH   7   8
HETATM    8  C   UNL     1     -39.479 -49.156  11.959  1.00  0.00     0.007 C 
HETATM    9  C   UNL     1     -37.998 -49.566  11.912  1.00  0.00     0.036 C 
HETATM   10  C   UNL     1     -37.649 -50.628  12.959  1.00  0.00     0.272 C 
HETATM   11  N   UNL     1     -38.027 -50.255  14.329  1.00  0.00     0.084 N 
HETATM   12  C   UNL     1     -37.136 -49.249  14.898  1.00  0.00     0.309 C 
HETATM   13  C   UNL     1     -39.437 -49.866  14.413  1.00  0.00     0.272 C 
HETATM   14  C   UNL     1     -39.850 -48.784  13.406  1.00  0.00     0.036 C 
ENDBRANCH   7   8
ENDBRANCH   1   7
BRANCH   4  15
HETATM   15  C   UNL     1     -44.797 -51.086  13.489  1.00  0.00     0.038 A 
HETATM   16  C   UNL     1     -45.711 -52.010  12.983  1.00  0.00     0.046 A 
HETATM   17  C   UNL     1     -46.626 -52.587  13.845  1.00  0.00     0.090 A 
HETATM   18  N   UNL     1     -46.677 -52.324  15.166  1.00  0.00    -0.375 N 
HETATM   19  C   UNL     1     -45.768 -51.448  15.641  1.00  0.00     0.090 A 
ATOM     20  HN  UNL     1     -47.366 -52.765  15.775  1.00  0.00     0.164 HD
HETATM   21  C   UNL     1     -44.812 -50.817  14.856  1.00  0.00     0.046 A 
ENDBRANCH   4  15
TORSDOF 3
ENDMDL
MODEL 9
REMARK VINA RESULT:      -4.9      4.823      6.113
REMARK  3 active torsions:
REMARK  status: ('A' for Active; 'I' for Inactive)
REMARK    1  A    between atoms: C_5  and  C_6 
REMARK    2  A    between atoms: C_6  and  N_7 
REMARK       I    between atoms: N_7  and  C_8 
REMARK       I    between atoms: C_8  and  N_10 
REMARK    3  A    between atoms: N_10  and  C_11 
ROOT
HETATM    1  N   UNL     1     -40.766 -52.245  13.900  1.00  0.00    -0.342 N 
HETATM    2  C   UNL     1     -42.067 -52.513  13.539  1.00  0.00     0.320 C 
HETATM    3  O   UNL     1     -42.498 -52.260  12.421  1.00  0.00    -0.247 OA
HETATM    4  N   UNL     1     -42.804 -53.037  14.579  1.00  0.00    -0.309 N 
HETATM    5  H   UNL     1     -40.369 -52.792  14.650  1.00  0.00     0.164 HD
HETATM    6  H   UNL     1     -42.440 -52.872  15.505  1.00  0.00     0.170 HD
ENDROOT
BRANCH   1   7
HETATM    7  C   UNL     1     -39.859 -51.681  12.916  1.00  0.00     0.129 C 
BRANCH   7   8
HETATM    8  C   UNL     1     -38.508 -51.262  13.521  1.00  0.00     0.007 C 
HETATM    9  C   UNL     1     -38.631 -50.617  14.911  1.00  0.00     0.036 C 
HETATM   10  C   UNL     1     -39.234 -49.210  14.855  1.00  0.00     0.272 C 
HETATM   11  N   UNL     1     -38.534 -48.302  13.936  1.00  0.00     0.084 N 
HETATM   12  C   UNL     1     -37.255 -47.847  14.470  1.00  0.00     0.309 C 
HETATM   13  C   UNL     1     -38.407 -48.882  12.596  1.00  0.00     0.272 C 
HETATM   14  C   UNL     1     -37.784 -50.285  12.577  1.00  0.00     0.036 C 
ENDBRANCH   7   8
ENDBRANCH   1   7
BRANCH   4  15
HETATM   15  C   UNL     1     -44.149 -53.463  14.470  1.00  0.00     0.038 A 
HETATM   16  C   UNL     1     -45.231 -52.645  14.794  1.00  0.00     0.046 A 
HETATM   17  C   UNL     1     -46.511 -53.160  14.698  1.00  0.00     0.090 A 
HETATM   18  N   UNL     1     -46.784 -54.414  14.286  1.00  0.00    -0.375 N 
HETATM   19  C   UNL     1     -45.725 -55.181  13.952  1.00  0.00     0.090 A 
ATOM     20  HN  UNL     1     -47.740 -54.764  14.228  1.00  0.00     0.164 HD
HETATM   21  C   UNL     1     -44.406 -54.755  14.016  1.00  0.00     0.046 A 
ENDBRANCH   4  15
TORSDOF 3
ENDMDL
