MODEL 1
REMARK VINA RESULT:      -5.9      0.000      0.000
REMARK  7 active torsions:
REMARK  status: ('A' for Active; 'I' for Inactive)
REMARK    1  A    between atoms: C_2  and  C_3 
REMARK    2  A    between atoms: C_2  and  N_10 
REMARK    3  A    between atoms: C_3  and  N_4 
REMARK    4  A    between atoms: N_10  and  C_11 
REMARK    5  A    between atoms: C_11  and  C_13 
REMARK       I    between atoms: C_13  and  N_15 
REMARK    6  A    between atoms: N_15  and  C_16 
REMARK    7  A    between atoms: C_16  and  C_17 
ROOT
HETATM    1  N   UNL     1     -40.865 -47.524  10.633  1.00  0.00     0.102 N 
HETATM    2  H   UNL     1     -41.299 -48.064   9.879  1.00  0.00     0.317 HD
ENDROOT
BRANCH   1   3
HETATM    3  C   UNL     1     -40.877 -48.312  11.877  1.00  0.00     0.237 C 
HETATM    4  C   UNL     1     -42.254 -48.271  12.555  1.00  0.00     0.044 C 
BRANCH   3   5
HETATM    5  C   UNL     1     -40.523 -49.795  11.600  1.00  0.00     0.183 C 
BRANCH   5   6
HETATM    6  N   UNL     1     -39.124 -50.134  11.789  1.00  0.00    -0.302 N 
HETATM    7  C   UNL     1     -38.586 -50.823  12.840  1.00  0.00     0.111 A 
HETATM    8  C   UNL     1     -37.269 -51.040  12.521  1.00  0.00     0.037 A 
HETATM    9  C   UNL     1     -37.108 -50.461  11.252  1.00  0.00     0.108 A 
HETATM   10  N   UNL     1     -38.238 -49.913  10.794  1.00  0.00    -0.310 N 
ATOM     11  HN  UNL     1     -38.393 -49.440   9.904  1.00  0.00     0.186 HD
ENDBRANCH   5   6
ENDBRANCH   3   5
ENDBRANCH   1   3
BRANCH   1  12
HETATM   12  C   UNL     1     -41.502 -46.187  10.688  1.00  0.00     0.308 C 
HETATM   13  C   UNL     1     -40.529 -45.047  10.396  1.00  0.00     0.053 C 
BRANCH  12  14
HETATM   14  C   UNL     1     -42.635 -46.147   9.639  1.00  0.00     0.251 C 
HETATM   15  O   UNL     1     -43.194 -45.110   9.296  1.00  0.00    -0.271 OA
HETATM   16  N   UNL     1     -42.923 -47.374   9.078  1.00  0.00    -0.351 N 
HETATM   17  H   UNL     1     -42.575 -48.176   9.606  1.00  0.00     0.162 HD
BRANCH  16  18
HETATM   18  C   UNL     1     -44.047 -47.534   8.162  1.00  0.00     0.240 C 
BRANCH  18  19
HETATM   19  C   UNL     1     -45.433 -47.667   8.807  1.00  0.00     0.403 C 
HETATM   20  F   UNL     1     -46.229 -48.546   8.155  1.00  0.00    -0.169 F 
HETATM   21  F   UNL     1     -45.352 -48.059  10.098  1.00  0.00    -0.169 F 
HETATM   22  F   UNL     1     -46.071 -46.469   8.795  1.00  0.00    -0.169 F 
ENDBRANCH  18  19
ENDBRANCH  16  18
ENDBRANCH  12  14
ENDBRANCH   1  12
TORSDOF 7
ENDMDL
MODEL 2
REMARK VINA RESULT:      -5.8      1.867      2.231
REMARK  7 active torsions:
REMARK  status: ('A' for Active; 'I' for Inactive)
REMARK    1  A    between atoms: C_2  and  C_3 
REMARK    2  A    between atoms: C_2  and  N_10 
REMARK    3  A    between atoms: C_3  and  N_4 
REMARK    4  A    between atoms: N_10  and  C_11 
REMARK    5  A    between atoms: C_11  and  C_13 
REMARK       I    between atoms: C_13  and  N_15 
REMARK    6  A    between atoms: N_15  and  C_16 
REMARK    7  A    between atoms: C_16  and  C_17 
ROOT
HETATM    1  N   UNL     1     -40.637 -47.740  10.621  1.00  0.00     0.102 N 
HETATM    2  H   UNL     1     -41.192 -48.221   9.908  1.00  0.00     0.317 HD
ENDROOT
BRANCH   1   3
HETATM    3  C   UNL     1     -40.618 -48.540  11.857  1.00  0.00     0.237 C 
HETATM    4  C   UNL     1     -40.629 -47.646  13.105  1.00  0.00     0.044 C 
BRANCH   3   5
HETATM    5  C   UNL     1     -41.848 -49.480  11.931  1.00  0.00     0.183 C 
BRANCH   5   6
HETATM    6  N   UNL     1     -41.547 -50.849  12.311  1.00  0.00    -0.302 N 
HETATM    7  C   UNL     1     -41.884 -51.462  13.485  1.00  0.00     0.111 A 
HETATM    8  C   UNL     1     -41.535 -52.782  13.341  1.00  0.00     0.037 A 
HETATM    9  C   UNL     1     -41.010 -52.873  12.042  1.00  0.00     0.108 A 
HETATM   10  N   UNL     1     -41.022 -51.700  11.403  1.00  0.00    -0.310 N 
ATOM     11  HN  UNL     1     -40.708 -51.495  10.454  1.00  0.00     0.186 HD
ENDBRANCH   5   6
ENDBRANCH   3   5
ENDBRANCH   1   3
BRANCH   1  12
HETATM   12  C   UNL     1     -41.122 -46.344  10.740  1.00  0.00     0.308 C 
HETATM   13  C   UNL     1     -40.061 -45.308  10.375  1.00  0.00     0.053 C 
BRANCH  12  14
HETATM   14  C   UNL     1     -42.328 -46.169   9.792  1.00  0.00     0.251 C 
HETATM   15  O   UNL     1     -42.898 -45.095   9.624  1.00  0.00    -0.271 OA
HETATM   16  N   UNL     1     -42.672 -47.314   9.103  1.00  0.00    -0.351 N 
HETATM   17  H   UNL     1     -42.296 -48.177   9.499  1.00  0.00     0.162 HD
BRANCH  16  18
HETATM   18  C   UNL     1     -43.862 -47.353   8.260  1.00  0.00     0.240 C 
BRANCH  18  19
HETATM   19  C   UNL     1     -45.201 -47.539   8.988  1.00  0.00     0.403 C 
HETATM   20  F   UNL     1     -45.045 -47.944  10.269  1.00  0.00    -0.169 F 
HETATM   21  F   UNL     1     -45.931 -46.402   8.998  1.00  0.00    -0.169 F 
HETATM   22  F   UNL     1     -45.946 -48.485   8.360  1.00  0.00    -0.169 F 
ENDBRANCH  18  19
ENDBRANCH  16  18
ENDBRANCH  12  14
ENDBRANCH   1  12
TORSDOF 7
ENDMDL
MODEL 3
REMARK VINA RESULT:      -5.7      5.029      6.812
REMARK  7 active torsions:
REMARK  status: ('A' for Active; 'I' for Inactive)
REMARK    1  A    between atoms: C_2  and  C_3 
REMARK    2  A    between atoms: C_2  and  N_10 
REMARK    3  A    between atoms: C_3  and  N_4 
REMARK    4  A    between atoms: N_10  and  C_11 
REMARK    5  A    between atoms: C_11  and  C_13 
REMARK       I    between atoms: C_13  and  N_15 
REMARK    6  A    between atoms: N_15  and  C_16 
REMARK    7  A    between atoms: C_16  and  C_17 
ROOT
HETATM    1  N   UNL     1     -42.048 -53.163  14.381  1.00  0.00     0.102 N 
HETATM    2  H   UNL     1     -42.681 -52.368  14.258  1.00  0.00     0.317 HD
ENDROOT
BRANCH   1   3
HETATM    3  C   UNL     1     -40.798 -52.920  13.642  1.00  0.00     0.237 C 
HETATM    4  C   UNL     1     -39.869 -54.140  13.692  1.00  0.00     0.044 C 
BRANCH   3   5
HETATM    5  C   UNL     1     -41.085 -52.598  12.153  1.00  0.00     0.183 C 
BRANCH   5   6
HETATM    6  N   UNL     1     -41.298 -51.191  11.863  1.00  0.00    -0.302 N 
HETATM    7  C   UNL     1     -42.199 -50.361  12.469  1.00  0.00     0.111 A 
HETATM    8  C   UNL     1     -41.941 -49.101  11.988  1.00  0.00     0.037 A 
HETATM    9  C   UNL     1     -40.857 -49.268  11.111  1.00  0.00     0.108 A 
HETATM   10  N   UNL     1     -40.453 -50.539  11.035  1.00  0.00    -0.310 N 
ATOM     11  HN  UNL     1     -39.687 -50.925  10.483  1.00  0.00     0.186 HD
ENDBRANCH   5   6
ENDBRANCH   3   5
ENDBRANCH   1   3
BRANCH   1  12
HETATM   12  C   UNL     1     -42.781 -54.410  14.056  1.00  0.00     0.308 C 
HETATM   13  C   UNL     1     -42.949 -55.336  15.259  1.00  0.00     0.053 C 
BRANCH  12  14
HETATM   14  C   UNL     1     -44.181 -54.025  13.531  1.00  0.00     0.251 C 
HETATM   15  O   UNL     1     -44.508 -54.138  12.353  1.00  0.00    -0.271 OA
HETATM   16  N   UNL     1     -45.052 -53.600  14.513  1.00  0.00    -0.351 N 
HETATM   17  H   UNL     1     -44.603 -53.321  15.387  1.00  0.00     0.162 HD
BRANCH  16  18
HETATM   18  C   UNL     1     -46.373 -53.083  14.171  1.00  0.00     0.240 C 
BRANCH  18  19
HETATM   19  C   UNL     1     -46.460 -51.576  13.895  1.00  0.00     0.403 C 
HETATM   20  F   UNL     1     -45.269 -50.951  14.037  1.00  0.00    -0.169 F 
HETATM   21  F   UNL     1     -46.918 -51.318  12.650  1.00  0.00    -0.169 F 
HETATM   22  F   UNL     1     -47.322 -50.991  14.766  1.00  0.00    -0.169 F 
ENDBRANCH  18  19
ENDBRANCH  16  18
ENDBRANCH  12  14
ENDBRANCH   1  12
TORSDOF 7
ENDMDL
MODEL 4
REMARK VINA RESULT:      -5.7      3.910      5.935
REMARK  7 active torsions:
REMARK  status: ('A' for Active; 'I' for Inactive)
REMARK    1  A    between atoms: C_2  and  C_3 
REMARK    2  A    between atoms: C_2  and  N_10 
REMARK    3  A    between atoms: C_3  and  N_4 
REMARK    4  A    between atoms: N_10  and  C_11 
REMARK    5  A    between atoms: C_11  and  C_13 
REMARK       I    between atoms: C_13  and  N_15 
REMARK    6  A    between atoms: N_15  and  C_16 
REMARK    7  A    between atoms: C_16  and  C_17 
ROOT
HETATM    1  N   UNL     1     -41.074 -52.049  11.488  1.00  0.00     0.102 N 
HETATM    2  H   UNL     1     -40.301 -52.552  11.044  1.00  0.00     0.317 HD
ENDROOT
BRANCH   1   3
HETATM    3  C   UNL     1     -40.554 -50.865  12.192  1.00  0.00     0.237 C 
HETATM    4  C   UNL     1     -39.196 -51.151  12.848  1.00  0.00     0.044 C 
BRANCH   3   5
HETATM    5  C   UNL     1     -40.374 -49.673  11.218  1.00  0.00     0.183 C 
BRANCH   5   6
HETATM    6  N   UNL     1     -41.585 -48.919  10.945  1.00  0.00    -0.302 N 
HETATM    7  C   UNL     1     -42.534 -48.544  11.854  1.00  0.00     0.111 A 
HETATM    8  C   UNL     1     -43.407 -47.726  11.180  1.00  0.00     0.037 A 
HETATM    9  C   UNL     1     -42.894 -47.653   9.875  1.00  0.00     0.108 A 
HETATM   10  N   UNL     1     -41.777 -48.372   9.725  1.00  0.00    -0.310 N 
ATOM     11  HN  UNL     1     -41.206 -48.481   8.887  1.00  0.00     0.186 HD
ENDBRANCH   5   6
ENDBRANCH   3   5
ENDBRANCH   1   3
BRANCH   1  12
HETATM   12  C   UNL     1     -41.864 -53.008  12.296  1.00  0.00     0.308 C 
HETATM   13  C   UNL     1     -40.996 -53.953  13.124  1.00  0.00     0.053 C 
BRANCH  12  14
HETATM   14  C   UNL     1     -42.768 -52.203  13.255  1.00  0.00     0.251 C 
HETATM   15  O   UNL     1     -42.488 -52.009  14.435  1.00  0.00    -0.271 OA
HETATM   16  N   UNL     1     -43.889 -51.668  12.654  1.00  0.00    -0.351 N 
HETATM   17  H   UNL     1     -44.133 -52.093  11.757  1.00  0.00     0.162 HD
BRANCH  16  18
HETATM   18  C   UNL     1     -44.909 -50.985  13.442  1.00  0.00     0.240 C 
BRANCH  18  19
HETATM   19  C   UNL     1     -46.323 -51.578  13.380  1.00  0.00     0.403 C 
HETATM   20  F   UNL     1     -46.330 -52.924  13.518  1.00  0.00    -0.169 F 
HETATM   21  F   UNL     1     -47.129 -51.060  14.333  1.00  0.00    -0.169 F 
HETATM   22  F   UNL     1     -46.895 -51.299  12.181  1.00  0.00    -0.169 F 
ENDBRANCH  18  19
ENDBRANCH  16  18
ENDBRANCH  12  14
ENDBRANCH   1  12
TORSDOF 7
ENDMDL
MODEL 5
REMARK VINA RESULT:      -5.5      3.315      4.681
REMARK  7 active torsions:
REMARK  status: ('A' for Active; 'I' for Inactive)
REMARK    1  A    between atoms: C_2  and  C_3 
REMARK    2  A    between atoms: C_2  and  N_10 
REMARK    3  A    between atoms: C_3  and  N_4 
REMARK    4  A    between atoms: N_10  and  C_11 
REMARK    5  A    between atoms: C_11  and  C_13 
REMARK       I    between atoms: C_13  and  N_15 
REMARK    6  A    between atoms: N_15  and  C_16 
REMARK    7  A    between atoms: C_16  and  C_17 
ROOT
HETATM    1  N   UNL     1     -43.220 -49.189  12.100  1.00  0.00     0.102 N 
HETATM    2  H   UNL     1     -44.145 -48.779  12.253  1.00  0.00     0.317 HD
ENDROOT
BRANCH   1   3
HETATM    3  C   UNL     1     -42.718 -49.762  13.360  1.00  0.00     0.237 C 
HETATM    4  C   UNL     1     -43.220 -48.972  14.577  1.00  0.00     0.044 C 
BRANCH   3   5
HETATM    5  C   UNL     1     -43.175 -51.234  13.524  1.00  0.00     0.183 C 
BRANCH   5   6
HETATM    6  N   UNL     1     -44.610 -51.418  13.643  1.00  0.00    -0.302 N 
HETATM    7  C   UNL     1     -45.365 -51.237  14.768  1.00  0.00     0.111 A 
HETATM    8  C   UNL     1     -46.674 -51.371  14.377  1.00  0.00     0.037 A 
HETATM    9  C   UNL     1     -46.610 -51.616  12.996  1.00  0.00     0.108 A 
HETATM   10  N   UNL     1     -45.355 -51.638  12.538  1.00  0.00    -0.310 N 
ATOM     11  HN  UNL     1     -45.036 -51.786  11.581  1.00  0.00     0.186 HD
ENDBRANCH   5   6
ENDBRANCH   3   5
ENDBRANCH   1   3
BRANCH   1  12
HETATM   12  C   UNL     1     -42.356 -48.184  11.437  1.00  0.00     0.308 C 
HETATM   13  C   UNL     1     -41.058 -48.774  10.893  1.00  0.00     0.053 C 
BRANCH  12  14
HETATM   14  C   UNL     1     -43.147 -47.566  10.263  1.00  0.00     0.251 C 
HETATM   15  O   UNL     1     -42.689 -46.690   9.535  1.00  0.00    -0.271 OA
HETATM   16  N   UNL     1     -44.392 -48.127  10.067  1.00  0.00    -0.351 N 
HETATM   17  H   UNL     1     -44.749 -48.657  10.864  1.00  0.00     0.162 HD
BRANCH  16  18
HETATM   18  C   UNL     1     -45.316 -47.578   9.081  1.00  0.00     0.240 C 
BRANCH  18  19
HETATM   19  C   UNL     1     -46.634 -48.339   8.890  1.00  0.00     0.403 C 
HETATM   20  F   UNL     1     -46.796 -49.335   9.791  1.00  0.00    -0.169 F 
HETATM   21  F   UNL     1     -47.706 -47.521   8.980  1.00  0.00    -0.169 F 
HETATM   22  F   UNL     1     -46.671 -48.909   7.658  1.00  0.00    -0.169 F 
ENDBRANCH  18  19
ENDBRANCH  16  18
ENDBRANCH  12  14
ENDBRANCH   1  12
TORSDOF 7
ENDMDL
MODEL 6
REMARK VINA RESULT:      -5.5      2.199      2.674
REMARK  7 active torsions:
REMARK  status: ('A' for Active; 'I' for Inactive)
REMARK    1  A    between atoms: C_2  and  C_3 
REMARK    2  A    between atoms: C_2  and  N_10 
REMARK    3  A    between atoms: C_3  and  N_4 
REMARK    4  A    between atoms: N_10  and  C_11 
REMARK    5  A    between atoms: C_11  and  C_13 
REMARK       I    between atoms: C_13  and  N_15 
REMARK    6  A    between atoms: N_15  and  C_16 
REMARK    7  A    between atoms: C_16  and  C_17 
ROOT
HETATM    1  N   UNL     1     -41.722 -49.773  11.339  1.00  0.00     0.102 N 
HETATM    2  H   UNL     1     -42.556 -49.816  10.748  1.00  0.00     0.317 HD
ENDROOT
BRANCH   1   3
HETATM    3  C   UNL     1     -41.879 -50.681  12.487  1.00  0.00     0.237 C 
HETATM    4  C   UNL     1     -43.288 -50.586  13.090  1.00  0.00     0.044 C 
BRANCH   3   5
HETATM    5  C   UNL     1     -41.635 -52.154  12.070  1.00  0.00     0.183 C 
BRANCH   5   6
HETATM    6  N   UNL     1     -40.615 -52.844  12.840  1.00  0.00    -0.302 N 
HETATM    7  C   UNL     1     -39.744 -52.281  13.729  1.00  0.00     0.111 A 
HETATM    8  C   UNL     1     -39.078 -53.324  14.325  1.00  0.00     0.037 A 
HETATM    9  C   UNL     1     -39.627 -54.477  13.743  1.00  0.00     0.108 A 
HETATM   10  N   UNL     1     -40.572 -54.195  12.842  1.00  0.00    -0.310 N 
ATOM     11  HN  UNL     1     -41.128 -54.845  12.286  1.00  0.00     0.186 HD
ENDBRANCH   5   6
ENDBRANCH   3   5
ENDBRANCH   1   3
BRANCH   1  12
HETATM   12  C   UNL     1     -41.432 -48.353  11.650  1.00  0.00     0.308 C 
HETATM   13  C   UNL     1     -39.943 -48.020  11.597  1.00  0.00     0.053 C 
BRANCH  12  14
HETATM   14  C   UNL     1     -42.171 -47.472  10.620  1.00  0.00     0.251 C 
HETATM   15  O   UNL     1     -42.216 -46.247  10.696  1.00  0.00    -0.271 OA
HETATM   16  N   UNL     1     -42.726 -48.178   9.572  1.00  0.00    -0.351 N 
HETATM   17  H   UNL     1     -42.833 -49.179   9.744  1.00  0.00     0.162 HD
BRANCH  16  18
HETATM   18  C   UNL     1     -43.562 -47.512   8.579  1.00  0.00     0.240 C 
BRANCH  18  19
HETATM   19  C   UNL     1     -45.072 -47.510   8.857  1.00  0.00     0.403 C 
HETATM   20  F   UNL     1     -45.761 -48.294   7.996  1.00  0.00    -0.169 F 
HETATM   21  F   UNL     1     -45.353 -47.924  10.112  1.00  0.00    -0.169 F 
HETATM   22  F   UNL     1     -45.568 -46.252   8.732  1.00  0.00    -0.169 F 
ENDBRANCH  18  19
ENDBRANCH  16  18
ENDBRANCH  12  14
ENDBRANCH   1  12
TORSDOF 7
ENDMDL
MODEL 7
REMARK VINA RESULT:      -5.4      2.309      3.118
REMARK  7 active torsions:
REMARK  status: ('A' for Active; 'I' for Inactive)
REMARK    1  A    between atoms: C_2  and  C_3 
REMARK    2  A    between atoms: C_2  and  N_10 
REMARK    3  A    between atoms: C_3  and  N_4 
REMARK    4  A    between atoms: N_10  and  C_11 
REMARK    5  A    between atoms: C_11  and  C_13 
REMARK       I    between atoms: C_13  and  N_15 
REMARK    6  A    between atoms: N_15  and  C_16 
REMARK    7  A    between atoms: C_16  and  C_17 
ROOT
HETATM    1  N   UNL     1     -40.560 -49.330  10.585  1.00  0.00     0.102 N 
HETATM    2  H   UNL     1     -41.208 -49.592   9.838  1.00  0.00     0.317 HD
ENDROOT
BRANCH   1   3
HETATM    3  C   UNL     1     -40.332 -50.483  11.472  1.00  0.00     0.237 C 
HETATM    4  C   UNL     1     -38.940 -50.430  12.117  1.00  0.00     0.044 C 
BRANCH   3   5
HETATM    5  C   UNL     1     -41.385 -50.530  12.608  1.00  0.00     0.183 C 
BRANCH   5   6
HETATM    6  N   UNL     1     -41.940 -51.845  12.871  1.00  0.00    -0.302 N 
HETATM    7  C   UNL     1     -43.250 -52.218  12.745  1.00  0.00     0.111 A 
HETATM    8  C   UNL     1     -43.282 -53.575  12.946  1.00  0.00     0.037 A 
HETATM    9  C   UNL     1     -41.943 -53.936  13.169  1.00  0.00     0.108 A 
HETATM   10  N   UNL     1     -41.117 -52.887  13.116  1.00  0.00    -0.310 N 
ATOM     11  HN  UNL     1     -40.104 -52.877  13.234  1.00  0.00     0.186 HD
ENDBRANCH   5   6
ENDBRANCH   3   5
ENDBRANCH   1   3
BRANCH   1  12
HETATM   12  C   UNL     1     -41.051 -48.086  11.226  1.00  0.00     0.308 C 
HETATM   13  C   UNL     1     -39.924 -47.166  11.690  1.00  0.00     0.053 C 
BRANCH  12  14
HETATM   14  C   UNL     1     -41.918 -47.324  10.201  1.00  0.00     0.251 C 
HETATM   15  O   UNL     1     -41.941 -46.099  10.122  1.00  0.00    -0.271 OA
HETATM   16  N   UNL     1     -42.620 -48.143   9.340  1.00  0.00    -0.351 N 
HETATM   17  H   UNL     1     -42.711 -49.111   9.654  1.00  0.00     0.162 HD
BRANCH  16  18
HETATM   18  C   UNL     1     -43.581 -47.587   8.393  1.00  0.00     0.240 C 
BRANCH  18  19
HETATM   19  C   UNL     1     -45.038 -47.516   8.870  1.00  0.00     0.403 C 
HETATM   20  F   UNL     1     -45.862 -48.309   8.146  1.00  0.00    -0.169 F 
HETATM   21  F   UNL     1     -45.161 -47.866  10.169  1.00  0.00    -0.169 F 
HETATM   22  F   UNL     1     -45.506 -46.247   8.753  1.00  0.00    -0.169 F 
ENDBRANCH  18  19
ENDBRANCH  16  18
ENDBRANCH  12  14
ENDBRANCH   1  12
TORSDOF 7
ENDMDL
MODEL 8
REMARK VINA RESULT:      -5.4      4.878      6.799
REMARK  7 active torsions:
REMARK  status: ('A' for Active; 'I' for Inactive)
REMARK    1  A    between atoms: C_2  and  C_3 
REMARK    2  A    between atoms: C_2  and  N_10 
REMARK    3  A    between atoms: C_3  and  N_4 
REMARK    4  A    between atoms: N_10  and  C_11 
REMARK    5  A    between atoms: C_11  and  C_13 
REMARK       I    between atoms: C_13  and  N_15 
REMARK    6  A    between atoms: N_15  and  C_16 
REMARK    7  A    between atoms: C_16  and  C_17 
ROOT
HETATM    1  N   UNL     1     -40.813 -51.346  13.620  1.00  0.00     0.102 N 
HETATM    2  H   UNL     1     -41.583 -51.020  14.210  1.00  0.00     0.317 HD
ENDROOT
BRANCH   1   3
HETATM    3  C   UNL     1     -40.168 -50.195  12.966  1.00  0.00     0.237 C 
HETATM    4  C   UNL     1     -38.639 -50.268  13.081  1.00  0.00     0.044 C 
BRANCH   3   5
HETATM    5  C   UNL     1     -40.532 -50.133  11.461  1.00  0.00     0.183 C 
BRANCH   5   6
HETATM    6  N   UNL     1     -41.551 -49.156  11.120  1.00  0.00    -0.302 N 
HETATM    7  C   UNL     1     -42.489 -48.628  11.962  1.00  0.00     0.111 A 
HETATM    8  C   UNL     1     -43.129 -47.643  11.252  1.00  0.00     0.037 A 
HETATM    9  C   UNL     1     -42.499 -47.639   9.998  1.00  0.00     0.108 A 
HETATM   10  N   UNL     1     -41.529 -48.553   9.911  1.00  0.00    -0.310 N 
ATOM     11  HN  UNL     1     -40.917 -48.750   9.119  1.00  0.00     0.186 HD
ENDBRANCH   5   6
ENDBRANCH   3   5
ENDBRANCH   1   3
BRANCH   1  12
HETATM   12  C   UNL     1     -41.318 -52.418  12.729  1.00  0.00     0.308 C 
HETATM   13  C   UNL     1     -40.673 -53.776  13.001  1.00  0.00     0.053 C 
BRANCH  12  14
HETATM   14  C   UNL     1     -42.842 -52.546  12.942  1.00  0.00     0.251 C 
HETATM   15  O   UNL     1     -43.527 -51.651  13.429  1.00  0.00    -0.271 OA
HETATM   16  N   UNL     1     -43.376 -53.731  12.480  1.00  0.00    -0.351 N 
HETATM   17  H   UNL     1     -42.692 -54.474  12.327  1.00  0.00     0.162 HD
BRANCH  16  18
HETATM   18  C   UNL     1     -44.778 -54.063  12.713  1.00  0.00     0.240 C 
BRANCH  18  19
HETATM   19  C   UNL     1     -45.073 -54.923  13.950  1.00  0.00     0.403 C 
HETATM   20  F   UNL     1     -45.661 -54.219  14.945  1.00  0.00    -0.169 F 
HETATM   21  F   UNL     1     -45.874 -55.971  13.655  1.00  0.00    -0.169 F 
HETATM   22  F   UNL     1     -43.919 -55.432  14.452  1.00  0.00    -0.169 F 
ENDBRANCH  18  19
ENDBRANCH  16  18
ENDBRANCH  12  14
ENDBRANCH   1  12
TORSDOF 7
ENDMDL
MODEL 9
REMARK VINA RESULT:      -5.4      3.155      3.805
REMARK  7 active torsions:
REMARK  status: ('A' for Active; 'I' for Inactive)
REMARK    1  A    between atoms: C_2  and  C_3 
REMARK    2  A    between atoms: C_2  and  N_10 
REMARK    3  A    between atoms: C_3  and  N_4 
REMARK    4  A    between atoms: N_10  and  C_11 
REMARK    5  A    between atoms: C_11  and  C_13 
REMARK       I    between atoms: C_13  and  N_15 
REMARK    6  A    between atoms: N_15  and  C_16 
REMARK    7  A    between atoms: C_16  and  C_17 
ROOT
HETATM    1  N   UNL     1     -42.242 -49.849  11.671  1.00  0.00     0.102 N 
HETATM    2  H   UNL     1     -42.787 -50.150  10.859  1.00  0.00     0.317 HD
ENDROOT
BRANCH   1   3
HETATM    3  C   UNL     1     -42.485 -50.766  12.798  1.00  0.00     0.237 C 
HETATM    4  C   UNL     1     -43.874 -50.545  13.413  1.00  0.00     0.044 C 
BRANCH   3   5
HETATM    5  C   UNL     1     -42.393 -52.245  12.342  1.00  0.00     0.183 C 
BRANCH   5   6
HETATM    6  N   UNL     1     -42.185 -53.201  13.415  1.00  0.00    -0.302 N 
HETATM    7  C   UNL     1     -41.231 -53.136  14.392  1.00  0.00     0.111 A 
HETATM    8  C   UNL     1     -41.508 -54.158  15.265  1.00  0.00     0.037 A 
HETATM    9  C   UNL     1     -42.655 -54.775  14.742  1.00  0.00     0.108 A 
HETATM   10  N   UNL     1     -43.080 -54.192  13.617  1.00  0.00    -0.310 N 
ATOM     11  HN  UNL     1     -43.889 -54.438  13.047  1.00  0.00     0.186 HD
ENDBRANCH   5   6
ENDBRANCH   3   5
ENDBRANCH   1   3
BRANCH   1  12
HETATM   12  C   UNL     1     -42.506 -48.412  11.916  1.00  0.00     0.308 C 
HETATM   13  C   UNL     1     -41.254 -47.630  12.304  1.00  0.00     0.053 C 
BRANCH  12  14
HETATM   14  C   UNL     1     -43.088 -47.800  10.623  1.00  0.00     0.251 C 
HETATM   15  O   UNL     1     -42.415 -47.153   9.826  1.00  0.00    -0.271 OA
HETATM   16  N   UNL     1     -44.419 -48.095  10.412  1.00  0.00    -0.351 N 
HETATM   17  H   UNL     1     -44.919 -48.421  11.241  1.00  0.00     0.162 HD
BRANCH  16  18
HETATM   18  C   UNL     1     -45.154 -47.495   9.303  1.00  0.00     0.240 C 
BRANCH  18  19
HETATM   19  C   UNL     1     -46.460 -48.191   8.900  1.00  0.00     0.403 C 
HETATM   20  F   UNL     1     -47.535 -47.373   8.987  1.00  0.00    -0.169 F 
HETATM   21  F   UNL     1     -46.406 -48.672   7.639  1.00  0.00    -0.169 F 
HETATM   22  F   UNL     1     -46.699 -49.247   9.719  1.00  0.00    -0.169 F 
ENDBRANCH  18  19
ENDBRANCH  16  18
ENDBRANCH  12  14
ENDBRANCH   1  12
TORSDOF 7
ENDMDL
