MODEL 1
REMARK VINA RESULT:      -7.3      0.000      0.000
REMARK  5 active torsions:
REMARK  status: ('A' for Active; 'I' for Inactive)
REMARK    1  A    between atoms: C_7  and  N_8 
REMARK       I    between atoms: N_8  and  C_9 
REMARK       I    between atoms: C_9  and  N_11 
REMARK       I    between atoms: N_11  and  C_12 
REMARK    2  A    between atoms: C_12  and  C_14 
REMARK    3  A    between atoms: C_14  and  N_15 
REMARK    4  A    between atoms: C_22  and  C_23 
REMARK    5  A    between atoms: C_23  and  N_24 
ROOT
HETATM    1  N   UNL     1     -42.696 -52.271  13.375  1.00  0.00    -0.338 N 
HETATM    2  C   UNL     1     -41.559 -52.498  12.656  1.00  0.00     0.323 C 
HETATM    3  O   UNL     1     -41.055 -53.604  12.484  1.00  0.00    -0.247 OA
HETATM    4  N   UNL     1     -40.965 -51.381  12.121  1.00  0.00    -0.278 N 
HETATM    5  C   UNL     1     -41.487 -50.100  12.031  1.00  0.00     0.245 C 
HETATM    6  O   UNL     1     -42.608 -49.793  12.439  1.00  0.00    -0.271 OA
HETATM    7  H   UNL     1     -43.089 -51.333  13.310  1.00  0.00     0.164 HD
HETATM    8  H   UNL     1     -40.092 -51.565  11.643  1.00  0.00     0.173 HD
ENDROOT
BRANCH   5   9
HETATM    9  C   UNL     1     -40.634 -49.141  11.221  1.00  0.00     0.255 C 
BRANCH   9  10
HETATM   10  N   UNL     1     -41.440 -48.076  10.634  1.00  0.00    -0.247 N 
HETATM   11  N   UNL     1     -42.244 -48.395   9.569  1.00  0.00    -0.299 N 
HETATM   12  C   UNL     1     -43.033 -47.477   9.097  1.00  0.00     0.029 A 
ATOM     13  HN  UNL     1     -42.223 -49.328   9.159  1.00  0.00     0.187 HD
HETATM   14  C   UNL     1     -43.904 -47.859   7.923  1.00  0.00     0.070 C 
HETATM   15  C   UNL     1     -43.137 -46.092   9.641  1.00  0.00    -0.013 A 
HETATM   16  C   UNL     1     -44.090 -45.084   9.066  1.00  0.00     0.052 C 
HETATM   17  C   UNL     1     -42.313 -45.819  10.665  1.00  0.00     0.103 A 
HETATM   18  C   UNL     1     -41.355 -46.807  11.190  1.00  0.00     0.282 A 
HETATM   19  O   UNL     1     -40.556 -46.505  12.071  1.00  0.00    -0.265 OA
BRANCH  17  20
HETATM   20  C   UNL     1     -42.310 -44.439  11.303  1.00  0.00    -0.031 C 
BRANCH  20  21
HETATM   21  N   UNL     1     -42.307 -43.295  11.832  1.00  0.00    -0.365 N 
ATOM     22  HN2 UNL     1     -42.298 -44.220  11.403  1.00  0.00     0.165 HD
ATOM     23  HN1 UNL     1     -42.306 -42.370  12.261  1.00  0.00     0.165 HD
ENDBRANCH  20  21
ENDBRANCH  17  20
ENDBRANCH   9  10
ENDBRANCH   5   9
BRANCH   1  24
HETATM   24  C   UNL     1     -43.500 -53.320  13.971  1.00  0.00     0.089 C 
HETATM   25  C   UNL     1     -44.595 -53.856  13.018  1.00  0.00     0.004 C 
HETATM   26  C   UNL     1     -45.561 -52.773  12.516  1.00  0.00     0.012 C 
HETATM   27  C   UNL     1     -45.364 -54.990  13.721  1.00  0.00     0.006 C 
HETATM   28  C   UNL     1     -45.937 -54.572  15.076  1.00  0.00     0.001 C 
HETATM   29  C   UNL     1     -44.875 -53.964  15.989  1.00  0.00     0.002 C 
HETATM   30  C   UNL     1     -44.090 -52.847  15.305  1.00  0.00     0.026 C 
ENDBRANCH   1  24
TORSDOF 5
ENDMDL
MODEL 2
REMARK VINA RESULT:      -7.0      2.629      8.144
REMARK  5 active torsions:
REMARK  status: ('A' for Active; 'I' for Inactive)
REMARK    1  A    between atoms: C_7  and  N_8 
REMARK       I    between atoms: N_8  and  C_9 
REMARK       I    between atoms: C_9  and  N_11 
REMARK       I    between atoms: N_11  and  C_12 
REMARK    2  A    between atoms: C_12  and  C_14 
REMARK    3  A    between atoms: C_14  and  N_15 
REMARK    4  A    between atoms: C_22  and  C_23 
REMARK    5  A    between atoms: C_23  and  N_24 
ROOT
HETATM    1  N   UNL     1     -39.869 -48.475  11.861  1.00  0.00    -0.338 N 
HETATM    2  C   UNL     1     -38.962 -49.485  11.723  1.00  0.00     0.323 C 
HETATM    3  O   UNL     1     -37.745 -49.330  11.718  1.00  0.00    -0.247 OA
HETATM    4  N   UNL     1     -39.497 -50.741  11.564  1.00  0.00    -0.278 N 
HETATM    5  C   UNL     1     -40.812 -51.135  11.750  1.00  0.00     0.245 C 
HETATM    6  O   UNL     1     -41.710 -50.367  12.101  1.00  0.00    -0.271 OA
HETATM    7  H   UNL     1     -40.838 -48.756  12.003  1.00  0.00     0.164 HD
HETATM    8  H   UNL     1     -38.809 -51.466  11.404  1.00  0.00     0.173 HD
ENDROOT
BRANCH   5   9
HETATM    9  C   UNL     1     -41.026 -52.636  11.662  1.00  0.00     0.255 C 
BRANCH   9  10
HETATM   10  N   UNL     1     -42.126 -53.069  12.516  1.00  0.00    -0.247 N 
HETATM   11  N   UNL     1     -43.397 -52.697  12.161  1.00  0.00    -0.299 N 
HETATM   12  C   UNL     1     -44.391 -53.151  12.863  1.00  0.00     0.029 A 
ATOM     13  HN  UNL     1     -43.558 -52.079  11.365  1.00  0.00     0.187 HD
HETATM   14  C   UNL     1     -45.778 -52.722  12.446  1.00  0.00     0.070 C 
HETATM   15  C   UNL     1     -44.249 -54.067  14.032  1.00  0.00    -0.013 A 
HETATM   16  C   UNL     1     -45.442 -54.578  14.787  1.00  0.00     0.052 C 
HETATM   17  C   UNL     1     -42.985 -54.381  14.359  1.00  0.00     0.103 A 
HETATM   18  C   UNL     1     -41.825 -53.837  13.632  1.00  0.00     0.282 A 
HETATM   19  O   UNL     1     -40.680 -54.075  14.004  1.00  0.00    -0.265 OA
BRANCH  17  20
HETATM   20  C   UNL     1     -42.701 -55.296  15.540  1.00  0.00    -0.031 C 
BRANCH  20  21
HETATM   21  N   UNL     1     -42.465 -56.054  16.519  1.00  0.00    -0.365 N 
ATOM     22  HN2 UNL     1     -42.667 -55.441  15.728  1.00  0.00     0.165 HD
ATOM     23  HN1 UNL     1     -42.275 -56.667  17.311  1.00  0.00     0.165 HD
ENDBRANCH  20  21
ENDBRANCH  17  20
ENDBRANCH   9  10
ENDBRANCH   5   9
BRANCH   1  24
HETATM   24  C   UNL     1     -39.508 -47.090  12.096  1.00  0.00     0.089 C 
HETATM   25  C   UNL     1     -39.846 -46.612  13.528  1.00  0.00     0.004 C 
HETATM   26  C   UNL     1     -41.330 -46.763  13.895  1.00  0.00     0.012 C 
HETATM   27  C   UNL     1     -39.389 -45.151  13.693  1.00  0.00     0.006 C 
HETATM   28  C   UNL     1     -39.968 -44.220  12.626  1.00  0.00     0.001 C 
HETATM   29  C   UNL     1     -39.709 -44.733  11.211  1.00  0.00     0.002 C 
HETATM   30  C   UNL     1     -40.141 -46.186  11.031  1.00  0.00     0.026 C 
ENDBRANCH   1  24
TORSDOF 5
ENDMDL
MODEL 3
REMARK VINA RESULT:      -6.8      2.233      8.369
REMARK  5 active torsions:
REMARK  status: ('A' for Active; 'I' for Inactive)
REMARK    1  A    between atoms: C_7  and  N_8 
REMARK       I    between atoms: N_8  and  C_9 
REMARK       I    between atoms: C_9  and  N_11 
REMARK       I    between atoms: N_11  and  C_12 
REMARK    2  A    between atoms: C_12  and  C_14 
REMARK    3  A    between atoms: C_14  and  N_15 
REMARK    4  A    between atoms: C_22  and  C_23 
REMARK    5  A    between atoms: C_23  and  N_24 
ROOT
HETATM    1  N   UNL     1     -41.551 -45.704  11.828  1.00  0.00    -0.338 N 
HETATM    2  C   UNL     1     -41.453 -46.203  10.562  1.00  0.00     0.323 C 
HETATM    3  O   UNL     1     -41.599 -45.538   9.541  1.00  0.00    -0.247 OA
HETATM    4  N   UNL     1     -41.187 -47.548  10.476  1.00  0.00    -0.278 N 
HETATM    5  C   UNL     1     -40.790 -48.403  11.491  1.00  0.00     0.245 C 
HETATM    6  O   UNL     1     -40.615 -48.041  12.655  1.00  0.00    -0.271 OA
HETATM    7  H   UNL     1     -41.256 -46.325  12.580  1.00  0.00     0.164 HD
HETATM    8  H   UNL     1     -41.177 -47.907   9.529  1.00  0.00     0.173 HD
ENDROOT
BRANCH   5   9
HETATM    9  C   UNL     1     -40.409 -49.793  11.014  1.00  0.00     0.255 C 
BRANCH   9  10
HETATM   10  N   UNL     1     -40.921 -50.823  11.910  1.00  0.00    -0.247 N 
HETATM   11  N   UNL     1     -42.276 -50.872  12.121  1.00  0.00    -0.299 N 
HETATM   12  C   UNL     1     -42.752 -51.840  12.846  1.00  0.00     0.029 A 
ATOM     13  HN  UNL     1     -42.893 -50.167  11.719  1.00  0.00     0.187 HD
HETATM   14  C   UNL     1     -44.247 -51.864  13.060  1.00  0.00     0.070 C 
HETATM   15  C   UNL     1     -41.925 -52.919  13.461  1.00  0.00    -0.013 A 
HETATM   16  C   UNL     1     -42.541 -54.026  14.267  1.00  0.00     0.052 C 
HETATM   17  C   UNL     1     -40.603 -52.814  13.250  1.00  0.00     0.103 A 
HETATM   18  C   UNL     1     -40.013 -51.697  12.491  1.00  0.00     0.282 A 
HETATM   19  O   UNL     1     -38.796 -51.582  12.383  1.00  0.00    -0.265 OA
BRANCH  17  20
HETATM   20  C   UNL     1     -39.648 -53.842  13.833  1.00  0.00    -0.031 C 
BRANCH  20  21
HETATM   21  N   UNL     1     -38.855 -54.694  14.317  1.00  0.00    -0.365 N 
ATOM     22  HN2 UNL     1     -39.490 -53.996  13.930  1.00  0.00     0.165 HD
ATOM     23  HN1 UNL     1     -38.214 -55.384  14.709  1.00  0.00     0.165 HD
ENDBRANCH  20  21
ENDBRANCH  17  20
ENDBRANCH   9  10
ENDBRANCH   5   9
BRANCH   1  24
HETATM   24  C   UNL     1     -41.770 -44.303  12.131  1.00  0.00     0.089 C 
HETATM   25  C   UNL     1     -40.469 -43.466  12.091  1.00  0.00     0.004 C 
HETATM   26  C   UNL     1     -39.379 -43.973  13.047  1.00  0.00     0.012 C 
HETATM   27  C   UNL     1     -40.808 -41.993  12.382  1.00  0.00     0.006 C 
HETATM   28  C   UNL     1     -41.571 -41.804  13.694  1.00  0.00     0.001 C 
HETATM   29  C   UNL     1     -42.810 -42.692  13.774  1.00  0.00     0.002 C 
HETATM   30  C   UNL     1     -42.499 -44.155  13.473  1.00  0.00     0.026 C 
ENDBRANCH   1  24
TORSDOF 5
ENDMDL
MODEL 4
REMARK VINA RESULT:      -6.6      2.562      8.340
REMARK  5 active torsions:
REMARK  status: ('A' for Active; 'I' for Inactive)
REMARK    1  A    between atoms: C_7  and  N_8 
REMARK       I    between atoms: N_8  and  C_9 
REMARK       I    between atoms: C_9  and  N_11 
REMARK       I    between atoms: N_11  and  C_12 
REMARK    2  A    between atoms: C_12  and  C_14 
REMARK    3  A    between atoms: C_14  and  N_15 
REMARK    4  A    between atoms: C_22  and  C_23 
REMARK    5  A    between atoms: C_23  and  N_24 
ROOT
HETATM    1  N   UNL     1     -40.285 -48.698  11.867  1.00  0.00    -0.338 N 
HETATM    2  C   UNL     1     -39.566 -49.826  11.599  1.00  0.00     0.323 C 
HETATM    3  O   UNL     1     -38.367 -49.839  11.340  1.00  0.00    -0.247 OA
HETATM    4  N   UNL     1     -40.280 -50.999  11.615  1.00  0.00    -0.278 N 
HETATM    5  C   UNL     1     -41.568 -51.204  12.083  1.00  0.00     0.245 C 
HETATM    6  O   UNL     1     -42.266 -50.313  12.569  1.00  0.00    -0.271 OA
HETATM    7  H   UNL     1     -41.232 -48.839  12.216  1.00  0.00     0.164 HD
HETATM    8  H   UNL     1     -39.741 -51.815  11.356  1.00  0.00     0.173 HD
ENDROOT
BRANCH   5   9
HETATM    9  C   UNL     1     -41.989 -52.663  12.115  1.00  0.00     0.255 C 
BRANCH   9  10
HETATM   10  N   UNL     1     -42.648 -53.000  13.373  1.00  0.00    -0.247 N 
HETATM   11  N   UNL     1     -42.041 -52.608  14.538  1.00  0.00    -0.299 N 
HETATM   12  C   UNL     1     -42.662 -52.823  15.659  1.00  0.00     0.029 A 
ATOM     13  HN  UNL     1     -41.124 -52.160  14.526  1.00  0.00     0.187 HD
HETATM   14  C   UNL     1     -41.966 -52.382  16.925  1.00  0.00     0.070 C 
HETATM   15  C   UNL     1     -44.007 -53.460  15.769  1.00  0.00    -0.013 A 
HETATM   16  C   UNL     1     -44.684 -53.656  17.094  1.00  0.00     0.052 C 
HETATM   17  C   UNL     1     -44.550 -53.850  14.605  1.00  0.00     0.103 A 
HETATM   18  C   UNL     1     -43.852 -53.687  13.317  1.00  0.00     0.282 A 
HETATM   19  O   UNL     1     -44.335 -54.127  12.278  1.00  0.00    -0.265 OA
BRANCH  17  20
HETATM   20  C   UNL     1     -45.911 -54.525  14.578  1.00  0.00    -0.031 C 
BRANCH  20  21
HETATM   21  N   UNL     1     -47.041 -55.084  14.557  1.00  0.00    -0.365 N 
ATOM     22  HN2 UNL     1     -46.122 -54.641  14.575  1.00  0.00     0.165 HD
ATOM     23  HN1 UNL     1     -47.954 -55.537  14.539  1.00  0.00     0.165 HD
ENDBRANCH  20  21
ENDBRANCH  17  20
ENDBRANCH   9  10
ENDBRANCH   5   9
BRANCH   1  24
HETATM   24  C   UNL     1     -39.707 -47.370  11.953  1.00  0.00     0.089 C 
HETATM   25  C   UNL     1     -39.764 -46.779  13.381  1.00  0.00     0.004 C 
HETATM   26  C   UNL     1     -41.184 -46.694  13.959  1.00  0.00     0.012 C 
HETATM   27  C   UNL     1     -39.091 -45.394  13.381  1.00  0.00     0.006 C 
HETATM   28  C   UNL     1     -39.686 -44.442  12.342  1.00  0.00     0.001 C 
HETATM   29  C   UNL     1     -39.710 -45.055  10.944  1.00  0.00     0.002 C 
HETATM   30  C   UNL     1     -40.359 -46.436  10.926  1.00  0.00     0.026 C 
ENDBRANCH   1  24
TORSDOF 5
ENDMDL
MODEL 5
REMARK VINA RESULT:      -6.6      2.340      3.290
REMARK  5 active torsions:
REMARK  status: ('A' for Active; 'I' for Inactive)
REMARK    1  A    between atoms: C_7  and  N_8 
REMARK       I    between atoms: N_8  and  C_9 
REMARK       I    between atoms: C_9  and  N_11 
REMARK       I    between atoms: N_11  and  C_12 
REMARK    2  A    between atoms: C_12  and  C_14 
REMARK    3  A    between atoms: C_14  and  N_15 
REMARK    4  A    between atoms: C_22  and  C_23 
REMARK    5  A    between atoms: C_23  and  N_24 
ROOT
HETATM    1  N   UNL     1     -42.478 -52.649  13.328  1.00  0.00    -0.338 N 
HETATM    2  C   UNL     1     -41.296 -53.022  12.757  1.00  0.00     0.323 C 
HETATM    3  O   UNL     1     -40.856 -54.167  12.757  1.00  0.00    -0.247 OA
HETATM    4  N   UNL     1     -40.579 -52.009  12.168  1.00  0.00    -0.278 N 
HETATM    5  C   UNL     1     -41.001 -50.719  11.888  1.00  0.00     0.245 C 
HETATM    6  O   UNL     1     -42.132 -50.302  12.145  1.00  0.00    -0.271 OA
HETATM    7  H   UNL     1     -42.798 -51.704  13.123  1.00  0.00     0.164 HD
HETATM    8  H   UNL     1     -39.680 -52.297  11.803  1.00  0.00     0.173 HD
ENDROOT
BRANCH   5   9
HETATM    9  C   UNL     1     -40.011 -49.909  11.070  1.00  0.00     0.255 C 
BRANCH   9  10
HETATM   10  N   UNL     1     -39.731 -48.621  11.696  1.00  0.00    -0.247 N 
HETATM   11  N   UNL     1     -40.142 -47.488  11.041  1.00  0.00    -0.299 N 
HETATM   12  C   UNL     1     -39.979 -46.342  11.631  1.00  0.00     0.029 A 
ATOM     13  HN  UNL     1     -40.566 -47.545  10.115  1.00  0.00     0.187 HD
HETATM   14  C   UNL     1     -40.441 -45.114  10.882  1.00  0.00     0.070 C 
HETATM   15  C   UNL     1     -39.381 -46.169  12.986  1.00  0.00    -0.013 A 
HETATM   16  C   UNL     1     -39.243 -44.816  13.624  1.00  0.00     0.052 C 
HETATM   17  C   UNL     1     -38.969 -47.302  13.577  1.00  0.00     0.103 A 
HETATM   18  C   UNL     1     -39.074 -48.616  12.918  1.00  0.00     0.282 A 
HETATM   19  O   UNL     1     -38.615 -49.624  13.446  1.00  0.00    -0.265 OA
BRANCH  17  20
HETATM   20  C   UNL     1     -38.330 -47.263  14.955  1.00  0.00    -0.031 C 
BRANCH  20  21
HETATM   21  N   UNL     1     -37.799 -47.230  16.098  1.00  0.00    -0.365 N 
ATOM     22  HN2 UNL     1     -38.238 -47.253  15.178  1.00  0.00     0.165 HD
ATOM     23  HN1 UNL     1     -37.370 -47.203  17.023  1.00  0.00     0.165 HD
ENDBRANCH  20  21
ENDBRANCH  17  20
ENDBRANCH   9  10
ENDBRANCH   5   9
BRANCH   1  24
HETATM   24  C   UNL     1     -43.405 -53.575  13.948  1.00  0.00     0.089 C 
HETATM   25  C   UNL     1     -44.532 -54.032  12.992  1.00  0.00     0.004 C 
HETATM   26  C   UNL     1     -45.363 -52.874  12.418  1.00  0.00     0.012 C 
HETATM   27  C   UNL     1     -45.436 -55.042  13.724  1.00  0.00     0.006 C 
HETATM   28  C   UNL     1     -45.988 -54.501  15.044  1.00  0.00     0.001 C 
HETATM   29  C   UNL     1     -44.885 -53.971  15.956  1.00  0.00     0.002 C 
HETATM   30  C   UNL     1     -43.968 -52.980  15.245  1.00  0.00     0.026 C 
ENDBRANCH   1  24
TORSDOF 5
ENDMDL
MODEL 6
REMARK VINA RESULT:      -6.5      1.807      2.890
REMARK  5 active torsions:
REMARK  status: ('A' for Active; 'I' for Inactive)
REMARK    1  A    between atoms: C_7  and  N_8 
REMARK       I    between atoms: N_8  and  C_9 
REMARK       I    between atoms: C_9  and  N_11 
REMARK       I    between atoms: N_11  and  C_12 
REMARK    2  A    between atoms: C_12  and  C_14 
REMARK    3  A    between atoms: C_14  and  N_15 
REMARK    4  A    between atoms: C_22  and  C_23 
REMARK    5  A    between atoms: C_23  and  N_24 
ROOT
HETATM    1  N   UNL     1     -42.967 -51.508  13.032  1.00  0.00    -0.338 N 
HETATM    2  C   UNL     1     -41.947 -51.637  12.135  1.00  0.00     0.323 C 
HETATM    3  O   UNL     1     -41.392 -52.697  11.863  1.00  0.00    -0.247 OA
HETATM    4  N   UNL     1     -41.538 -50.471  11.535  1.00  0.00    -0.278 N 
HETATM    5  C   UNL     1     -42.168 -49.237  11.555  1.00  0.00     0.245 C 
HETATM    6  O   UNL     1     -43.229 -49.025  12.144  1.00  0.00    -0.271 OA
HETATM    7  H   UNL     1     -43.439 -50.606  13.050  1.00  0.00     0.164 HD
HETATM    8  H   UNL     1     -40.742 -50.581  10.919  1.00  0.00     0.173 HD
ENDROOT
BRANCH   5   9
HETATM    9  C   UNL     1     -41.536 -48.206  10.638  1.00  0.00     0.255 C 
BRANCH   9  10
HETATM   10  N   UNL     1     -41.056 -47.049  11.387  1.00  0.00    -0.247 N 
HETATM   11  N   UNL     1     -40.305 -47.282  12.511  1.00  0.00    -0.299 N 
HETATM   12  C   UNL     1     -39.798 -46.261  13.135  1.00  0.00     0.029 A 
ATOM     13  HN  UNL     1     -40.150 -48.232  12.849  1.00  0.00     0.187 HD
HETATM   14  C   UNL     1     -38.978 -46.551  14.370  1.00  0.00     0.070 C 
HETATM   15  C   UNL     1     -39.964 -44.842  12.706  1.00  0.00    -0.013 A 
HETATM   16  C   UNL     1     -39.329 -43.708  13.457  1.00  0.00     0.052 C 
HETATM   17  C   UNL     1     -40.728 -44.662  11.616  1.00  0.00     0.103 A 
HETATM   18  C   UNL     1     -41.378 -45.784  10.916  1.00  0.00     0.282 A 
HETATM   19  O   UNL     1     -42.137 -45.584   9.973  1.00  0.00    -0.265 OA
BRANCH  17  20
HETATM   20  C   UNL     1     -40.988 -43.264  11.082  1.00  0.00    -0.031 C 
BRANCH  20  21
HETATM   21  N   UNL     1     -41.205 -42.104  10.638  1.00  0.00    -0.365 N 
ATOM     22  HN2 UNL     1     -41.039 -43.042  11.004  1.00  0.00     0.165 HD
ATOM     23  HN1 UNL     1     -41.379 -41.165  10.279  1.00  0.00     0.165 HD
ENDBRANCH  20  21
ENDBRANCH  17  20
ENDBRANCH   9  10
ENDBRANCH   5   9
BRANCH   1  24
HETATM   24  C   UNL     1     -43.579 -52.624  13.728  1.00  0.00     0.089 C 
HETATM   25  C   UNL     1     -44.708 -53.298  12.913  1.00  0.00     0.004 C 
HETATM   26  C   UNL     1     -45.838 -52.339  12.511  1.00  0.00     0.012 C 
HETATM   27  C   UNL     1     -45.263 -54.492  13.712  1.00  0.00     0.006 C 
HETATM   28  C   UNL     1     -45.724 -54.106  15.119  1.00  0.00     0.001 C 
HETATM   29  C   UNL     1     -44.640 -53.364  15.897  1.00  0.00     0.002 C 
HETATM   30  C   UNL     1     -44.065 -52.186  15.116  1.00  0.00     0.026 C 
ENDBRANCH   1  24
TORSDOF 5
ENDMDL
MODEL 7
REMARK VINA RESULT:      -6.4      1.831      8.247
REMARK  5 active torsions:
REMARK  status: ('A' for Active; 'I' for Inactive)
REMARK    1  A    between atoms: C_7  and  N_8 
REMARK       I    between atoms: N_8  and  C_9 
REMARK       I    between atoms: C_9  and  N_11 
REMARK       I    between atoms: N_11  and  C_12 
REMARK    2  A    between atoms: C_12  and  C_14 
REMARK    3  A    between atoms: C_14  and  N_15 
REMARK    4  A    between atoms: C_22  and  C_23 
REMARK    5  A    between atoms: C_23  and  N_24 
ROOT
HETATM    1  N   UNL     1     -42.044 -46.909  11.796  1.00  0.00    -0.338 N 
HETATM    2  C   UNL     1     -42.246 -47.732  10.727  1.00  0.00     0.323 C 
HETATM    3  O   UNL     1     -42.516 -47.345   9.594  1.00  0.00    -0.247 OA
HETATM    4  N   UNL     1     -42.148 -49.076  10.990  1.00  0.00    -0.278 N 
HETATM    5  C   UNL     1     -41.656 -49.686  12.133  1.00  0.00     0.245 C 
HETATM    6  O   UNL     1     -41.221 -49.063  13.103  1.00  0.00    -0.271 OA
HETATM    7  H   UNL     1     -41.677 -47.348  12.639  1.00  0.00     0.164 HD
HETATM    8  H   UNL     1     -42.360 -49.669  10.197  1.00  0.00     0.173 HD
ENDROOT
BRANCH   5   9
HETATM    9  C   UNL     1     -41.526 -51.195  12.021  1.00  0.00     0.255 C 
BRANCH   9  10
HETATM   10  N   UNL     1     -42.552 -51.877  12.803  1.00  0.00    -0.247 N 
HETATM   11  N   UNL     1     -43.851 -51.462  12.655  1.00  0.00    -0.299 N 
HETATM   12  C   UNL     1     -44.782 -52.121  13.277  1.00  0.00     0.029 A 
ATOM     13  HN  UNL     1     -44.079 -50.658  12.071  1.00  0.00     0.187 HD
HETATM   14  C   UNL     1     -46.202 -51.638  13.095  1.00  0.00     0.070 C 
HETATM   15  C   UNL     1     -44.539 -53.313  14.140  1.00  0.00    -0.013 A 
HETATM   16  C   UNL     1     -45.664 -54.047  14.811  1.00  0.00     0.052 C 
HETATM   17  C   UNL     1     -43.251 -53.666  14.276  1.00  0.00     0.103 A 
HETATM   18  C   UNL     1     -42.156 -52.908  13.643  1.00  0.00     0.282 A 
HETATM   19  O   UNL     1     -40.983 -53.203  13.851  1.00  0.00    -0.265 OA
BRANCH  17  20
HETATM   20  C   UNL     1     -42.866 -54.856  15.139  1.00  0.00    -0.031 C 
BRANCH  20  21
HETATM   21  N   UNL     1     -42.546 -55.843  15.855  1.00  0.00    -0.365 N 
ATOM     22  HN2 UNL     1     -42.800 -55.037  15.283  1.00  0.00     0.165 HD
ATOM     23  HN1 UNL     1     -42.287 -56.641  16.434  1.00  0.00     0.165 HD
ENDBRANCH  20  21
ENDBRANCH  17  20
ENDBRANCH   9  10
ENDBRANCH   5   9
BRANCH   1  24
HETATM   24  C   UNL     1     -42.048 -45.460  11.715  1.00  0.00     0.089 C 
HETATM   25  C   UNL     1     -40.659 -44.871  11.370  1.00  0.00     0.004 C 
HETATM   26  C   UNL     1     -39.556 -45.268  12.363  1.00  0.00     0.012 C 
HETATM   27  C   UNL     1     -40.774 -43.339  11.264  1.00  0.00     0.006 C 
HETATM   28  C   UNL     1     -41.374 -42.698  12.517  1.00  0.00     0.001 C 
HETATM   29  C   UNL     1     -42.705 -43.335  12.909  1.00  0.00     0.002 C 
HETATM   30  C   UNL     1     -42.617 -44.856  13.004  1.00  0.00     0.026 C 
ENDBRANCH   1  24
TORSDOF 5
ENDMDL
MODEL 8
REMARK VINA RESULT:      -6.2      2.479      3.868
REMARK  5 active torsions:
REMARK  status: ('A' for Active; 'I' for Inactive)
REMARK    1  A    between atoms: C_7  and  N_8 
REMARK       I    between atoms: N_8  and  C_9 
REMARK       I    between atoms: C_9  and  N_11 
REMARK       I    between atoms: N_11  and  C_12 
REMARK    2  A    between atoms: C_12  and  C_14 
REMARK    3  A    between atoms: C_14  and  N_15 
REMARK    4  A    between atoms: C_22  and  C_23 
REMARK    5  A    between atoms: C_23  and  N_24 
ROOT
HETATM    1  N   UNL     1     -44.510 -52.717  14.526  1.00  0.00    -0.338 N 
HETATM    2  C   UNL     1     -44.645 -52.856  13.175  1.00  0.00     0.323 C 
HETATM    3  O   UNL     1     -45.694 -53.145  12.609  1.00  0.00    -0.247 OA
HETATM    4  N   UNL     1     -43.498 -52.666  12.444  1.00  0.00    -0.278 N 
HETATM    5  C   UNL     1     -42.291 -52.139  12.876  1.00  0.00     0.245 C 
HETATM    6  O   UNL     1     -42.091 -51.755  14.029  1.00  0.00    -0.271 OA
HETATM    7  H   UNL     1     -43.627 -52.326  14.852  1.00  0.00     0.164 HD
HETATM    8  H   UNL     1     -43.608 -52.832  11.452  1.00  0.00     0.173 HD
ENDROOT
BRANCH   5   9
HETATM    9  C   UNL     1     -41.286 -51.904  11.763  1.00  0.00     0.255 C 
BRANCH   9  10
HETATM   10  N   UNL     1     -40.848 -50.513  11.725  1.00  0.00    -0.247 N 
HETATM   11  N   UNL     1     -41.574 -49.634  10.963  1.00  0.00    -0.299 N 
HETATM   12  C   UNL     1     -41.247 -48.377  10.993  1.00  0.00     0.029 A 
ATOM     13  HN  UNL     1     -42.350 -49.959  10.387  1.00  0.00     0.187 HD
HETATM   14  C   UNL     1     -42.065 -47.435  10.141  1.00  0.00     0.070 C 
HETATM   15  C   UNL     1     -40.136 -47.814  11.814  1.00  0.00    -0.013 A 
HETATM   16  C   UNL     1     -39.826 -46.345  11.825  1.00  0.00     0.052 C 
HETATM   17  C   UNL     1     -39.438 -48.715  12.523  1.00  0.00     0.103 A 
HETATM   18  C   UNL     1     -39.730 -50.159  12.467  1.00  0.00     0.282 A 
HETATM   19  O   UNL     1     -39.024 -50.968  13.060  1.00  0.00    -0.265 OA
BRANCH  17  20
HETATM   20  C   UNL     1     -38.271 -48.274  13.391  1.00  0.00    -0.031 C 
BRANCH  20  21
HETATM   21  N   UNL     1     -37.303 -47.909  14.112  1.00  0.00    -0.365 N 
ATOM     22  HN2 UNL     1     -38.091 -48.194  13.530  1.00  0.00     0.165 HD
ATOM     23  HN1 UNL     1     -36.520 -47.613  14.694  1.00  0.00     0.165 HD
ENDBRANCH  20  21
ENDBRANCH  17  20
ENDBRANCH   9  10
ENDBRANCH   5   9
BRANCH   1  24
HETATM   24  C   UNL     1     -45.610 -52.822  15.465  1.00  0.00     0.089 C 
HETATM   25  C   UNL     1     -46.245 -51.453  15.805  1.00  0.00     0.004 C 
HETATM   26  C   UNL     1     -45.249 -50.437  16.383  1.00  0.00     0.012 C 
HETATM   27  C   UNL     1     -47.426 -51.670  16.770  1.00  0.00     0.006 C 
HETATM   28  C   UNL     1     -47.033 -52.449  18.027  1.00  0.00     0.001 C 
HETATM   29  C   UNL     1     -46.329 -53.762  17.695  1.00  0.00     0.002 C 
HETATM   30  C   UNL     1     -45.165 -53.571  16.727  1.00  0.00     0.026 C 
ENDBRANCH   1  24
TORSDOF 5
ENDMDL
MODEL 9
REMARK VINA RESULT:      -6.1      3.806      6.155
REMARK  5 active torsions:
REMARK  status: ('A' for Active; 'I' for Inactive)
REMARK    1  A    between atoms: C_7  and  N_8 
REMARK       I    between atoms: N_8  and  C_9 
REMARK       I    between atoms: C_9  and  N_11 
REMARK       I    between atoms: N_11  and  C_12 
REMARK    2  A    between atoms: C_12  and  C_14 
REMARK    3  A    between atoms: C_14  and  N_15 
REMARK    4  A    between atoms: C_22  and  C_23 
REMARK    5  A    between atoms: C_23  and  N_24 
ROOT
HETATM    1  N   UNL     1     -45.238 -53.122  16.645  1.00  0.00    -0.338 N 
HETATM    2  C   UNL     1     -45.096 -54.031  15.637  1.00  0.00     0.323 C 
HETATM    3  O   UNL     1     -46.021 -54.662  15.136  1.00  0.00    -0.247 OA
HETATM    4  N   UNL     1     -43.809 -54.231  15.200  1.00  0.00    -0.278 N 
HETATM    5  C   UNL     1     -42.684 -53.476  15.491  1.00  0.00     0.245 C 
HETATM    6  O   UNL     1     -42.703 -52.479  16.214  1.00  0.00    -0.271 OA
HETATM    7  H   UNL     1     -44.417 -52.559  16.862  1.00  0.00     0.164 HD
HETATM    8  H   UNL     1     -43.720 -54.951  14.494  1.00  0.00     0.173 HD
ENDROOT
BRANCH   5   9
HETATM    9  C   UNL     1     -41.452 -53.871  14.697  1.00  0.00     0.255 C 
BRANCH   9  10
HETATM   10  N   UNL     1     -40.658 -52.704  14.328  1.00  0.00    -0.247 N 
HETATM   11  N   UNL     1     -39.681 -52.294  15.198  1.00  0.00    -0.299 N 
HETATM   12  C   UNL     1     -38.909 -51.312  14.839  1.00  0.00     0.029 A 
ATOM     13  HN  UNL     1     -39.563 -52.748  16.104  1.00  0.00     0.187 HD
HETATM   14  C   UNL     1     -37.844 -50.884  15.821  1.00  0.00     0.070 C 
HETATM   15  C   UNL     1     -39.003 -50.600  13.532  1.00  0.00    -0.013 A 
HETATM   16  C   UNL     1     -38.063 -49.488  13.167  1.00  0.00     0.052 C 
HETATM   17  C   UNL     1     -39.991 -51.018  12.725  1.00  0.00     0.103 A 
HETATM   18  C   UNL     1     -40.932 -52.082  13.118  1.00  0.00     0.282 A 
HETATM   19  O   UNL     1     -41.875 -52.388  12.395  1.00  0.00    -0.265 OA
BRANCH  17  20
HETATM   20  C   UNL     1     -40.205 -50.366  11.369  1.00  0.00    -0.031 C 
BRANCH  20  21
HETATM   21  N   UNL     1     -40.382 -49.825  10.244  1.00  0.00    -0.365 N 
ATOM     22  HN2 UNL     1     -40.246 -50.270  11.152  1.00  0.00     0.165 HD
ATOM     23  HN1 UNL     1     -40.525 -49.388   9.334  1.00  0.00     0.165 HD
ENDBRANCH  20  21
ENDBRANCH  17  20
ENDBRANCH   9  10
ENDBRANCH   5   9
BRANCH   1  24
HETATM   24  C   UNL     1     -46.516 -52.728  17.206  1.00  0.00     0.089 C 
HETATM   25  C   UNL     1     -46.933 -51.292  16.809  1.00  0.00     0.004 C 
HETATM   26  C   UNL     1     -45.910 -50.219  17.212  1.00  0.00     0.012 C 
HETATM   27  C   UNL     1     -48.315 -50.983  17.414  1.00  0.00     0.006 C 
HETATM   28  C   UNL     1     -48.366 -51.198  18.927  1.00  0.00     0.001 C 
HETATM   29  C   UNL     1     -47.875 -52.586  19.329  1.00  0.00     0.002 C 
HETATM   30  C   UNL     1     -46.512 -52.919  18.728  1.00  0.00     0.026 C 
ENDBRANCH   1  24
TORSDOF 5
ENDMDL
