MODEL 1
REMARK VINA RESULT:      -5.8      0.000      0.000
REMARK  6 active torsions:
REMARK  status: ('A' for Active; 'I' for Inactive)
REMARK    1  A    between atoms: C_2  and  C_4 
REMARK    2  A    between atoms: C_4  and  C_5 
REMARK    3  A    between atoms: C_5  and  C_6 
REMARK       I    between atoms: C_6  and  N_8 
REMARK    4  A    between atoms: N_8  and  C_9 
REMARK    5  A    between atoms: C_9  and  C_10 
REMARK    6  A    between atoms: C_16  and  N_17 
ROOT
HETATM    1  C   UNL     1     -40.142 -49.957  12.795  1.00  0.00     0.004 A 
HETATM    2  C   UNL     1     -39.106 -50.812  13.234  1.00  0.00     0.014 A 
HETATM    3  C   UNL     1     -37.880 -50.826  12.596  1.00  0.00     0.018 A 
HETATM    4  C   UNL     1     -37.725 -49.980  11.525  1.00  0.00     0.089 A 
HETATM    5  N   UNL     1     -38.679 -49.118  11.109  1.00  0.00    -0.352 N 
ATOM      6  HN  UNL     1     -38.497 -48.506  10.314  1.00  0.00     0.166 HD
HETATM    7  C   UNL     1     -39.881 -49.062  11.742  1.00  0.00     0.111 A 
ENDROOT
BRANCH   1   8
HETATM    8  C   UNL     1     -41.472 -50.145  13.471  1.00  0.00     0.165 C 
BRANCH   8   9
HETATM    9  N   UNL     1     -42.351 -51.020  12.728  1.00  0.00    -0.357 N 
HETATM   10  C   UNL     1     -42.950 -52.097  13.335  1.00  0.00     0.217 C 
HETATM   11  O   UNL     1     -42.810 -52.357  14.527  1.00  0.00    -0.274 OA
HETATM   12  H   UNL     1     -42.492 -50.845  11.740  1.00  0.00     0.162 HD
BRANCH  10  13
HETATM   13  C   UNL     1     -43.741 -52.985  12.403  1.00  0.00     0.103 C 
BRANCH  13  14
HETATM   14  C   UNL     1     -45.192 -53.089  12.878  1.00  0.00     0.013 C 
BRANCH  14  15
HETATM   15  C   UNL     1     -45.942 -51.743  12.880  1.00  0.00    -0.022 C 
HETATM   16  C   UNL     1     -46.986 -51.726  11.760  1.00  0.00     0.009 C 
HETATM   17  C   UNL     1     -46.624 -51.452  14.218  1.00  0.00     0.009 C 
ENDBRANCH  14  15
ENDBRANCH  13  14
ENDBRANCH  10  13
ENDBRANCH   8   9
ENDBRANCH   1   8
BRANCH   7  18
HETATM   18  N   UNL     1     -40.715 -48.059  11.297  1.00  0.00    -0.363 N 
HETATM   19  C   UNL     1     -40.325 -46.659  11.559  1.00  0.00     0.150 C 
HETATM   20  C   UNL     1     -41.564 -45.782  11.807  1.00  0.00     0.187 C 
HETATM   21  O   UNL     1     -42.531 -45.906  10.751  1.00  0.00    -0.388 OA
HETATM   22  C   UNL     1     -42.967 -47.266  10.662  1.00  0.00     0.187 C 
HETATM   23  C   UNL     1     -41.804 -48.212  10.334  1.00  0.00     0.150 C 
ENDBRANCH   7  18
TORSDOF 6
ENDMDL
MODEL 2
REMARK VINA RESULT:      -5.7      2.618      4.313
REMARK  6 active torsions:
REMARK  status: ('A' for Active; 'I' for Inactive)
REMARK    1  A    between atoms: C_2  and  C_4 
REMARK    2  A    between atoms: C_4  and  C_5 
REMARK    3  A    between atoms: C_5  and  C_6 
REMARK       I    between atoms: C_6  and  N_8 
REMARK    4  A    between atoms: N_8  and  C_9 
REMARK    5  A    between atoms: C_9  and  C_10 
REMARK    6  A    between atoms: C_16  and  N_17 
ROOT
HETATM    1  C   UNL     1     -42.398 -47.266  10.351  1.00  0.00     0.004 A 
HETATM    2  C   UNL     1     -43.058 -47.791   9.217  1.00  0.00     0.014 A 
HETATM    3  C   UNL     1     -43.955 -47.021   8.500  1.00  0.00     0.018 A 
HETATM    4  C   UNL     1     -44.170 -45.738   8.944  1.00  0.00     0.089 A 
HETATM    5  N   UNL     1     -43.521 -45.194   9.996  1.00  0.00    -0.352 N 
ATOM      6  HN  UNL     1     -43.717 -44.230  10.268  1.00  0.00     0.166 HD
HETATM    7  C   UNL     1     -42.609 -45.920  10.696  1.00  0.00     0.111 A 
ENDROOT
BRANCH   1   8
HETATM    8  C   UNL     1     -41.567 -48.247  11.133  1.00  0.00     0.165 C 
BRANCH   8   9
HETATM    9  N   UNL     1     -42.312 -49.429  11.504  1.00  0.00    -0.357 N 
HETATM   10  C   UNL     1     -42.923 -49.519  12.731  1.00  0.00     0.217 C 
HETATM   11  O   UNL     1     -42.908 -48.609  13.556  1.00  0.00    -0.274 OA
HETATM   12  H   UNL     1     -42.349 -50.206  10.855  1.00  0.00     0.162 HD
BRANCH  10  13
HETATM   13  C   UNL     1     -43.560 -50.859  13.020  1.00  0.00     0.103 C 
BRANCH  13  14
HETATM   14  C   UNL     1     -44.620 -50.715  14.113  1.00  0.00     0.013 C 
BRANCH  14  15
HETATM   15  C   UNL     1     -45.813 -51.677  13.952  1.00  0.00    -0.022 C 
HETATM   16  C   UNL     1     -46.870 -51.381  15.020  1.00  0.00     0.009 C 
HETATM   17  C   UNL     1     -46.451 -51.595  12.564  1.00  0.00     0.009 C 
ENDBRANCH  14  15
ENDBRANCH  13  14
ENDBRANCH  10  13
ENDBRANCH   8   9
ENDBRANCH   1   8
BRANCH   7  18
HETATM   18  N   UNL     1     -41.933 -45.209  11.664  1.00  0.00    -0.363 N 
HETATM   19  C   UNL     1     -40.837 -44.317  11.237  1.00  0.00     0.150 C 
HETATM   20  C   UNL     1     -39.718 -44.281  12.293  1.00  0.00     0.187 C 
HETATM   21  O   UNL     1     -40.221 -43.963  13.600  1.00  0.00    -0.388 OA
HETATM   22  C   UNL     1     -41.170 -44.958  14.000  1.00  0.00     0.187 C 
HETATM   23  C   UNL     1     -42.370 -45.011  13.046  1.00  0.00     0.150 C 
ENDBRANCH   7  18
TORSDOF 6
ENDMDL
MODEL 3
REMARK VINA RESULT:      -5.7      1.389      2.073
REMARK  6 active torsions:
REMARK  status: ('A' for Active; 'I' for Inactive)
REMARK    1  A    between atoms: C_2  and  C_4 
REMARK    2  A    between atoms: C_4  and  C_5 
REMARK    3  A    between atoms: C_5  and  C_6 
REMARK       I    between atoms: C_6  and  N_8 
REMARK    4  A    between atoms: N_8  and  C_9 
REMARK    5  A    between atoms: C_9  and  C_10 
REMARK    6  A    between atoms: C_16  and  N_17 
ROOT
HETATM    1  C   UNL     1     -41.573 -49.522  12.624  1.00  0.00     0.004 A 
HETATM    2  C   UNL     1     -40.899 -50.531  13.349  1.00  0.00     0.014 A 
HETATM    3  C   UNL     1     -39.641 -50.959  12.968  1.00  0.00     0.018 A 
HETATM    4  C   UNL     1     -39.089 -50.362  11.859  1.00  0.00     0.089 A 
HETATM    5  N   UNL     1     -39.688 -49.365  11.172  1.00  0.00    -0.352 N 
ATOM      6  HN  UNL     1     -39.219 -48.955  10.364  1.00  0.00     0.166 HD
HETATM    7  C   UNL     1     -40.910 -48.904  11.549  1.00  0.00     0.111 A 
ENDROOT
BRANCH   1   8
HETATM    8  C   UNL     1     -42.992 -49.254  13.044  1.00  0.00     0.165 C 
BRANCH   8   9
HETATM    9  N   UNL     1     -43.892 -50.317  12.657  1.00  0.00    -0.357 N 
HETATM   10  C   UNL     1     -44.638 -50.985  13.598  1.00  0.00     0.217 C 
HETATM   11  O   UNL     1     -44.615 -50.705  14.794  1.00  0.00    -0.274 OA
HETATM   12  H   UNL     1     -43.940 -50.584  11.682  1.00  0.00     0.162 HD
BRANCH  10  13
HETATM   13  C   UNL     1     -45.439 -52.147  13.057  1.00  0.00     0.103 C 
BRANCH  13  14
HETATM   14  C   UNL     1     -44.512 -53.154  12.374  1.00  0.00     0.013 C 
BRANCH  14  15
HETATM   15  C   UNL     1     -44.304 -54.451  13.179  1.00  0.00    -0.022 C 
HETATM   16  C   UNL     1     -43.106 -54.294  14.120  1.00  0.00     0.009 C 
HETATM   17  C   UNL     1     -45.540 -54.847  13.988  1.00  0.00     0.009 C 
ENDBRANCH  14  15
ENDBRANCH  13  14
ENDBRANCH  10  13
ENDBRANCH   8   9
ENDBRANCH   1   8
BRANCH   7  18
HETATM   18  N   UNL     1     -41.350 -47.806  10.841  1.00  0.00    -0.363 N 
HETATM   19  C   UNL     1     -40.528 -46.580  10.871  1.00  0.00     0.150 C 
HETATM   20  C   UNL     1     -41.416 -45.324  10.823  1.00  0.00     0.187 C 
HETATM   21  O   UNL     1     -42.333 -45.356   9.717  1.00  0.00    -0.388 OA
HETATM   22  C   UNL     1     -43.191 -46.495   9.842  1.00  0.00     0.187 C 
HETATM   23  C   UNL     1     -42.396 -47.807   9.818  1.00  0.00     0.150 C 
ENDBRANCH   7  18
TORSDOF 6
ENDMDL
MODEL 4
REMARK VINA RESULT:      -5.7      2.647      6.824
REMARK  6 active torsions:
REMARK  status: ('A' for Active; 'I' for Inactive)
REMARK    1  A    between atoms: C_2  and  C_4 
REMARK    2  A    between atoms: C_4  and  C_5 
REMARK    3  A    between atoms: C_5  and  C_6 
REMARK       I    between atoms: C_6  and  N_8 
REMARK    4  A    between atoms: N_8  and  C_9 
REMARK    5  A    between atoms: C_9  and  C_10 
REMARK    6  A    between atoms: C_16  and  N_17 
ROOT
HETATM    1  C   UNL     1     -41.654 -53.502  13.194  1.00  0.00     0.004 A 
HETATM    2  C   UNL     1     -40.289 -53.854  13.294  1.00  0.00     0.014 A 
HETATM    3  C   UNL     1     -39.794 -54.458  14.435  1.00  0.00     0.018 A 
HETATM    4  C   UNL     1     -40.687 -54.691  15.454  1.00  0.00     0.089 A 
HETATM    5  N   UNL     1     -42.005 -54.408  15.371  1.00  0.00    -0.352 N 
ATOM      6  HN  UNL     1     -42.618 -54.617  16.159  1.00  0.00     0.166 HD
HETATM    7  C   UNL     1     -42.521 -53.845  14.247  1.00  0.00     0.111 A 
ENDROOT
BRANCH   1   8
HETATM    8  C   UNL     1     -42.035 -52.715  11.970  1.00  0.00     0.165 C 
BRANCH   8   9
HETATM    9  N   UNL     1     -41.018 -51.763  11.587  1.00  0.00    -0.357 N 
HETATM   10  C   UNL     1     -41.142 -50.432  11.907  1.00  0.00     0.217 C 
HETATM   11  O   UNL     1     -42.084 -49.985  12.556  1.00  0.00    -0.274 OA
HETATM   12  H   UNL     1     -40.225 -52.087  11.047  1.00  0.00     0.162 HD
BRANCH  10  13
HETATM   13  C   UNL     1     -40.062 -49.544  11.335  1.00  0.00     0.103 C 
BRANCH  13  14
HETATM   14  C   UNL     1     -39.106 -49.096  12.442  1.00  0.00     0.013 C 
BRANCH  14  15
HETATM   15  C   UNL     1     -37.708 -49.737  12.352  1.00  0.00    -0.022 C 
HETATM   16  C   UNL     1     -37.682 -51.045  13.147  1.00  0.00     0.009 C 
HETATM   17  C   UNL     1     -37.275 -50.006  10.910  1.00  0.00     0.009 C 
ENDBRANCH  14  15
ENDBRANCH  13  14
ENDBRANCH  10  13
ENDBRANCH   8   9
ENDBRANCH   1   8
BRANCH   7  18
HETATM   18  N   UNL     1     -43.894 -53.722  14.246  1.00  0.00    -0.363 N 
HETATM   19  C   UNL     1     -44.480 -52.439  14.683  1.00  0.00     0.150 C 
HETATM   20  C   UNL     1     -45.814 -52.667  15.414  1.00  0.00     0.187 C 
HETATM   21  O   UNL     1     -46.724 -53.462  14.638  1.00  0.00    -0.388 OA
HETATM   22  C   UNL     1     -46.139 -54.744  14.383  1.00  0.00     0.187 C 
HETATM   23  C   UNL     1     -44.836 -54.621  13.581  1.00  0.00     0.150 C 
ENDBRANCH   7  18
TORSDOF 6
ENDMDL
MODEL 5
REMARK VINA RESULT:      -5.6      2.332      6.229
REMARK  6 active torsions:
REMARK  status: ('A' for Active; 'I' for Inactive)
REMARK    1  A    between atoms: C_2  and  C_4 
REMARK    2  A    between atoms: C_4  and  C_5 
REMARK    3  A    between atoms: C_5  and  C_6 
REMARK       I    between atoms: C_6  and  N_8 
REMARK    4  A    between atoms: N_8  and  C_9 
REMARK    5  A    between atoms: C_9  and  C_10 
REMARK    6  A    between atoms: C_16  and  N_17 
ROOT
HETATM    1  C   UNL     1     -44.254 -51.241  13.485  1.00  0.00     0.004 A 
HETATM    2  C   UNL     1     -45.650 -51.284  13.700  1.00  0.00     0.014 A 
HETATM    3  C   UNL     1     -46.341 -52.479  13.635  1.00  0.00     0.018 A 
HETATM    4  C   UNL     1     -45.609 -53.608  13.350  1.00  0.00     0.089 A 
HETATM    5  N   UNL     1     -44.268 -53.606  13.185  1.00  0.00    -0.352 N 
ATOM      6  HN  UNL     1     -43.782 -54.481  12.988  1.00  0.00     0.166 HD
HETATM    7  C   UNL     1     -43.563 -52.448  13.279  1.00  0.00     0.111 A 
ENDROOT
BRANCH   1   8
HETATM    8  C   UNL     1     -43.645 -49.867  13.431  1.00  0.00     0.165 C 
BRANCH   8   9
HETATM    9  N   UNL     1     -43.354 -49.445  12.080  1.00  0.00    -0.357 N 
HETATM   10  C   UNL     1     -42.599 -48.322  11.840  1.00  0.00     0.217 C 
HETATM   11  O   UNL     1     -42.103 -47.644  12.737  1.00  0.00    -0.274 OA
HETATM   12  H   UNL     1     -43.745 -49.972  11.309  1.00  0.00     0.162 HD
BRANCH  10  13
HETATM   13  C   UNL     1     -42.482 -47.941  10.382  1.00  0.00     0.103 C 
BRANCH  13  14
HETATM   14  C   UNL     1     -43.389 -46.748  10.074  1.00  0.00     0.013 C 
BRANCH  14  15
HETATM   15  C   UNL     1     -44.299 -46.960   8.849  1.00  0.00    -0.022 C 
HETATM   16  C   UNL     1     -43.577 -47.817   7.805  1.00  0.00     0.009 C 
HETATM   17  C   UNL     1     -45.633 -47.613   9.212  1.00  0.00     0.009 C 
ENDBRANCH  14  15
ENDBRANCH  13  14
ENDBRANCH  10  13
ENDBRANCH   8   9
ENDBRANCH   1   8
BRANCH   7  18
HETATM   18  N   UNL     1     -42.195 -52.605  13.212  1.00  0.00    -0.363 N 
HETATM   19  C   UNL     1     -41.533 -53.410  14.258  1.00  0.00     0.150 C 
HETATM   20  C   UNL     1     -40.135 -52.851  14.576  1.00  0.00     0.187 C 
HETATM   21  O   UNL     1     -39.333 -52.702  13.393  1.00  0.00    -0.388 OA
HETATM   22  C   UNL     1     -39.975 -51.792  12.494  1.00  0.00     0.187 C 
HETATM   23  C   UNL     1     -41.352 -52.308  12.054  1.00  0.00     0.150 C 
ENDBRANCH   7  18
TORSDOF 6
ENDMDL
MODEL 6
REMARK VINA RESULT:      -5.6      2.670      4.499
REMARK  6 active torsions:
REMARK  status: ('A' for Active; 'I' for Inactive)
REMARK    1  A    between atoms: C_2  and  C_4 
REMARK    2  A    between atoms: C_4  and  C_5 
REMARK    3  A    between atoms: C_5  and  C_6 
REMARK       I    between atoms: C_6  and  N_8 
REMARK    4  A    between atoms: N_8  and  C_9 
REMARK    5  A    between atoms: C_9  and  C_10 
REMARK    6  A    between atoms: C_16  and  N_17 
ROOT
HETATM    1  C   UNL     1     -42.122 -53.364  13.815  1.00  0.00     0.004 A 
HETATM    2  C   UNL     1     -42.675 -54.512  14.427  1.00  0.00     0.014 A 
HETATM    3  C   UNL     1     -42.027 -55.138  15.475  1.00  0.00     0.018 A 
HETATM    4  C   UNL     1     -40.832 -54.596  15.883  1.00  0.00     0.089 A 
HETATM    5  N   UNL     1     -40.300 -53.474  15.349  1.00  0.00    -0.352 N 
ATOM      6  HN  UNL     1     -39.414 -53.115  15.706  1.00  0.00     0.166 HD
HETATM    7  C   UNL     1     -40.936 -52.821  14.341  1.00  0.00     0.111 A 
ENDROOT
BRANCH   1   8
HETATM    8  C   UNL     1     -42.842 -52.868  12.592  1.00  0.00     0.165 C 
BRANCH   8   9
HETATM    9  N   UNL     1     -44.032 -52.115  12.918  1.00  0.00    -0.357 N 
HETATM   10  C   UNL     1     -45.278 -52.681  12.797  1.00  0.00     0.217 C 
HETATM   11  O   UNL     1     -45.454 -53.845  12.448  1.00  0.00    -0.274 OA
HETATM   12  H   UNL     1     -43.934 -51.149  13.207  1.00  0.00     0.162 HD
BRANCH  10  13
HETATM   13  C   UNL     1     -46.427 -51.734  13.058  1.00  0.00     0.103 C 
BRANCH  13  14
HETATM   14  C   UNL     1     -46.364 -51.212  14.494  1.00  0.00     0.013 C 
BRANCH  14  15
HETATM   15  C   UNL     1     -47.128 -52.087  15.506  1.00  0.00    -0.022 C 
HETATM   16  C   UNL     1     -46.164 -53.064  16.183  1.00  0.00     0.009 C 
HETATM   17  C   UNL     1     -47.850 -51.261  16.572  1.00  0.00     0.009 C 
ENDBRANCH  14  15
ENDBRANCH  13  14
ENDBRANCH  10  13
ENDBRANCH   8   9
ENDBRANCH   1   8
BRANCH   7  18
HETATM   18  N   UNL     1     -40.351 -51.628  13.973  1.00  0.00    -0.363 N 
HETATM   19  C   UNL     1     -40.881 -50.381  14.559  1.00  0.00     0.150 C 
HETATM   20  C   UNL     1     -40.794 -49.222  13.551  1.00  0.00     0.187 C 
HETATM   21  O   UNL     1     -39.469 -49.071  13.017  1.00  0.00    -0.388 OA
HETATM   22  C   UNL     1     -39.089 -50.273  12.339  1.00  0.00     0.187 C 
HETATM   23  C   UNL     1     -39.067 -51.477  13.290  1.00  0.00     0.150 C 
ENDBRANCH   7  18
TORSDOF 6
ENDMDL
MODEL 7
REMARK VINA RESULT:      -5.6      4.673      7.188
REMARK  6 active torsions:
REMARK  status: ('A' for Active; 'I' for Inactive)
REMARK    1  A    between atoms: C_2  and  C_4 
REMARK    2  A    between atoms: C_4  and  C_5 
REMARK    3  A    between atoms: C_5  and  C_6 
REMARK       I    between atoms: C_6  and  N_8 
REMARK    4  A    between atoms: N_8  and  C_9 
REMARK    5  A    between atoms: C_9  and  C_10 
REMARK    6  A    between atoms: C_16  and  N_17 
ROOT
HETATM    1  C   UNL     1     -42.145 -54.569  14.553  1.00  0.00     0.004 A 
HETATM    2  C   UNL     1     -42.123 -53.905  13.305  1.00  0.00     0.014 A 
HETATM    3  C   UNL     1     -41.036 -53.140  12.927  1.00  0.00     0.018 A 
HETATM    4  C   UNL     1     -39.993 -53.055  13.819  1.00  0.00     0.089 A 
HETATM    5  N   UNL     1     -39.964 -53.713  14.998  1.00  0.00    -0.352 N 
ATOM      6  HN  UNL     1     -39.154 -53.619  15.611  1.00  0.00     0.166 HD
HETATM    7  C   UNL     1     -41.006 -54.500  15.376  1.00  0.00     0.111 A 
ENDROOT
BRANCH   1   8
HETATM    8  C   UNL     1     -43.441 -55.241  14.911  1.00  0.00     0.165 C 
BRANCH   8   9
HETATM    9  N   UNL     1     -44.594 -54.495  14.458  1.00  0.00    -0.357 N 
HETATM   10  C   UNL     1     -45.610 -54.174  15.326  1.00  0.00     0.217 C 
HETATM   11  O   UNL     1     -45.587 -54.461  16.520  1.00  0.00    -0.274 OA
HETATM   12  H   UNL     1     -44.657 -54.240  13.480  1.00  0.00     0.162 HD
BRANCH  10  13
HETATM   13  C   UNL     1     -46.798 -53.500  14.681  1.00  0.00     0.103 C 
BRANCH  13  14
HETATM   14  C   UNL     1     -46.672 -51.980  14.800  1.00  0.00     0.013 C 
BRANCH  14  15
HETATM   15  C   UNL     1     -46.217 -51.291  13.500  1.00  0.00    -0.022 C 
HETATM   16  C   UNL     1     -44.712 -51.015  13.556  1.00  0.00     0.009 C 
HETATM   17  C   UNL     1     -46.539 -52.116  12.253  1.00  0.00     0.009 C 
ENDBRANCH  14  15
ENDBRANCH  13  14
ENDBRANCH  10  13
ENDBRANCH   8   9
ENDBRANCH   1   8
BRANCH   7  18
HETATM   18  N   UNL     1     -40.797 -55.208  16.540  1.00  0.00    -0.363 N 
HETATM   19  C   UNL     1     -39.701 -56.198  16.566  1.00  0.00     0.150 C 
HETATM   20  C   UNL     1     -40.072 -57.401  17.451  1.00  0.00     0.187 C 
HETATM   21  O   UNL     1     -40.492 -56.995  18.764  1.00  0.00    -0.388 OA
HETATM   22  C   UNL     1     -41.647 -56.157  18.656  1.00  0.00     0.187 C 
HETATM   23  C   UNL     1     -41.349 -54.883  17.854  1.00  0.00     0.150 C 
ENDBRANCH   7  18
TORSDOF 6
ENDMDL
MODEL 8
REMARK VINA RESULT:      -5.5      2.413      4.477
REMARK  6 active torsions:
REMARK  status: ('A' for Active; 'I' for Inactive)
REMARK    1  A    between atoms: C_2  and  C_4 
REMARK    2  A    between atoms: C_4  and  C_5 
REMARK    3  A    between atoms: C_5  and  C_6 
REMARK       I    between atoms: C_6  and  N_8 
REMARK    4  A    between atoms: N_8  and  C_9 
REMARK    5  A    between atoms: C_9  and  C_10 
REMARK    6  A    between atoms: C_16  and  N_17 
ROOT
HETATM    1  C   UNL     1     -42.709 -49.272  12.433  1.00  0.00     0.004 A 
HETATM    2  C   UNL     1     -43.436 -48.221  11.830  1.00  0.00     0.014 A 
HETATM    3  C   UNL     1     -42.968 -47.599  10.688  1.00  0.00     0.018 A 
HETATM    4  C   UNL     1     -41.772 -48.047  10.180  1.00  0.00     0.089 A 
HETATM    5  N   UNL     1     -41.076 -49.079  10.707  1.00  0.00    -0.352 N 
ATOM      6  HN  UNL     1     -40.200 -49.372  10.274  1.00  0.00     0.166 HD
HETATM    7  C   UNL     1     -41.535 -49.729  11.809  1.00  0.00     0.111 A 
ENDROOT
BRANCH   1   8
HETATM    8  C   UNL     1     -43.244 -49.762  13.751  1.00  0.00     0.165 C 
BRANCH   8   9
HETATM    9  N   UNL     1     -44.232 -50.806  13.592  1.00  0.00    -0.357 N 
HETATM   10  C   UNL     1     -45.038 -51.177  14.641  1.00  0.00     0.217 C 
HETATM   11  O   UNL     1     -44.999 -50.633  15.742  1.00  0.00    -0.274 OA
HETATM   12  H   UNL     1     -44.297 -51.285  12.702  1.00  0.00     0.162 HD
BRANCH  10  13
HETATM   13  C   UNL     1     -45.934 -52.361  14.358  1.00  0.00     0.103 C 
BRANCH  13  14
HETATM   14  C   UNL     1     -45.516 -53.556  15.217  1.00  0.00     0.013 C 
BRANCH  14  15
HETATM   15  C   UNL     1     -44.825 -54.680  14.421  1.00  0.00    -0.022 C 
HETATM   16  C   UNL     1     -44.727 -54.290  12.944  1.00  0.00     0.009 C 
HETATM   17  C   UNL     1     -43.430 -55.009  14.956  1.00  0.00     0.009 C 
ENDBRANCH  14  15
ENDBRANCH  13  14
ENDBRANCH  10  13
ENDBRANCH   8   9
ENDBRANCH   1   8
BRANCH   7  18
HETATM   18  N   UNL     1     -40.797 -50.836  12.169  1.00  0.00    -0.363 N 
HETATM   19  C   UNL     1     -41.310 -52.169  11.795  1.00  0.00     0.150 C 
HETATM   20  C   UNL     1     -40.955 -53.213  12.868  1.00  0.00     0.187 C 
HETATM   21  O   UNL     1     -39.551 -53.219  13.170  1.00  0.00    -0.388 OA
HETATM   22  C   UNL     1     -39.165 -51.932  13.665  1.00  0.00     0.187 C 
HETATM   23  C   UNL     1     -39.408 -50.830  12.626  1.00  0.00     0.150 C 
ENDBRANCH   7  18
TORSDOF 6
ENDMDL
MODEL 9
REMARK VINA RESULT:      -5.3      1.031      1.789
REMARK  6 active torsions:
REMARK  status: ('A' for Active; 'I' for Inactive)
REMARK    1  A    between atoms: C_2  and  C_4 
REMARK    2  A    between atoms: C_4  and  C_5 
REMARK    3  A    between atoms: C_5  and  C_6 
REMARK       I    between atoms: C_6  and  N_8 
REMARK    4  A    between atoms: N_8  and  C_9 
REMARK    5  A    between atoms: C_9  and  C_10 
REMARK    6  A    between atoms: C_16  and  N_17 
ROOT
HETATM    1  C   UNL     1     -39.539 -50.243  13.083  1.00  0.00     0.004 A 
HETATM    2  C   UNL     1     -38.386 -51.036  13.279  1.00  0.00     0.014 A 
HETATM    3  C   UNL     1     -37.309 -50.948  12.416  1.00  0.00     0.018 A 
HETATM    4  C   UNL     1     -37.420 -50.064  11.369  1.00  0.00     0.089 A 
HETATM    5  N   UNL     1     -38.490 -49.261  11.181  1.00  0.00    -0.352 N 
ATOM      6  HN  UNL     1     -38.505 -48.616  10.390  1.00  0.00     0.166 HD
HETATM    7  C   UNL     1     -39.545 -49.305  12.036  1.00  0.00     0.111 A 
ENDROOT
BRANCH   1   8
HETATM    8  C   UNL     1     -40.697 -50.541  13.995  1.00  0.00     0.165 C 
BRANCH   8   9
HETATM    9  N   UNL     1     -41.573 -51.560  13.462  1.00  0.00    -0.357 N 
HETATM   10  C   UNL     1     -41.593 -52.824  14.001  1.00  0.00     0.217 C 
HETATM   11  O   UNL     1     -40.912 -53.149  14.970  1.00  0.00    -0.274 OA
HETATM   12  H   UNL     1     -42.149 -51.336  12.659  1.00  0.00     0.162 HD
BRANCH  10  13
HETATM   13  C   UNL     1     -42.468 -53.809  13.261  1.00  0.00     0.103 C 
BRANCH  13  14
HETATM   14  C   UNL     1     -43.528 -53.066  12.447  1.00  0.00     0.013 C 
BRANCH  14  15
HETATM   15  C   UNL     1     -44.971 -53.506  12.759  1.00  0.00    -0.022 C 
HETATM   16  C   UNL     1     -44.958 -54.685  13.736  1.00  0.00     0.009 C 
HETATM   17  C   UNL     1     -45.820 -52.373  13.338  1.00  0.00     0.009 C 
ENDBRANCH  14  15
ENDBRANCH  13  14
ENDBRANCH  10  13
ENDBRANCH   8   9
ENDBRANCH   1   8
BRANCH   7  18
HETATM   18  N   UNL     1     -40.512 -48.351  11.801  1.00  0.00    -0.363 N 
HETATM   19  C   UNL     1     -41.718 -48.749  11.047  1.00  0.00     0.150 C 
HETATM   20  C   UNL     1     -42.226 -47.589  10.174  1.00  0.00     0.187 C 
HETATM   21  O   UNL     1     -42.414 -46.385  10.935  1.00  0.00    -0.388 OA
HETATM   22  C   UNL     1     -41.166 -45.986  11.512  1.00  0.00     0.187 C 
HETATM   23  C   UNL     1     -40.618 -47.054  12.468  1.00  0.00     0.150 C 
ENDBRANCH   7  18
TORSDOF 6
ENDMDL
