MODEL 1
REMARK VINA RESULT:      -5.9      0.000      0.000
REMARK  7 active torsions:
REMARK  status: ('A' for Active; 'I' for Inactive)
REMARK    1  A    between atoms: C_2  and  O_3 
REMARK    2  A    between atoms: O_3  and  C_4 
REMARK    3  A    between atoms: C_6  and  N_7 
REMARK    4  A    between atoms: N_7  and  C_8 
REMARK    5  A    between atoms: C_8  and  C_9 
REMARK    6  A    between atoms: C_9  and  O_11 
REMARK    7  A    between atoms: C_9  and  C_12 
ROOT
HETATM    1  C   UNL     1     -41.917 -49.828  12.279  1.00  0.00     0.312 C 
ENDROOT
BRANCH   1   2
HETATM    2  N   UNL     1     -42.116 -51.274  12.046  1.00  0.00     0.092 N 
HETATM    3  H   UNL     1     -43.022 -51.400  11.598  1.00  0.00     0.316 HD
BRANCH   2   4
HETATM    4  C   UNL     1     -41.954 -52.003  13.317  1.00  0.00     0.233 C 
HETATM    5  C   UNL     1     -41.969 -53.521  12.999  1.00  0.00     0.069 C 
HETATM    6  C   UNL     1     -43.496 -53.531  13.249  1.00  0.00     0.133 C 
HETATM    7  C   UNL     1     -43.321 -52.205  14.069  1.00  0.00     0.009 C 
HETATM    8  C   UNL     1     -44.486 -51.232  13.875  1.00  0.00     0.020 C 
HETATM    9  C   UNL     1     -43.061 -52.401  15.573  1.00  0.00     0.020 C 
BRANCH   6  10
HETATM   10  O   UNL     1     -44.032 -54.673  13.952  1.00  0.00    -0.385 OA
BRANCH  10  11
HETATM   11  C   UNL     1     -45.388 -54.993  13.648  1.00  0.00     0.163 C 
HETATM   12  C   UNL     1     -46.286 -54.482  14.753  1.00  0.00     0.033 C 
ENDBRANCH  10  11
ENDBRANCH   6  10
ENDBRANCH   2   4
ENDBRANCH   1   2
BRANCH   1  13
HETATM   13  C   UNL     1     -40.869 -49.180  11.322  1.00  0.00     0.110 C 
HETATM   14  C   UNL     1     -39.577 -48.830  12.077  1.00  0.00     0.053 C 
BRANCH  13  15
HETATM   15  O   UNL     1     -40.537 -50.158  10.313  1.00  0.00    -0.383 OA
HETATM   16  H   UNL     1     -39.697 -49.878   9.915  1.00  0.00     0.211 HD
ENDBRANCH  13  15
BRANCH  13  17
HETATM   17  C   UNL     1     -41.451 -47.952  10.668  1.00  0.00     0.011 A 
HETATM   18  C   UNL     1     -40.922 -46.639  10.658  1.00  0.00     0.119 A 
HETATM   19  N   UNL     1     -41.693 -45.771  10.001  1.00  0.00    -0.310 N 
HETATM   20  N   UNL     1     -42.725 -46.522   9.580  1.00  0.00    -0.307 N 
ATOM     21  HN  UNL     1     -41.536 -44.774   9.853  1.00  0.00     0.186 HD
HETATM   22  C   UNL     1     -43.792 -45.926   8.814  1.00  0.00     0.177 C 
HETATM   23  C   UNL     1     -42.630 -47.829   9.953  1.00  0.00     0.121 A 
ENDBRANCH  13  17
ENDBRANCH   1  13
TORSDOF 7
ENDMDL
MODEL 2
REMARK VINA RESULT:      -5.9      2.976      4.409
REMARK  7 active torsions:
REMARK  status: ('A' for Active; 'I' for Inactive)
REMARK    1  A    between atoms: C_2  and  O_3 
REMARK    2  A    between atoms: O_3  and  C_4 
REMARK    3  A    between atoms: C_6  and  N_7 
REMARK    4  A    between atoms: N_7  and  C_8 
REMARK    5  A    between atoms: C_8  and  C_9 
REMARK    6  A    between atoms: C_9  and  O_11 
REMARK    7  A    between atoms: C_9  and  C_12 
ROOT
HETATM    1  C   UNL     1     -42.503 -48.478  11.904  1.00  0.00     0.312 C 
ENDROOT
BRANCH   1   2
HETATM    2  N   UNL     1     -42.279 -49.939  11.864  1.00  0.00     0.092 N 
HETATM    3  H   UNL     1     -43.158 -50.386  11.605  1.00  0.00     0.316 HD
BRANCH   2   4
HETATM    4  C   UNL     1     -41.722 -50.386  13.153  1.00  0.00     0.233 C 
HETATM    5  C   UNL     1     -40.439 -49.559  13.428  1.00  0.00     0.069 C 
HETATM    6  C   UNL     1     -39.608 -50.671  12.744  1.00  0.00     0.133 C 
HETATM    7  C   UNL     1     -40.805 -51.654  13.002  1.00  0.00     0.009 C 
HETATM    8  C   UNL     1     -41.007 -52.649  11.858  1.00  0.00     0.020 C 
HETATM    9  C   UNL     1     -40.745 -52.414  14.338  1.00  0.00     0.020 C 
BRANCH   6  10
HETATM   10  O   UNL     1     -38.341 -51.004  13.353  1.00  0.00    -0.385 OA
BRANCH  10  11
HETATM   11  C   UNL     1     -37.230 -51.042  12.461  1.00  0.00     0.163 C 
HETATM   12  C   UNL     1     -37.442 -50.042  11.346  1.00  0.00     0.033 C 
ENDBRANCH  10  11
ENDBRANCH   6  10
ENDBRANCH   2   4
ENDBRANCH   1   2
BRANCH   1  13
HETATM   13  C   UNL     1     -42.167 -47.758  10.561  1.00  0.00     0.110 C 
HETATM   14  C   UNL     1     -41.202 -46.585  10.793  1.00  0.00     0.053 C 
BRANCH  13  15
HETATM   15  O   UNL     1     -41.498 -48.714   9.710  1.00  0.00    -0.383 OA
HETATM   16  H   UNL     1     -42.038 -49.521   9.714  1.00  0.00     0.211 HD
ENDBRANCH  13  15
BRANCH  13  17
HETATM   17  C   UNL     1     -43.433 -47.282   9.895  1.00  0.00     0.011 A 
HETATM   18  C   UNL     1     -43.591 -46.188   9.010  1.00  0.00     0.119 A 
HETATM   19  N   UNL     1     -44.851 -46.021   8.607  1.00  0.00    -0.310 N 
HETATM   20  N   UNL     1     -45.515 -47.011   9.229  1.00  0.00    -0.307 N 
ATOM     21  HN  UNL     1     -45.224 -45.311   7.975  1.00  0.00     0.186 HD
HETATM   22  C   UNL     1     -46.936 -47.164   9.037  1.00  0.00     0.177 C 
HETATM   23  C   UNL     1     -44.715 -47.789  10.010  1.00  0.00     0.121 A 
ENDBRANCH  13  17
ENDBRANCH   1  13
TORSDOF 7
ENDMDL
MODEL 3
REMARK VINA RESULT:      -5.7      1.761      2.309
REMARK  7 active torsions:
REMARK  status: ('A' for Active; 'I' for Inactive)
REMARK    1  A    between atoms: C_2  and  O_3 
REMARK    2  A    between atoms: O_3  and  C_4 
REMARK    3  A    between atoms: C_6  and  N_7 
REMARK    4  A    between atoms: N_7  and  C_8 
REMARK    5  A    between atoms: C_8  and  C_9 
REMARK    6  A    between atoms: C_9  and  O_11 
REMARK    7  A    between atoms: C_9  and  C_12 
ROOT
HETATM    1  C   UNL     1     -42.444 -48.351  12.199  1.00  0.00     0.312 C 
ENDROOT
BRANCH   1   2
HETATM    2  N   UNL     1     -43.087 -49.677  12.315  1.00  0.00     0.092 N 
HETATM    3  H   UNL     1     -43.921 -49.676  11.729  1.00  0.00     0.316 HD
BRANCH   2   4
HETATM    4  C   UNL     1     -43.339 -49.977  13.736  1.00  0.00     0.233 C 
HETATM    5  C   UNL     1     -42.291 -51.025  14.192  1.00  0.00     0.069 C 
HETATM    6  C   UNL     1     -43.295 -52.147  13.832  1.00  0.00     0.133 C 
HETATM    7  C   UNL     1     -44.443 -51.080  13.928  1.00  0.00     0.009 C 
HETATM    8  C   UNL     1     -45.539 -51.298  12.883  1.00  0.00     0.020 C 
HETATM    9  C   UNL     1     -45.082 -50.938  15.320  1.00  0.00     0.020 C 
BRANCH   6  10
HETATM   10  O   UNL     1     -43.365 -53.271  14.736  1.00  0.00    -0.385 OA
BRANCH  10  11
HETATM   11  C   UNL     1     -43.490 -54.547  14.111  1.00  0.00     0.163 C 
HETATM   12  C   UNL     1     -44.954 -54.908  13.992  1.00  0.00     0.033 C 
ENDBRANCH  10  11
ENDBRANCH   6  10
ENDBRANCH   2   4
ENDBRANCH   1   2
BRANCH   1  13
HETATM   13  C   UNL     1     -42.008 -47.994  10.744  1.00  0.00     0.110 C 
HETATM   14  C   UNL     1     -41.086 -46.764  10.732  1.00  0.00     0.053 C 
BRANCH  13  15
HETATM   15  O   UNL     1     -41.253 -49.112  10.229  1.00  0.00    -0.383 OA
HETATM   16  H   UNL     1     -41.891 -49.721   9.825  1.00  0.00     0.211 HD
ENDBRANCH  13  15
BRANCH  13  17
HETATM   17  C   UNL     1     -43.221 -47.758   9.880  1.00  0.00     0.011 A 
HETATM   18  C   UNL     1     -43.291 -47.744   8.465  1.00  0.00     0.119 A 
HETATM   19  N   UNL     1     -44.518 -47.488   8.007  1.00  0.00    -0.310 N 
HETATM   20  N   UNL     1     -45.247 -47.337   9.126  1.00  0.00    -0.307 N 
ATOM     21  HN  UNL     1     -44.828 -47.423   7.037  1.00  0.00     0.186 HD
HETATM   22  C   UNL     1     -46.656 -47.044   9.039  1.00  0.00     0.177 C 
HETATM   23  C   UNL     1     -44.521 -47.485  10.268  1.00  0.00     0.121 A 
ENDBRANCH  13  17
ENDBRANCH   1  13
TORSDOF 7
ENDMDL
MODEL 4
REMARK VINA RESULT:      -5.7      3.526      4.617
REMARK  7 active torsions:
REMARK  status: ('A' for Active; 'I' for Inactive)
REMARK    1  A    between atoms: C_2  and  O_3 
REMARK    2  A    between atoms: O_3  and  C_4 
REMARK    3  A    between atoms: C_6  and  N_7 
REMARK    4  A    between atoms: N_7  and  C_8 
REMARK    5  A    between atoms: C_8  and  C_9 
REMARK    6  A    between atoms: C_9  and  O_11 
REMARK    7  A    between atoms: C_9  and  C_12 
ROOT
HETATM    1  C   UNL     1     -42.370 -52.226  12.209  1.00  0.00     0.312 C 
ENDROOT
BRANCH   1   2
HETATM    2  N   UNL     1     -43.542 -53.127  12.230  1.00  0.00     0.092 N 
HETATM    3  H   UNL     1     -43.785 -53.353  11.267  1.00  0.00     0.316 HD
BRANCH   2   4
HETATM    4  C   UNL     1     -44.629 -52.499  13.004  1.00  0.00     0.233 C 
HETATM    5  C   UNL     1     -43.997 -51.822  14.247  1.00  0.00     0.069 C 
HETATM    6  C   UNL     1     -44.247 -53.120  15.050  1.00  0.00     0.133 C 
HETATM    7  C   UNL     1     -45.329 -53.512  13.982  1.00  0.00     0.009 C 
HETATM    8  C   UNL     1     -45.352 -55.014  13.689  1.00  0.00     0.020 C 
HETATM    9  C   UNL     1     -46.756 -53.029  14.296  1.00  0.00     0.020 C 
BRANCH   6  10
HETATM   10  O   UNL     1     -44.696 -52.965  16.414  1.00  0.00    -0.385 OA
BRANCH  10  11
HETATM   11  C   UNL     1     -44.199 -53.937  17.332  1.00  0.00     0.163 C 
HETATM   12  C   UNL     1     -43.024 -54.661  16.712  1.00  0.00     0.033 C 
ENDBRANCH  10  11
ENDBRANCH   6  10
ENDBRANCH   2   4
ENDBRANCH   1   2
BRANCH   1  13
HETATM   13  C   UNL     1     -41.012 -52.963  12.428  1.00  0.00     0.110 C 
HETATM   14  C   UNL     1     -41.184 -54.160  13.376  1.00  0.00     0.053 C 
BRANCH  13  15
HETATM   15  O   UNL     1     -40.583 -53.475  11.148  1.00  0.00    -0.383 OA
HETATM   16  H   UNL     1     -39.852 -54.089  11.321  1.00  0.00     0.211 HD
ENDBRANCH  13  15
BRANCH  13  17
HETATM   17  C   UNL     1     -39.980 -52.003  12.964  1.00  0.00     0.011 A 
HETATM   18  C   UNL     1     -39.085 -52.204  14.043  1.00  0.00     0.119 A 
HETATM   19  N   UNL     1     -38.306 -51.146  14.277  1.00  0.00    -0.310 N 
HETATM   20  N   UNL     1     -38.693 -50.257  13.347  1.00  0.00    -0.307 N 
ATOM     21  HN  UNL     1     -37.586 -51.038  14.993  1.00  0.00     0.186 HD
HETATM   22  C   UNL     1     -38.067 -48.960  13.276  1.00  0.00     0.177 C 
HETATM   23  C   UNL     1     -39.690 -50.718  12.541  1.00  0.00     0.121 A 
ENDBRANCH  13  17
ENDBRANCH   1  13
TORSDOF 7
ENDMDL
MODEL 5
REMARK VINA RESULT:      -5.6      3.093      4.371
REMARK  7 active torsions:
REMARK  status: ('A' for Active; 'I' for Inactive)
REMARK    1  A    between atoms: C_2  and  O_3 
REMARK    2  A    between atoms: O_3  and  C_4 
REMARK    3  A    between atoms: C_6  and  N_7 
REMARK    4  A    between atoms: N_7  and  C_8 
REMARK    5  A    between atoms: C_8  and  C_9 
REMARK    6  A    between atoms: C_9  and  O_11 
REMARK    7  A    between atoms: C_9  and  C_12 
ROOT
HETATM    1  C   UNL     1     -41.565 -47.761  10.674  1.00  0.00     0.312 C 
ENDROOT
BRANCH   1   2
HETATM    2  N   UNL     1     -41.001 -47.948  12.028  1.00  0.00     0.092 N 
HETATM    3  H   UNL     1     -40.995 -47.043  12.495  1.00  0.00     0.316 HD
BRANCH   2   4
HETATM    4  C   UNL     1     -39.678 -48.591  11.923  1.00  0.00     0.233 C 
HETATM    5  C   UNL     1     -39.873 -49.967  11.237  1.00  0.00     0.069 C 
HETATM    6  C   UNL     1     -40.018 -50.614  12.635  1.00  0.00     0.133 C 
HETATM    7  C   UNL     1     -39.283 -49.363  13.235  1.00  0.00     0.009 C 
HETATM    8  C   UNL     1     -39.839 -48.950  14.599  1.00  0.00     0.020 C 
HETATM    9  C   UNL     1     -37.752 -49.489  13.322  1.00  0.00     0.020 C 
BRANCH   6  10
HETATM   10  O   UNL     1     -39.387 -51.900  12.825  1.00  0.00    -0.385 OA
BRANCH  10  11
HETATM   11  C   UNL     1     -40.117 -52.821  13.633  1.00  0.00     0.163 C 
HETATM   12  C   UNL     1     -40.937 -53.731  12.746  1.00  0.00     0.033 C 
ENDBRANCH  10  11
ENDBRANCH   6  10
ENDBRANCH   2   4
ENDBRANCH   1   2
BRANCH   1  13
HETATM   13  C   UNL     1     -42.166 -46.340  10.439  1.00  0.00     0.110 C 
HETATM   14  C   UNL     1     -42.200 -45.534  11.747  1.00  0.00     0.053 C 
BRANCH  13  15
HETATM   15  O   UNL     1     -41.294 -45.646   9.520  1.00  0.00    -0.383 OA
HETATM   16  H   UNL     1     -40.891 -44.913  10.013  1.00  0.00     0.211 HD
ENDBRANCH  13  15
BRANCH  13  17
HETATM   17  C   UNL     1     -43.547 -46.450   9.845  1.00  0.00     0.011 A 
HETATM   18  C   UNL     1     -44.249 -45.478   9.092  1.00  0.00     0.119 A 
HETATM   19  N   UNL     1     -45.466 -45.883   8.724  1.00  0.00    -0.310 N 
HETATM   20  N   UNL     1     -45.554 -47.122   9.237  1.00  0.00    -0.307 N 
ATOM     21  HN  UNL     1     -46.164 -45.373   8.182  1.00  0.00     0.186 HD
HETATM   22  C   UNL     1     -46.751 -47.904   9.046  1.00  0.00     0.177 C 
HETATM   23  C   UNL     1     -44.438 -47.506   9.917  1.00  0.00     0.121 A 
ENDBRANCH  13  17
ENDBRANCH   1  13
TORSDOF 7
ENDMDL
MODEL 6
REMARK VINA RESULT:      -5.6      4.408      5.532
REMARK  7 active torsions:
REMARK  status: ('A' for Active; 'I' for Inactive)
REMARK    1  A    between atoms: C_2  and  O_3 
REMARK    2  A    between atoms: O_3  and  C_4 
REMARK    3  A    between atoms: C_6  and  N_7 
REMARK    4  A    between atoms: N_7  and  C_8 
REMARK    5  A    between atoms: C_8  and  C_9 
REMARK    6  A    between atoms: C_9  and  O_11 
REMARK    7  A    between atoms: C_9  and  C_12 
ROOT
HETATM    1  C   UNL     1     -40.885 -54.106  13.136  1.00  0.00     0.312 C 
ENDROOT
BRANCH   1   2
HETATM    2  N   UNL     1     -42.083 -53.499  13.754  1.00  0.00     0.092 N 
HETATM    3  H   UNL     1     -41.993 -53.583  14.766  1.00  0.00     0.316 HD
BRANCH   2   4
HETATM    4  C   UNL     1     -43.295 -54.124  13.194  1.00  0.00     0.233 C 
HETATM    5  C   UNL     1     -44.074 -53.034  12.415  1.00  0.00     0.069 C 
HETATM    6  C   UNL     1     -44.886 -52.734  13.697  1.00  0.00     0.133 C 
HETATM    7  C   UNL     1     -44.482 -54.156  14.225  1.00  0.00     0.009 C 
HETATM    8  C   UNL     1     -44.226 -54.175  15.733  1.00  0.00     0.020 C 
HETATM    9  C   UNL     1     -45.458 -55.287  13.856  1.00  0.00     0.020 C 
BRANCH   6  10
HETATM   10  O   UNL     1     -46.296 -52.472  13.527  1.00  0.00    -0.385 OA
BRANCH  10  11
HETATM   11  C   UNL     1     -46.799 -51.355  14.259  1.00  0.00     0.163 C 
HETATM   12  C   UNL     1     -47.145 -51.789  15.666  1.00  0.00     0.033 C 
ENDBRANCH  10  11
ENDBRANCH   6  10
ENDBRANCH   2   4
ENDBRANCH   1   2
BRANCH   1  13
HETATM   13  C   UNL     1     -39.659 -54.188  14.098  1.00  0.00     0.110 C 
HETATM   14  C   UNL     1     -40.006 -54.988  15.363  1.00  0.00     0.053 C 
BRANCH  13  15
HETATM   15  O   UNL     1     -38.609 -54.898  13.405  1.00  0.00    -0.383 OA
HETATM   16  H   UNL     1     -37.892 -55.033  14.044  1.00  0.00     0.211 HD
ENDBRANCH  13  15
BRANCH  13  17
HETATM   17  C   UNL     1     -39.186 -52.802  14.456  1.00  0.00     0.011 A 
HETATM   18  C   UNL     1     -38.910 -51.724  13.580  1.00  0.00     0.119 A 
HETATM   19  N   UNL     1     -38.490 -50.630  14.217  1.00  0.00    -0.310 N 
HETATM   20  N   UNL     1     -38.494 -50.996  15.510  1.00  0.00    -0.307 N 
ATOM     21  HN  UNL     1     -38.228 -49.728  13.817  1.00  0.00     0.186 HD
HETATM   22  C   UNL     1     -38.093 -50.060  16.531  1.00  0.00     0.177 C 
HETATM   23  C   UNL     1     -38.898 -52.282  15.706  1.00  0.00     0.121 A 
ENDBRANCH  13  17
ENDBRANCH   1  13
TORSDOF 7
ENDMDL
MODEL 7
REMARK VINA RESULT:      -5.5      2.019      3.040
REMARK  7 active torsions:
REMARK  status: ('A' for Active; 'I' for Inactive)
REMARK    1  A    between atoms: C_2  and  O_3 
REMARK    2  A    between atoms: O_3  and  C_4 
REMARK    3  A    between atoms: C_6  and  N_7 
REMARK    4  A    between atoms: N_7  and  C_8 
REMARK    5  A    between atoms: C_8  and  C_9 
REMARK    6  A    between atoms: C_9  and  O_11 
REMARK    7  A    between atoms: C_9  and  C_12 
ROOT
HETATM    1  C   UNL     1     -42.416 -51.554  12.913  1.00  0.00     0.312 C 
ENDROOT
BRANCH   1   2
HETATM    2  N   UNL     1     -42.615 -52.795  13.692  1.00  0.00     0.092 N 
HETATM    3  H   UNL     1     -41.755 -53.339  13.644  1.00  0.00     0.316 HD
BRANCH   2   4
HETATM    4  C   UNL     1     -43.812 -53.498  13.198  1.00  0.00     0.233 C 
HETATM    5  C   UNL     1     -44.924 -52.441  12.972  1.00  0.00     0.069 C 
HETATM    6  C   UNL     1     -45.429 -52.702  14.411  1.00  0.00     0.133 C 
HETATM    7  C   UNL     1     -44.686 -54.084  14.367  1.00  0.00     0.009 C 
HETATM    8  C   UNL     1     -44.064 -54.463  15.712  1.00  0.00     0.020 C 
HETATM    9  C   UNL     1     -45.531 -55.259  13.843  1.00  0.00     0.020 C 
BRANCH   6  10
HETATM   10  O   UNL     1     -46.861 -52.730  14.602  1.00  0.00    -0.385 OA
BRANCH  10  11
HETATM   11  C   UNL     1     -47.344 -51.944  15.688  1.00  0.00     0.163 C 
HETATM   12  C   UNL     1     -46.229 -51.065  16.211  1.00  0.00     0.033 C 
ENDBRANCH  10  11
ENDBRANCH   6  10
ENDBRANCH   2   4
ENDBRANCH   1   2
BRANCH   1  13
HETATM   13  C   UNL     1     -41.047 -51.499  12.166  1.00  0.00     0.110 C 
HETATM   14  C   UNL     1     -39.916 -52.045  13.051  1.00  0.00     0.053 C 
BRANCH  13  15
HETATM   15  O   UNL     1     -41.149 -52.354  11.007  1.00  0.00    -0.383 OA
HETATM   16  H   UNL     1     -40.370 -52.176  10.456  1.00  0.00     0.211 HD
ENDBRANCH  13  15
BRANCH  13  17
HETATM   17  C   UNL     1     -40.748 -50.086  11.732  1.00  0.00     0.011 A 
HETATM   18  C   UNL     1     -39.481 -49.468  11.597  1.00  0.00     0.119 A 
HETATM   19  N   UNL     1     -39.561 -48.195  11.206  1.00  0.00    -0.310 N 
HETATM   20  N   UNL     1     -40.883 -47.985  11.085  1.00  0.00    -0.307 N 
ATOM     21  HN  UNL     1     -38.800 -47.537  11.039  1.00  0.00     0.186 HD
HETATM   22  C   UNL     1     -41.378 -46.696  10.670  1.00  0.00     0.177 C 
HETATM   23  C   UNL     1     -41.634 -49.080  11.389  1.00  0.00     0.121 A 
ENDBRANCH  13  17
ENDBRANCH   1  13
TORSDOF 7
ENDMDL
MODEL 8
REMARK VINA RESULT:      -5.5      1.809      2.921
REMARK  7 active torsions:
REMARK  status: ('A' for Active; 'I' for Inactive)
REMARK    1  A    between atoms: C_2  and  O_3 
REMARK    2  A    between atoms: O_3  and  C_4 
REMARK    3  A    between atoms: C_6  and  N_7 
REMARK    4  A    between atoms: N_7  and  C_8 
REMARK    5  A    between atoms: C_8  and  C_9 
REMARK    6  A    between atoms: C_9  and  O_11 
REMARK    7  A    between atoms: C_9  and  C_12 
ROOT
HETATM    1  C   UNL     1     -41.984 -49.898  12.135  1.00  0.00     0.312 C 
ENDROOT
BRANCH   1   2
HETATM    2  N   UNL     1     -41.867 -51.371  12.093  1.00  0.00     0.092 N 
HETATM    3  H   UNL     1     -42.298 -51.698  11.230  1.00  0.00     0.316 HD
BRANCH   2   4
HETATM    4  C   UNL     1     -42.447 -51.944  13.322  1.00  0.00     0.233 C 
HETATM    5  C   UNL     1     -41.715 -51.310  14.532  1.00  0.00     0.069 C 
HETATM    6  C   UNL     1     -40.717 -52.492  14.516  1.00  0.00     0.133 C 
HETATM    7  C   UNL     1     -41.784 -53.316  13.712  1.00  0.00     0.009 C 
HETATM    8  C   UNL     1     -41.155 -54.225  12.654  1.00  0.00     0.020 C 
HETATM    9  C   UNL     1     -42.759 -54.135  14.577  1.00  0.00     0.020 C 
BRANCH   6  10
HETATM   10  O   UNL     1     -40.310 -53.018  15.798  1.00  0.00    -0.385 OA
BRANCH  10  11
HETATM   11  C   UNL     1     -38.967 -53.494  15.861  1.00  0.00     0.163 C 
HETATM   12  C   UNL     1     -38.948 -54.985  15.610  1.00  0.00     0.033 C 
ENDBRANCH  10  11
ENDBRANCH   6  10
ENDBRANCH   2   4
ENDBRANCH   1   2
BRANCH   1  13
HETATM   13  C   UNL     1     -40.907 -49.162  11.279  1.00  0.00     0.110 C 
HETATM   14  C   UNL     1     -39.690 -48.779  12.137  1.00  0.00     0.053 C 
BRANCH  13  15
HETATM   15  O   UNL     1     -40.454 -50.083  10.263  1.00  0.00    -0.383 OA
HETATM   16  H   UNL     1     -39.507 -50.227  10.416  1.00  0.00     0.211 HD
ENDBRANCH  13  15
BRANCH  13  17
HETATM   17  C   UNL     1     -41.505 -47.940  10.629  1.00  0.00     0.011 A 
HETATM   18  C   UNL     1     -41.001 -46.616  10.638  1.00  0.00     0.119 A 
HETATM   19  N   UNL     1     -41.781 -45.757   9.979  1.00  0.00    -0.310 N 
HETATM   20  N   UNL     1     -42.792 -46.525   9.537  1.00  0.00    -0.307 N 
ATOM     21  HN  UNL     1     -41.642 -44.756   9.842  1.00  0.00     0.186 HD
HETATM   22  C   UNL     1     -43.860 -45.943   8.763  1.00  0.00     0.177 C 
HETATM   23  C   UNL     1     -42.676 -47.833   9.900  1.00  0.00     0.121 A 
ENDBRANCH  13  17
ENDBRANCH   1  13
TORSDOF 7
ENDMDL
MODEL 9
REMARK VINA RESULT:      -5.3      3.131      4.491
REMARK  7 active torsions:
REMARK  status: ('A' for Active; 'I' for Inactive)
REMARK    1  A    between atoms: C_2  and  O_3 
REMARK    2  A    between atoms: O_3  and  C_4 
REMARK    3  A    between atoms: C_6  and  N_7 
REMARK    4  A    between atoms: N_7  and  C_8 
REMARK    5  A    between atoms: C_8  and  C_9 
REMARK    6  A    between atoms: C_9  and  O_11 
REMARK    7  A    between atoms: C_9  and  C_12 
ROOT
HETATM    1  C   UNL     1     -41.621 -53.398  14.463  1.00  0.00     0.312 C 
ENDROOT
BRANCH   1   2
HETATM    2  N   UNL     1     -42.896 -54.013  14.035  1.00  0.00     0.092 N 
HETATM    3  H   UNL     1     -42.679 -54.770  13.388  1.00  0.00     0.316 HD
BRANCH   2   4
HETATM    4  C   UNL     1     -43.783 -52.972  13.485  1.00  0.00     0.233 C 
HETATM    5  C   UNL     1     -43.906 -51.846  14.543  1.00  0.00     0.069 C 
HETATM    6  C   UNL     1     -45.165 -52.547  15.106  1.00  0.00     0.133 C 
HETATM    7  C   UNL     1     -45.303 -53.292  13.731  1.00  0.00     0.009 C 
HETATM    8  C   UNL     1     -45.799 -54.731  13.886  1.00  0.00     0.020 C 
HETATM    9  C   UNL     1     -46.162 -52.564  12.682  1.00  0.00     0.020 C 
BRANCH   6  10
HETATM   10  O   UNL     1     -46.260 -51.694  15.505  1.00  0.00    -0.385 OA
BRANCH  10  11
HETATM   11  C   UNL     1     -46.898 -52.057  16.728  1.00  0.00     0.163 C 
HETATM   12  C   UNL     1     -48.008 -51.075  17.029  1.00  0.00     0.033 C 
ENDBRANCH  10  11
ENDBRANCH   6  10
ENDBRANCH   2   4
ENDBRANCH   1   2
BRANCH   1  13
HETATM   13  C   UNL     1     -40.479 -53.530  13.408  1.00  0.00     0.110 C 
HETATM   14  C   UNL     1     -39.174 -54.003  14.069  1.00  0.00     0.053 C 
BRANCH  13  15
HETATM   15  O   UNL     1     -40.880 -54.541  12.457  1.00  0.00    -0.383 OA
HETATM   16  H   UNL     1     -41.117 -54.078  11.638  1.00  0.00     0.211 HD
ENDBRANCH  13  15
BRANCH  13  17
HETATM   17  C   UNL     1     -40.271 -52.216  12.698  1.00  0.00     0.011 A 
HETATM   18  C   UNL     1     -41.012 -51.688  11.614  1.00  0.00     0.119 A 
HETATM   19  N   UNL     1     -40.561 -50.502  11.202  1.00  0.00    -0.310 N 
HETATM   20  N   UNL     1     -39.524 -50.258  12.023  1.00  0.00    -0.307 N 
ATOM     21  HN  UNL     1     -40.917 -49.919  10.445  1.00  0.00     0.186 HD
HETATM   22  C   UNL     1     -38.763 -49.041  11.887  1.00  0.00     0.177 C 
HETATM   23  C   UNL     1     -39.308 -51.250  12.930  1.00  0.00     0.121 A 
ENDBRANCH  13  17
ENDBRANCH   1  13
TORSDOF 7
ENDMDL
