MODEL 1
REMARK VINA RESULT:      -6.0      0.000      0.000
REMARK  6 active torsions:
REMARK  status: ('A' for Active; 'I' for Inactive)
REMARK    1  A    between atoms: C_2  and  N_3 
REMARK       I    between atoms: N_3  and  C_4 
REMARK    2  A    between atoms: C_4  and  C_6 
REMARK    3  A    between atoms: C_6  and  N_7 
REMARK       I    between atoms: N_7  and  C_8 
REMARK    4  A    between atoms: C_8  and  C_10 
REMARK    5  A    between atoms: C_10  and  C_11 
REMARK    6  A    between atoms: C_14  and  C_17 
ROOT
HETATM    1  N   UNL     1     -40.664 -50.560  11.147  1.00  0.00    -0.352 N 
HETATM    2  C   UNL     1     -40.911 -51.221  12.328  1.00  0.00     0.223 C 
HETATM    3  O   UNL     1     -40.842 -50.660  13.419  1.00  0.00    -0.273 OA
HETATM    4  H   UNL     1     -40.825 -51.034  10.266  1.00  0.00     0.162 HD
ENDROOT
BRANCH   2   5
HETATM    5  C   UNL     1     -41.308 -52.675  12.180  1.00  0.00     0.160 C 
BRANCH   5   6
HETATM    6  C   UNL     1     -42.703 -52.924  12.647  1.00  0.00     0.025 A 
HETATM    7  C   UNL     1     -43.172 -54.054  13.290  1.00  0.00     0.077 A 
HETATM    8  S   UNL     1     -44.824 -53.865  13.692  1.00  0.00    -0.086 SA
HETATM    9  C   UNL     1     -44.801 -52.283  13.015  1.00  0.00     0.054 A 
HETATM   10  N   UNL     1     -43.650 -51.920  12.483  1.00  0.00    -0.356 N 
ATOM     11  HN  UNL     1     -43.478 -51.028  12.018  1.00  0.00     0.166 HD
BRANCH   9  12
HETATM   12  C   UNL     1     -46.033 -51.415  13.080  1.00  0.00     0.035 C 
HETATM   13  C   UNL     1     -46.989 -51.759  11.937  1.00  0.00     0.016 C 
HETATM   14  C   UNL     1     -46.733 -51.557  14.430  1.00  0.00     0.016 C 
ENDBRANCH   9  12
ENDBRANCH   5   6
ENDBRANCH   2   5
BRANCH   1  15
HETATM   15  C   UNL     1     -40.260 -49.164  11.107  1.00  0.00     0.225 C 
BRANCH  15  16
HETATM   16  C   UNL     1     -41.444 -48.225  10.853  1.00  0.00     0.235 C 
HETATM   17  N   UNL     1     -41.967 -48.300   9.581  1.00  0.00    -0.360 N 
HETATM   18  H   UNL     1     -41.535 -48.947   8.921  1.00  0.00     0.162 HD
HETATM   19  O   UNL     1     -41.914 -47.516  11.739  1.00  0.00    -0.272 OA
BRANCH  17  20
HETATM   20  C   UNL     1     -43.099 -47.506   9.157  1.00  0.00     0.118 C 
HETATM   21  C   UNL     1     -43.511 -47.828   7.732  1.00  0.00     0.026 C 
ENDBRANCH  17  20
ENDBRANCH  15  16
ENDBRANCH   1  15
TORSDOF 6
ENDMDL
MODEL 2
REMARK VINA RESULT:      -5.8      1.854      2.298
REMARK  6 active torsions:
REMARK  status: ('A' for Active; 'I' for Inactive)
REMARK    1  A    between atoms: C_2  and  N_3 
REMARK       I    between atoms: N_3  and  C_4 
REMARK    2  A    between atoms: C_4  and  C_6 
REMARK    3  A    between atoms: C_6  and  N_7 
REMARK       I    between atoms: N_7  and  C_8 
REMARK    4  A    between atoms: C_8  and  C_10 
REMARK    5  A    between atoms: C_10  and  C_11 
REMARK    6  A    between atoms: C_14  and  C_17 
ROOT
HETATM    1  N   UNL     1     -41.984 -48.811  10.557  1.00  0.00    -0.352 N 
HETATM    2  C   UNL     1     -41.835 -49.125  11.887  1.00  0.00     0.223 C 
HETATM    3  O   UNL     1     -42.028 -48.302  12.780  1.00  0.00    -0.273 OA
HETATM    4  H   UNL     1     -41.908 -49.542   9.860  1.00  0.00     0.162 HD
ENDROOT
BRANCH   2   5
HETATM    5  C   UNL     1     -41.450 -50.562  12.170  1.00  0.00     0.160 C 
BRANCH   5   6
HETATM    6  C   UNL     1     -42.553 -51.315  12.834  1.00  0.00     0.025 A 
HETATM    7  C   UNL     1     -42.425 -52.414  13.663  1.00  0.00     0.077 A 
HETATM    8  S   UNL     1     -43.959 -52.903  14.242  1.00  0.00    -0.086 SA
HETATM    9  C   UNL     1     -44.690 -51.606  13.379  1.00  0.00     0.054 A 
HETATM   10  N   UNL     1     -43.859 -50.868  12.668  1.00  0.00    -0.356 N 
ATOM     11  HN  UNL     1     -44.135 -50.082  12.081  1.00  0.00     0.166 HD
BRANCH   9  12
HETATM   12  C   UNL     1     -46.175 -51.366  13.491  1.00  0.00     0.035 C 
HETATM   13  C   UNL     1     -46.880 -51.769  12.195  1.00  0.00     0.016 C 
HETATM   14  C   UNL     1     -46.764 -52.121  14.682  1.00  0.00     0.016 C 
ENDBRANCH   9  12
ENDBRANCH   5   6
ENDBRANCH   2   5
BRANCH   1  15
HETATM   15  C   UNL     1     -42.338 -47.475  10.107  1.00  0.00     0.225 C 
BRANCH  15  16
HETATM   16  C   UNL     1     -43.550 -47.481   9.170  1.00  0.00     0.235 C 
HETATM   17  N   UNL     1     -44.738 -47.131   9.775  1.00  0.00    -0.360 N 
HETATM   18  H   UNL     1     -44.723 -46.910  10.770  1.00  0.00     0.162 HD
HETATM   19  O   UNL     1     -43.445 -47.722   7.970  1.00  0.00    -0.272 OA
BRANCH  17  20
HETATM   20  C   UNL     1     -45.988 -47.061   9.051  1.00  0.00     0.118 C 
HETATM   21  C   UNL     1     -46.673 -48.413   8.980  1.00  0.00     0.026 C 
ENDBRANCH  17  20
ENDBRANCH  15  16
ENDBRANCH   1  15
TORSDOF 6
ENDMDL
MODEL 3
REMARK VINA RESULT:      -5.7      2.028      3.258
REMARK  6 active torsions:
REMARK  status: ('A' for Active; 'I' for Inactive)
REMARK    1  A    between atoms: C_2  and  N_3 
REMARK       I    between atoms: N_3  and  C_4 
REMARK    2  A    between atoms: C_4  and  C_6 
REMARK    3  A    between atoms: C_6  and  N_7 
REMARK       I    between atoms: N_7  and  C_8 
REMARK    4  A    between atoms: C_8  and  C_10 
REMARK    5  A    between atoms: C_10  and  C_11 
REMARK    6  A    between atoms: C_14  and  C_17 
ROOT
HETATM    1  N   UNL     1     -41.405 -47.958  10.255  1.00  0.00    -0.352 N 
HETATM    2  C   UNL     1     -41.558 -48.946  11.199  1.00  0.00     0.223 C 
HETATM    3  O   UNL     1     -42.496 -48.953  11.993  1.00  0.00    -0.273 OA
HETATM    4  H   UNL     1     -40.673 -48.040   9.559  1.00  0.00     0.162 HD
ENDROOT
BRANCH   2   5
HETATM    5  C   UNL     1     -40.509 -50.038  11.162  1.00  0.00     0.160 C 
BRANCH   5   6
HETATM    6  C   UNL     1     -40.849 -51.170  12.071  1.00  0.00     0.025 A 
HETATM    7  C   UNL     1     -40.170 -51.548  13.215  1.00  0.00     0.077 A 
HETATM    8  S   UNL     1     -40.963 -52.863  13.969  1.00  0.00    -0.086 SA
HETATM    9  C   UNL     1     -42.174 -52.825  12.746  1.00  0.00     0.054 A 
HETATM   10  N   UNL     1     -41.990 -51.918  11.806  1.00  0.00    -0.356 N 
ATOM     11  HN  UNL     1     -42.599 -51.785  10.999  1.00  0.00     0.166 HD
BRANCH   9  12
HETATM   12  C   UNL     1     -43.348 -53.768  12.817  1.00  0.00     0.035 C 
HETATM   13  C   UNL     1     -43.434 -54.411  14.202  1.00  0.00     0.016 C 
HETATM   14  C   UNL     1     -44.651 -53.048  12.476  1.00  0.00     0.016 C 
ENDBRANCH   9  12
ENDBRANCH   5   6
ENDBRANCH   2   5
BRANCH   1  15
HETATM   15  C   UNL     1     -42.314 -46.827  10.157  1.00  0.00     0.225 C 
BRANCH  15  16
HETATM   16  C   UNL     1     -43.451 -47.083   9.161  1.00  0.00     0.235 C 
HETATM   17  N   UNL     1     -44.537 -47.742   9.695  1.00  0.00    -0.360 N 
HETATM   18  H   UNL     1     -44.500 -48.009  10.679  1.00  0.00     0.162 HD
HETATM   19  O   UNL     1     -43.406 -46.675   8.003  1.00  0.00    -0.272 OA
BRANCH  17  20
HETATM   20  C   UNL     1     -45.715 -48.056   8.917  1.00  0.00     0.118 C 
HETATM   21  C   UNL     1     -46.804 -47.014   9.100  1.00  0.00     0.026 C 
ENDBRANCH  17  20
ENDBRANCH  15  16
ENDBRANCH   1  15
TORSDOF 6
ENDMDL
MODEL 4
REMARK VINA RESULT:      -5.5      2.279      5.574
REMARK  6 active torsions:
REMARK  status: ('A' for Active; 'I' for Inactive)
REMARK    1  A    between atoms: C_2  and  N_3 
REMARK       I    between atoms: N_3  and  C_4 
REMARK    2  A    between atoms: C_4  and  C_6 
REMARK    3  A    between atoms: C_6  and  N_7 
REMARK       I    between atoms: N_7  and  C_8 
REMARK    4  A    between atoms: C_8  and  C_10 
REMARK    5  A    between atoms: C_10  and  C_11 
REMARK    6  A    between atoms: C_14  and  C_17 
ROOT
HETATM    1  N   UNL     1     -41.111 -51.576  11.364  1.00  0.00    -0.352 N 
HETATM    2  C   UNL     1     -40.149 -50.750  11.895  1.00  0.00     0.223 C 
HETATM    3  O   UNL     1     -39.505 -51.055  12.897  1.00  0.00    -0.273 OA
HETATM    4  H   UNL     1     -41.550 -51.330  10.484  1.00  0.00     0.162 HD
ENDROOT
BRANCH   2   5
HETATM    5  C   UNL     1     -39.919 -49.459  11.137  1.00  0.00     0.160 C 
BRANCH   5   6
HETATM    6  C   UNL     1     -41.149 -48.618  11.080  1.00  0.00     0.025 A 
HETATM    7  C   UNL     1     -41.654 -47.818  12.088  1.00  0.00     0.077 A 
HETATM    8  S   UNL     1     -43.050 -46.990  11.546  1.00  0.00    -0.086 SA
HETATM    9  C   UNL     1     -42.875 -47.722   9.999  1.00  0.00     0.054 A 
HETATM   10  N   UNL     1     -41.866 -48.564   9.890  1.00  0.00    -0.356 N 
ATOM     11  HN  UNL     1     -41.642 -49.101   9.051  1.00  0.00     0.166 HD
BRANCH   9  12
HETATM   12  C   UNL     1     -43.824 -47.364   8.883  1.00  0.00     0.035 C 
HETATM   13  C   UNL     1     -44.029 -45.850   8.821  1.00  0.00     0.016 C 
HETATM   14  C   UNL     1     -43.319 -47.896   7.542  1.00  0.00     0.016 C 
ENDBRANCH   9  12
ENDBRANCH   5   6
ENDBRANCH   2   5
BRANCH   1  15
HETATM   15  C   UNL     1     -41.468 -52.847  11.972  1.00  0.00     0.225 C 
BRANCH  15  16
HETATM   16  C   UNL     1     -42.744 -52.748  12.814  1.00  0.00     0.235 C 
HETATM   17  N   UNL     1     -43.883 -53.192  12.177  1.00  0.00    -0.360 N 
HETATM   18  H   UNL     1     -43.795 -53.534  11.220  1.00  0.00     0.162 HD
HETATM   19  O   UNL     1     -42.727 -52.358  13.979  1.00  0.00    -0.272 OA
BRANCH  17  20
HETATM   20  C   UNL     1     -45.180 -53.195  12.816  1.00  0.00     0.118 C 
HETATM   21  C   UNL     1     -46.099 -52.140  12.228  1.00  0.00     0.026 C 
ENDBRANCH  17  20
ENDBRANCH  15  16
ENDBRANCH   1  15
TORSDOF 6
ENDMDL
MODEL 5
REMARK VINA RESULT:      -5.4      2.084      2.997
REMARK  6 active torsions:
REMARK  status: ('A' for Active; 'I' for Inactive)
REMARK    1  A    between atoms: C_2  and  N_3 
REMARK       I    between atoms: N_3  and  C_4 
REMARK    2  A    between atoms: C_4  and  C_6 
REMARK    3  A    between atoms: C_6  and  N_7 
REMARK       I    between atoms: N_7  and  C_8 
REMARK    4  A    between atoms: C_8  and  C_10 
REMARK    5  A    between atoms: C_10  and  C_11 
REMARK    6  A    between atoms: C_14  and  C_17 
ROOT
HETATM    1  N   UNL     1     -41.827 -48.790  10.613  1.00  0.00    -0.352 N 
HETATM    2  C   UNL     1     -41.786 -49.516  11.781  1.00  0.00     0.223 C 
HETATM    3  O   UNL     1     -42.528 -49.271  12.730  1.00  0.00    -0.273 OA
HETATM    4  H   UNL     1     -41.267 -49.085   9.822  1.00  0.00     0.162 HD
ENDROOT
BRANCH   2   5
HETATM    5  C   UNL     1     -40.789 -50.656  11.795  1.00  0.00     0.160 C 
BRANCH   5   6
HETATM    6  C   UNL     1     -41.389 -51.917  12.317  1.00  0.00     0.025 A 
HETATM    7  C   UNL     1     -40.765 -52.871  13.099  1.00  0.00     0.077 A 
HETATM    8  S   UNL     1     -41.866 -54.114  13.511  1.00  0.00    -0.086 SA
HETATM    9  C   UNL     1     -43.107 -53.290  12.650  1.00  0.00     0.054 A 
HETATM   10  N   UNL     1     -42.730 -52.175  12.055  1.00  0.00    -0.356 N 
ATOM     11  HN  UNL     1     -43.335 -51.585  11.484  1.00  0.00     0.166 HD
BRANCH   9  12
HETATM   12  C   UNL     1     -44.511 -53.842  12.637  1.00  0.00     0.035 C 
HETATM   13  C   UNL     1     -44.728 -54.775  13.829  1.00  0.00     0.016 C 
HETATM   14  C   UNL     1     -45.543 -52.715  12.640  1.00  0.00     0.016 C 
ENDBRANCH   9  12
ENDBRANCH   5   6
ENDBRANCH   2   5
BRANCH   1  15
HETATM   15  C   UNL     1     -42.717 -47.655  10.433  1.00  0.00     0.225 C 
BRANCH  15  16
HETATM   16  C   UNL     1     -41.950 -46.354  10.171  1.00  0.00     0.235 C 
HETATM   17  N   UNL     1     -40.601 -46.424  10.448  1.00  0.00    -0.360 N 
HETATM   18  H   UNL     1     -40.229 -47.304  10.804  1.00  0.00     0.162 HD
HETATM   19  O   UNL     1     -42.495 -45.361   9.696  1.00  0.00    -0.272 OA
BRANCH  17  20
HETATM   20  C   UNL     1     -39.708 -45.304  10.247  1.00  0.00     0.118 C 
HETATM   21  C   UNL     1     -39.560 -44.469  11.505  1.00  0.00     0.026 C 
ENDBRANCH  17  20
ENDBRANCH  15  16
ENDBRANCH   1  15
TORSDOF 6
ENDMDL
MODEL 6
REMARK VINA RESULT:      -5.4      1.378      1.686
REMARK  6 active torsions:
REMARK  status: ('A' for Active; 'I' for Inactive)
REMARK    1  A    between atoms: C_2  and  N_3 
REMARK       I    between atoms: N_3  and  C_4 
REMARK    2  A    between atoms: C_4  and  C_6 
REMARK    3  A    between atoms: C_6  and  N_7 
REMARK       I    between atoms: N_7  and  C_8 
REMARK    4  A    between atoms: C_8  and  C_10 
REMARK    5  A    between atoms: C_10  and  C_11 
REMARK    6  A    between atoms: C_14  and  C_17 
ROOT
HETATM    1  N   UNL     1     -40.680 -50.871  11.205  1.00  0.00    -0.352 N 
HETATM    2  C   UNL     1     -40.940 -51.443  12.428  1.00  0.00     0.223 C 
HETATM    3  O   UNL     1     -40.867 -50.808  13.478  1.00  0.00    -0.273 OA
HETATM    4  H   UNL     1     -40.845 -51.403  10.359  1.00  0.00     0.162 HD
ENDROOT
BRANCH   2   5
HETATM    5  C   UNL     1     -41.355 -52.899  12.381  1.00  0.00     0.160 C 
BRANCH   5   6
HETATM    6  C   UNL     1     -42.785 -53.085  12.763  1.00  0.00     0.025 A 
HETATM    7  C   UNL     1     -43.345 -54.197  13.364  1.00  0.00     0.077 A 
HETATM    8  S   UNL     1     -45.007 -53.931  13.672  1.00  0.00    -0.086 SA
HETATM    9  C   UNL     1     -44.868 -52.347  13.016  1.00  0.00     0.054 A 
HETATM   10  N   UNL     1     -43.672 -52.034  12.557  1.00  0.00    -0.356 N 
ATOM     11  HN  UNL     1     -43.431 -51.148  12.113  1.00  0.00     0.166 HD
BRANCH   9  12
HETATM   12  C   UNL     1     -46.059 -51.421  13.020  1.00  0.00     0.035 C 
HETATM   13  C   UNL     1     -47.008 -51.766  11.871  1.00  0.00     0.016 C 
HETATM   14  C   UNL     1     -46.792 -51.476  14.359  1.00  0.00     0.016 C 
ENDBRANCH   9  12
ENDBRANCH   5   6
ENDBRANCH   2   5
BRANCH   1  15
HETATM   15  C   UNL     1     -40.257 -49.487  11.068  1.00  0.00     0.225 C 
BRANCH  15  16
HETATM   16  C   UNL     1     -41.446 -48.521  11.013  1.00  0.00     0.235 C 
HETATM   17  N   UNL     1     -41.856 -48.053  12.243  1.00  0.00    -0.360 N 
HETATM   18  H   UNL     1     -41.360 -48.382  13.071  1.00  0.00     0.162 HD
HETATM   19  O   UNL     1     -41.941 -48.157   9.949  1.00  0.00    -0.272 OA
BRANCH  17  20
HETATM   20  C   UNL     1     -42.949 -47.119  12.394  1.00  0.00     0.118 C 
HETATM   21  C   UNL     1     -42.452 -45.695  12.569  1.00  0.00     0.026 C 
ENDBRANCH  17  20
ENDBRANCH  15  16
ENDBRANCH   1  15
TORSDOF 6
ENDMDL
MODEL 7
REMARK VINA RESULT:      -5.4      2.694      5.748
REMARK  6 active torsions:
REMARK  status: ('A' for Active; 'I' for Inactive)
REMARK    1  A    between atoms: C_2  and  N_3 
REMARK       I    between atoms: N_3  and  C_4 
REMARK    2  A    between atoms: C_4  and  C_6 
REMARK    3  A    between atoms: C_6  and  N_7 
REMARK       I    between atoms: N_7  and  C_8 
REMARK    4  A    between atoms: C_8  and  C_10 
REMARK    5  A    between atoms: C_10  and  C_11 
REMARK    6  A    between atoms: C_14  and  C_17 
ROOT
HETATM    1  N   UNL     1     -43.212 -53.562  12.142  1.00  0.00    -0.352 N 
HETATM    2  C   UNL     1     -42.335 -52.730  12.797  1.00  0.00     0.223 C 
HETATM    3  O   UNL     1     -42.490 -52.412  13.974  1.00  0.00    -0.273 OA
HETATM    4  H   UNL     1     -42.996 -53.875  11.203  1.00  0.00     0.162 HD
ENDROOT
BRANCH   2   5
HETATM    5  C   UNL     1     -41.151 -52.267  11.974  1.00  0.00     0.160 C 
BRANCH   5   6
HETATM    6  C   UNL     1     -41.111 -50.783  11.838  1.00  0.00     0.025 A 
HETATM    7  C   UNL     1     -39.992 -49.998  11.630  1.00  0.00     0.077 A 
HETATM    8  S   UNL     1     -40.439 -48.354  11.474  1.00  0.00    -0.086 SA
HETATM    9  C   UNL     1     -42.092 -48.794  11.662  1.00  0.00     0.054 A 
HETATM   10  N   UNL     1     -42.309 -50.078  11.868  1.00  0.00    -0.356 N 
ATOM     11  HN  UNL     1     -43.226 -50.496  12.026  1.00  0.00     0.166 HD
BRANCH   9  12
HETATM   12  C   UNL     1     -43.169 -47.742  11.562  1.00  0.00     0.035 C 
HETATM   13  C   UNL     1     -42.981 -46.682  12.648  1.00  0.00     0.016 C 
HETATM   14  C   UNL     1     -43.180 -47.099  10.177  1.00  0.00     0.016 C 
ENDBRANCH   9  12
ENDBRANCH   5   6
ENDBRANCH   2   5
BRANCH   1  15
HETATM   15  C   UNL     1     -44.408 -54.088  12.778  1.00  0.00     0.225 C 
BRANCH  15  16
HETATM   16  C   UNL     1     -45.530 -53.047  12.853  1.00  0.00     0.235 C 
HETATM   17  N   UNL     1     -45.678 -52.458  14.090  1.00  0.00    -0.360 N 
HETATM   18  H   UNL     1     -45.056 -52.757  14.841  1.00  0.00     0.162 HD
HETATM   19  O   UNL     1     -46.193 -52.731  11.868  1.00  0.00    -0.272 OA
BRANCH  17  20
HETATM   20  C   UNL     1     -46.669 -51.439  14.353  1.00  0.00     0.118 C 
HETATM   21  C   UNL     1     -47.151 -51.480  15.792  1.00  0.00     0.026 C 
ENDBRANCH  17  20
ENDBRANCH  15  16
ENDBRANCH   1  15
TORSDOF 6
ENDMDL
MODEL 8
REMARK VINA RESULT:      -5.2      1.885      3.044
REMARK  6 active torsions:
REMARK  status: ('A' for Active; 'I' for Inactive)
REMARK    1  A    between atoms: C_2  and  N_3 
REMARK       I    between atoms: N_3  and  C_4 
REMARK    2  A    between atoms: C_4  and  C_6 
REMARK    3  A    between atoms: C_6  and  N_7 
REMARK       I    between atoms: N_7  and  C_8 
REMARK    4  A    between atoms: C_8  and  C_10 
REMARK    5  A    between atoms: C_10  and  C_11 
REMARK    6  A    between atoms: C_14  and  C_17 
ROOT
HETATM    1  N   UNL     1     -40.879 -50.731  11.210  1.00  0.00    -0.352 N 
HETATM    2  C   UNL     1     -41.542 -51.291  12.277  1.00  0.00     0.223 C 
HETATM    3  O   UNL     1     -41.992 -50.612  13.197  1.00  0.00    -0.273 OA
HETATM    4  H   UNL     1     -40.608 -51.315  10.428  1.00  0.00     0.162 HD
ENDROOT
BRANCH   2   5
HETATM    5  C   UNL     1     -41.705 -52.796  12.216  1.00  0.00     0.160 C 
BRANCH   5   6
HETATM    6  C   UNL     1     -43.008 -53.240  12.788  1.00  0.00     0.025 A 
HETATM    7  C   UNL     1     -43.225 -54.333  13.607  1.00  0.00     0.077 A 
HETATM    8  S   UNL     1     -44.870 -54.412  14.068  1.00  0.00    -0.086 SA
HETATM    9  C   UNL     1     -45.182 -52.974  13.177  1.00  0.00     0.054 A 
HETATM   10  N   UNL     1     -44.141 -52.475  12.538  1.00  0.00    -0.356 N 
ATOM     11  HN  UNL     1     -44.165 -51.645  11.945  1.00  0.00     0.166 HD
BRANCH   9  12
HETATM   12  C   UNL     1     -46.561 -52.363  13.188  1.00  0.00     0.035 C 
HETATM   13  C   UNL     1     -46.700 -51.381  14.352  1.00  0.00     0.016 C 
HETATM   14  C   UNL     1     -46.865 -51.672  11.860  1.00  0.00     0.016 C 
ENDBRANCH   9  12
ENDBRANCH   5   6
ENDBRANCH   2   5
BRANCH   1  15
HETATM   15  C   UNL     1     -40.624 -49.303  11.114  1.00  0.00     0.225 C 
BRANCH  15  16
HETATM   16  C   UNL     1     -39.433 -48.869  11.976  1.00  0.00     0.235 C 
HETATM   17  N   UNL     1     -39.781 -48.271  13.167  1.00  0.00    -0.360 N 
HETATM   18  H   UNL     1     -40.773 -48.157  13.376  1.00  0.00     0.162 HD
HETATM   19  O   UNL     1     -38.272 -49.097  11.644  1.00  0.00    -0.272 OA
BRANCH  17  20
HETATM   20  C   UNL     1     -38.797 -47.811  14.122  1.00  0.00     0.118 C 
HETATM   21  C   UNL     1     -38.606 -46.306  14.053  1.00  0.00     0.026 C 
ENDBRANCH  17  20
ENDBRANCH  15  16
ENDBRANCH   1  15
TORSDOF 6
ENDMDL
MODEL 9
REMARK VINA RESULT:      -4.9      2.659      4.240
REMARK  6 active torsions:
REMARK  status: ('A' for Active; 'I' for Inactive)
REMARK    1  A    between atoms: C_2  and  N_3 
REMARK       I    between atoms: N_3  and  C_4 
REMARK    2  A    between atoms: C_4  and  C_6 
REMARK    3  A    between atoms: C_6  and  N_7 
REMARK       I    between atoms: N_7  and  C_8 
REMARK    4  A    between atoms: C_8  and  C_10 
REMARK    5  A    between atoms: C_10  and  C_11 
REMARK    6  A    between atoms: C_14  and  C_17 
ROOT
HETATM    1  N   UNL     1     -42.051 -48.374  10.062  1.00  0.00    -0.352 N 
HETATM    2  C   UNL     1     -41.583 -49.010  11.188  1.00  0.00     0.223 C 
HETATM    3  O   UNL     1     -42.213 -49.021  12.243  1.00  0.00    -0.273 OA
HETATM    4  H   UNL     1     -41.547 -48.470   9.188  1.00  0.00     0.162 HD
ENDROOT
BRANCH   2   5
HETATM    5  C   UNL     1     -40.258 -49.724  11.019  1.00  0.00     0.160 C 
BRANCH   5   6
HETATM    6  C   UNL     1     -40.075 -50.808  12.027  1.00  0.00     0.025 A 
HETATM    7  C   UNL     1     -39.183 -50.817  13.083  1.00  0.00     0.077 A 
HETATM    8  S   UNL     1     -39.375 -52.242  14.010  1.00  0.00    -0.086 SA
HETATM    9  C   UNL     1     -40.651 -52.740  12.968  1.00  0.00     0.054 A 
HETATM   10  N   UNL     1     -40.903 -51.923  11.964  1.00  0.00    -0.356 N 
ATOM     11  HN  UNL     1     -41.607 -52.085  11.243  1.00  0.00     0.166 HD
BRANCH   9  12
HETATM   12  C   UNL     1     -41.404 -54.015  13.252  1.00  0.00     0.035 C 
HETATM   13  C   UNL     1     -41.077 -54.526  14.656  1.00  0.00     0.016 C 
HETATM   14  C   UNL     1     -42.909 -53.811  13.089  1.00  0.00     0.016 C 
ENDBRANCH   9  12
ENDBRANCH   5   6
ENDBRANCH   2   5
BRANCH   1  15
HETATM   15  C   UNL     1     -43.300 -47.630  10.050  1.00  0.00     0.225 C 
BRANCH  15  16
HETATM   16  C   UNL     1     -43.074 -46.122   9.900  1.00  0.00     0.235 C 
HETATM   17  N   UNL     1     -42.811 -45.465  11.083  1.00  0.00    -0.360 N 
HETATM   18  H   UNL     1     -42.797 -46.013  11.943  1.00  0.00     0.162 HD
HETATM   19  O   UNL     1     -43.072 -45.569   8.803  1.00  0.00    -0.272 OA
BRANCH  17  20
HETATM   20  C   UNL     1     -42.553 -44.043  11.142  1.00  0.00     0.118 C 
HETATM   21  C   UNL     1     -41.066 -43.744  11.208  1.00  0.00     0.026 C 
ENDBRANCH  17  20
ENDBRANCH  15  16
ENDBRANCH   1  15
TORSDOF 6
ENDMDL
