MODEL 1
REMARK VINA RESULT:      -6.5      0.000      0.000
REMARK  6 active torsions:
REMARK  status: ('A' for Active; 'I' for Inactive)
REMARK    1  A    between atoms: N_5  and  C_6 
REMARK    2  A    between atoms: C_11  and  C_12 
REMARK    3  A    between atoms: C_12  and  C_13 
REMARK       I    between atoms: C_13  and  N_15 
REMARK    4  A    between atoms: N_15  and  C_16 
REMARK    5  A    between atoms: C_16  and  C_19 
REMARK    6  A    between atoms: C_19  and  O_21 
ROOT
HETATM    1  C   UNL     1     -42.460 -48.635  11.863  1.00  0.00     0.145 C 
ENDROOT
BRANCH   1   2
HETATM    2  C   UNL     1     -41.190 -49.408  12.007  1.00  0.00    -0.002 A 
HETATM    3  C   UNL     1     -41.002 -50.817  12.078  1.00  0.00     0.031 A 
HETATM    4  C   UNL     1     -42.019 -51.900  12.093  1.00  0.00     0.070 C 
HETATM    5  N   UNL     1     -39.706 -51.145  12.103  1.00  0.00    -0.298 N 
HETATM    6  N   UNL     1     -39.049 -49.966  12.025  1.00  0.00    -0.236 N 
ATOM      7  HN  UNL     1     -39.303 -52.080  12.167  1.00  0.00     0.187 HD
HETATM    8  C   UNL     1     -39.902 -48.889  11.962  1.00  0.00     0.039 A 
HETATM    9  C   UNL     1     -39.438 -47.482  11.824  1.00  0.00     0.070 C 
BRANCH   6  10
HETATM   10  C   UNL     1     -37.587 -49.952  11.989  1.00  0.00     0.479 C 
HETATM   11  F   UNL     1     -37.069 -51.158  12.355  1.00  0.00    -0.189 F 
HETATM   12  F   UNL     1     -37.127 -49.698  10.733  1.00  0.00    -0.189 F 
ENDBRANCH   6  10
ENDBRANCH   1   2
BRANCH   1  13
HETATM   13  C   UNL     1     -42.861 -48.164  10.478  1.00  0.00     0.223 C 
HETATM   14  O   UNL     1     -42.016 -48.135   9.580  1.00  0.00    -0.273 OA
HETATM   15  N   UNL     1     -44.134 -47.684  10.287  1.00  0.00    -0.342 N 
HETATM   16  H   UNL     1     -44.812 -47.730  11.047  1.00  0.00     0.163 HD
BRANCH  15  17
HETATM   17  C   UNL     1     -44.617 -47.125   8.999  1.00  0.00     0.111 C 
HETATM   18  C   UNL     1     -44.359 -48.114   7.849  1.00  0.00     0.050 C 
HETATM   19  C   UNL     1     -46.098 -46.734   9.104  1.00  0.00     0.050 C 
BRANCH  17  20
HETATM   20  C   UNL     1     -43.799 -45.840   8.712  1.00  0.00     0.168 C 
HETATM   21  O   UNL     1     -44.071 -44.746   9.193  1.00  0.00    -0.648 OA
BRANCH  20  22
HETATM   22  O   UNL     1     -42.728 -46.004   7.895  1.00  0.00    -0.775 OA
HETATM   23  H   UNL     1     -42.914 -46.403   7.024  1.00  0.00     0.167 HD
ENDBRANCH  20  22
ENDBRANCH  17  20
ENDBRANCH  15  17
ENDBRANCH   1  13
TORSDOF 6
ENDMDL
MODEL 2
REMARK VINA RESULT:      -6.0      0.880      2.103
REMARK  6 active torsions:
REMARK  status: ('A' for Active; 'I' for Inactive)
REMARK    1  A    between atoms: N_5  and  C_6 
REMARK    2  A    between atoms: C_11  and  C_12 
REMARK    3  A    between atoms: C_12  and  C_13 
REMARK       I    between atoms: C_13  and  N_15 
REMARK    4  A    between atoms: N_15  and  C_16 
REMARK    5  A    between atoms: C_16  and  C_19 
REMARK    6  A    between atoms: C_19  and  O_21 
ROOT
HETATM    1  C   UNL     1     -42.444 -48.425  12.008  1.00  0.00     0.145 C 
ENDROOT
BRANCH   1   2
HETATM    2  C   UNL     1     -41.010 -48.729  12.294  1.00  0.00    -0.002 A 
HETATM    3  C   UNL     1     -39.981 -47.853  12.741  1.00  0.00     0.031 A 
HETATM    4  C   UNL     1     -40.035 -46.388  12.983  1.00  0.00     0.070 C 
HETATM    5  N   UNL     1     -38.842 -48.508  12.987  1.00  0.00    -0.298 N 
HETATM    6  N   UNL     1     -39.126 -49.805  12.726  1.00  0.00    -0.236 N 
ATOM      7  HN  UNL     1     -37.954 -48.116  13.301  1.00  0.00     0.187 HD
HETATM    8  C   UNL     1     -40.423 -49.988  12.308  1.00  0.00     0.039 A 
HETATM    9  C   UNL     1     -41.006 -51.322  12.002  1.00  0.00     0.070 C 
BRANCH   6  10
HETATM   10  C   UNL     1     -38.099 -50.826  12.929  1.00  0.00     0.479 C 
HETATM   11  F   UNL     1     -37.171 -50.803  11.932  1.00  0.00    -0.189 F 
HETATM   12  F   UNL     1     -37.423 -50.621  14.092  1.00  0.00    -0.189 F 
ENDBRANCH   6  10
ENDBRANCH   1   2
BRANCH   1  13
HETATM   13  C   UNL     1     -42.826 -48.024  10.595  1.00  0.00     0.223 C 
HETATM   14  O   UNL     1     -41.957 -47.987   9.722  1.00  0.00    -0.273 OA
HETATM   15  N   UNL     1     -44.114 -47.614  10.351  1.00  0.00    -0.342 N 
HETATM   16  H   UNL     1     -44.811 -47.665  11.093  1.00  0.00     0.163 HD
BRANCH  15  17
HETATM   17  C   UNL     1     -44.584 -47.125   9.030  1.00  0.00     0.111 C 
HETATM   18  C   UNL     1     -44.276 -48.156   7.931  1.00  0.00     0.050 C 
HETATM   19  C   UNL     1     -46.077 -46.771   9.088  1.00  0.00     0.050 C 
BRANCH  17  20
HETATM   20  C   UNL     1     -43.795 -45.832   8.703  1.00  0.00     0.168 C 
HETATM   21  O   UNL     1     -44.116 -44.723   9.115  1.00  0.00    -0.648 OA
BRANCH  20  22
HETATM   22  O   UNL     1     -42.691 -46.004   7.933  1.00  0.00    -0.775 OA
HETATM   23  H   UNL     1     -42.496 -46.924   7.668  1.00  0.00     0.167 HD
ENDBRANCH  20  22
ENDBRANCH  17  20
ENDBRANCH  15  17
ENDBRANCH   1  13
TORSDOF 6
ENDMDL
MODEL 3
REMARK VINA RESULT:      -5.8      2.043      2.870
REMARK  6 active torsions:
REMARK  status: ('A' for Active; 'I' for Inactive)
REMARK    1  A    between atoms: N_5  and  C_6 
REMARK    2  A    between atoms: C_11  and  C_12 
REMARK    3  A    between atoms: C_12  and  C_13 
REMARK       I    between atoms: C_13  and  N_15 
REMARK    4  A    between atoms: N_15  and  C_16 
REMARK    5  A    between atoms: C_16  and  C_19 
REMARK    6  A    between atoms: C_19  and  O_21 
ROOT
HETATM    1  C   UNL     1     -42.656 -48.349  12.065  1.00  0.00     0.145 C 
ENDROOT
BRANCH   1   2
HETATM    2  C   UNL     1     -41.268 -48.237  12.606  1.00  0.00    -0.002 A 
HETATM    3  C   UNL     1     -40.707 -47.222  13.431  1.00  0.00     0.031 A 
HETATM    4  C   UNL     1     -41.328 -45.966  13.926  1.00  0.00     0.070 C 
HETATM    5  N   UNL     1     -39.456 -47.515  13.800  1.00  0.00    -0.298 N 
HETATM    6  N   UNL     1     -39.205 -48.722  13.243  1.00  0.00    -0.236 N 
ATOM      7  HN  UNL     1     -38.829 -46.953  14.375  1.00  0.00     0.187 HD
HETATM    8  C   UNL     1     -40.270 -49.200  12.515  1.00  0.00     0.039 A 
HETATM    9  C   UNL     1     -40.273 -50.525  11.839  1.00  0.00     0.070 C 
BRANCH   6  10
HETATM   10  C   UNL     1     -37.918 -49.374  13.477  1.00  0.00     0.479 C 
HETATM   11  F   UNL     1     -37.207 -49.501  12.321  1.00  0.00    -0.189 F 
HETATM   12  F   UNL     1     -37.144 -48.647  14.329  1.00  0.00    -0.189 F 
ENDBRANCH   6  10
ENDBRANCH   1   2
BRANCH   1  13
HETATM   13  C   UNL     1     -42.932 -47.802  10.678  1.00  0.00     0.223 C 
HETATM   14  O   UNL     1     -42.033 -47.221  10.066  1.00  0.00    -0.273 OA
HETATM   15  N   UNL     1     -44.211 -47.879  10.181  1.00  0.00    -0.342 N 
HETATM   16  H   UNL     1     -44.930 -48.374  10.707  1.00  0.00     0.163 HD
BRANCH  15  17
HETATM   17  C   UNL     1     -44.619 -47.310   8.871  1.00  0.00     0.111 C 
HETATM   18  C   UNL     1     -44.526 -45.776   8.895  1.00  0.00     0.050 C 
HETATM   19  C   UNL     1     -43.784 -47.922   7.737  1.00  0.00     0.050 C 
BRANCH  17  20
HETATM   20  C   UNL     1     -46.102 -47.693   8.638  1.00  0.00     0.168 C 
HETATM   21  O   UNL     1     -47.031 -47.223   9.286  1.00  0.00    -0.648 OA
BRANCH  20  22
HETATM   22  O   UNL     1     -46.321 -48.585   7.639  1.00  0.00    -0.775 OA
HETATM   23  H   UNL     1     -45.681 -48.564   6.901  1.00  0.00     0.167 HD
ENDBRANCH  20  22
ENDBRANCH  17  20
ENDBRANCH  15  17
ENDBRANCH   1  13
TORSDOF 6
ENDMDL
MODEL 4
REMARK VINA RESULT:      -5.8      3.768      6.722
REMARK  6 active torsions:
REMARK  status: ('A' for Active; 'I' for Inactive)
REMARK    1  A    between atoms: N_5  and  C_6 
REMARK    2  A    between atoms: C_11  and  C_12 
REMARK    3  A    between atoms: C_12  and  C_13 
REMARK       I    between atoms: C_13  and  N_15 
REMARK    4  A    between atoms: N_15  and  C_16 
REMARK    5  A    between atoms: C_16  and  C_19 
REMARK    6  A    between atoms: C_19  and  O_21 
ROOT
HETATM    1  C   UNL     1     -40.366 -46.874  13.031  1.00  0.00     0.145 C 
ENDROOT
BRANCH   1   2
HETATM    2  C   UNL     1     -41.098 -46.698  11.740  1.00  0.00    -0.002 A 
HETATM    3  C   UNL     1     -40.753 -45.894  10.618  1.00  0.00     0.031 A 
HETATM    4  C   UNL     1     -39.608 -44.963  10.447  1.00  0.00     0.070 C 
HETATM    5  N   UNL     1     -41.602 -46.071   9.600  1.00  0.00    -0.298 N 
HETATM    6  N   UNL     1     -42.482 -46.999  10.041  1.00  0.00    -0.236 N 
ATOM      7  HN  UNL     1     -41.588 -45.607   8.691  1.00  0.00     0.187 HD
HETATM    8  C   UNL     1     -42.217 -47.410  11.326  1.00  0.00     0.039 A 
HETATM    9  C   UNL     1     -43.005 -48.457  12.031  1.00  0.00     0.070 C 
BRANCH   6  10
HETATM   10  C   UNL     1     -43.546 -47.467   9.153  1.00  0.00     0.479 C 
HETATM   11  F   UNL     1     -44.249 -46.425   8.627  1.00  0.00    -0.189 F 
HETATM   12  F   UNL     1     -43.038 -48.162   8.099  1.00  0.00    -0.189 F 
ENDBRANCH   6  10
ENDBRANCH   1   2
BRANCH   1  13
HETATM   13  C   UNL     1     -39.938 -48.274  13.429  1.00  0.00     0.223 C 
HETATM   14  O   UNL     1     -40.353 -48.756  14.485  1.00  0.00    -0.273 OA
HETATM   15  N   UNL     1     -39.016 -48.929  12.648  1.00  0.00    -0.342 N 
HETATM   16  H   UNL     1     -38.700 -48.506  11.776  1.00  0.00     0.163 HD
BRANCH  15  17
HETATM   17  C   UNL     1     -38.464 -50.267  12.978  1.00  0.00     0.111 C 
HETATM   18  C   UNL     1     -37.604 -50.199  14.251  1.00  0.00     0.050 C 
HETATM   19  C   UNL     1     -39.593 -51.300  13.097  1.00  0.00     0.050 C 
BRANCH  17  20
HETATM   20  C   UNL     1     -37.544 -50.693  11.806  1.00  0.00     0.168 C 
HETATM   21  O   UNL     1     -36.742 -51.618  11.879  1.00  0.00    -0.648 OA
BRANCH  20  22
HETATM   22  O   UNL     1     -37.694 -49.981  10.661  1.00  0.00    -0.775 OA
HETATM   23  H   UNL     1     -38.574 -49.582  10.520  1.00  0.00     0.167 HD
ENDBRANCH  20  22
ENDBRANCH  17  20
ENDBRANCH  15  17
ENDBRANCH   1  13
TORSDOF 6
ENDMDL
MODEL 5
REMARK VINA RESULT:      -5.7      5.274      7.146
REMARK  6 active torsions:
REMARK  status: ('A' for Active; 'I' for Inactive)
REMARK    1  A    between atoms: N_5  and  C_6 
REMARK    2  A    between atoms: C_11  and  C_12 
REMARK    3  A    between atoms: C_12  and  C_13 
REMARK       I    between atoms: C_13  and  N_15 
REMARK    4  A    between atoms: N_15  and  C_16 
REMARK    5  A    between atoms: C_16  and  C_19 
REMARK    6  A    between atoms: C_19  and  O_21 
ROOT
HETATM    1  C   UNL     1     -41.393 -52.257  13.649  1.00  0.00     0.145 C 
ENDROOT
BRANCH   1   2
HETATM    2  C   UNL     1     -42.793 -51.828  13.945  1.00  0.00    -0.002 A 
HETATM    3  C   UNL     1     -43.246 -50.738  14.739  1.00  0.00     0.031 A 
HETATM    4  C   UNL     1     -42.456 -49.769  15.543  1.00  0.00     0.070 C 
HETATM    5  N   UNL     1     -44.576 -50.605  14.689  1.00  0.00    -0.298 N 
HETATM    6  N   UNL     1     -44.989 -51.583  13.852  1.00  0.00    -0.236 N 
ATOM      7  HN  UNL     1     -45.151 -49.917  15.176  1.00  0.00     0.187 HD
HETATM    8  C   UNL     1     -43.949 -52.345  13.374  1.00  0.00     0.039 A 
HETATM    9  C   UNL     1     -44.125 -53.456  12.400  1.00  0.00     0.070 C 
BRANCH   6  10
HETATM   10  C   UNL     1     -46.411 -51.710  13.532  1.00  0.00     0.479 C 
HETATM   11  F   UNL     1     -47.183 -51.021  14.418  1.00  0.00    -0.189 F 
HETATM   12  F   UNL     1     -46.686 -51.200  12.300  1.00  0.00    -0.189 F 
ENDBRANCH   6  10
ENDBRANCH   1   2
BRANCH   1  13
HETATM   13  C   UNL     1     -40.483 -51.288  12.917  1.00  0.00     0.223 C 
HETATM   14  O   UNL     1     -40.604 -51.148  11.698  1.00  0.00    -0.273 OA
HETATM   15  N   UNL     1     -39.480 -50.666  13.620  1.00  0.00    -0.342 N 
HETATM   16  H   UNL     1     -39.413 -50.795  14.629  1.00  0.00     0.163 HD
BRANCH  15  17
HETATM   17  C   UNL     1     -38.482 -49.759  12.998  1.00  0.00     0.111 C 
HETATM   18  C   UNL     1     -39.185 -48.624  12.234  1.00  0.00     0.050 C 
HETATM   19  C   UNL     1     -37.508 -49.225  14.057  1.00  0.00     0.050 C 
BRANCH  17  20
HETATM   20  C   UNL     1     -37.671 -50.591  11.973  1.00  0.00     0.168 C 
HETATM   21  O   UNL     1     -36.932 -51.518  12.289  1.00  0.00    -0.648 OA
BRANCH  20  22
HETATM   22  O   UNL     1     -37.843 -50.240  10.674  1.00  0.00    -0.775 OA
HETATM   23  H   UNL     1     -37.763 -49.286  10.476  1.00  0.00     0.167 HD
ENDBRANCH  20  22
ENDBRANCH  17  20
ENDBRANCH  15  17
ENDBRANCH   1  13
TORSDOF 6
ENDMDL
MODEL 6
REMARK VINA RESULT:      -5.7      4.976      7.008
REMARK  6 active torsions:
REMARK  status: ('A' for Active; 'I' for Inactive)
REMARK    1  A    between atoms: N_5  and  C_6 
REMARK    2  A    between atoms: C_11  and  C_12 
REMARK    3  A    between atoms: C_12  and  C_13 
REMARK       I    between atoms: C_13  and  N_15 
REMARK    4  A    between atoms: N_15  and  C_16 
REMARK    5  A    between atoms: C_16  and  C_19 
REMARK    6  A    between atoms: C_19  and  O_21 
ROOT
HETATM    1  C   UNL     1     -40.855 -53.534  12.962  1.00  0.00     0.145 C 
ENDROOT
BRANCH   1   2
HETATM    2  C   UNL     1     -42.037 -54.059  13.710  1.00  0.00    -0.002 A 
HETATM    3  C   UNL     1     -42.082 -54.684  14.988  1.00  0.00     0.031 A 
HETATM    4  C   UNL     1     -40.964 -55.044  15.897  1.00  0.00     0.070 C 
HETATM    5  N   UNL     1     -43.338 -54.929  15.377  1.00  0.00    -0.298 N 
HETATM    6  N   UNL     1     -44.110 -54.448  14.376  1.00  0.00    -0.236 N 
ATOM      7  HN  UNL     1     -43.645 -55.379  16.239  1.00  0.00     0.187 HD
HETATM    8  C   UNL     1     -43.370 -53.910  13.350  1.00  0.00     0.039 A 
HETATM    9  C   UNL     1     -43.975 -53.272  12.149  1.00  0.00     0.070 C 
BRANCH   6  10
HETATM   10  C   UNL     1     -45.566 -54.516  14.489  1.00  0.00     0.479 C 
HETATM   11  F   UNL     1     -46.058 -55.649  13.913  1.00  0.00    -0.189 F 
HETATM   12  F   UNL     1     -45.960 -54.542  15.792  1.00  0.00    -0.189 F 
ENDBRANCH   6  10
ENDBRANCH   1   2
BRANCH   1  13
HETATM   13  C   UNL     1     -40.564 -52.047  13.030  1.00  0.00     0.223 C 
HETATM   14  O   UNL     1     -41.313 -51.314  13.679  1.00  0.00    -0.273 OA
HETATM   15  N   UNL     1     -39.530 -51.542  12.280  1.00  0.00    -0.342 N 
HETATM   16  H   UNL     1     -38.924 -52.177  11.760  1.00  0.00     0.163 HD
BRANCH  15  17
HETATM   17  C   UNL     1     -39.199 -50.096  12.204  1.00  0.00     0.111 C 
HETATM   18  C   UNL     1     -39.180 -49.472  13.609  1.00  0.00     0.050 C 
HETATM   19  C   UNL     1     -37.873 -49.887  11.460  1.00  0.00     0.050 C 
BRANCH  17  20
HETATM   20  C   UNL     1     -40.322 -49.403  11.391  1.00  0.00     0.168 C 
HETATM   21  O   UNL     1     -40.960 -48.441  11.805  1.00  0.00    -0.648 OA
BRANCH  20  22
HETATM   22  O   UNL     1     -40.551 -49.922  10.158  1.00  0.00    -0.775 OA
HETATM   23  H   UNL     1     -40.785 -49.278   9.462  1.00  0.00     0.167 HD
ENDBRANCH  20  22
ENDBRANCH  17  20
ENDBRANCH  15  17
ENDBRANCH   1  13
TORSDOF 6
ENDMDL
MODEL 7
REMARK VINA RESULT:      -5.7      3.609      5.031
REMARK  6 active torsions:
REMARK  status: ('A' for Active; 'I' for Inactive)
REMARK    1  A    between atoms: N_5  and  C_6 
REMARK    2  A    between atoms: C_11  and  C_12 
REMARK    3  A    between atoms: C_12  and  C_13 
REMARK       I    between atoms: C_13  and  N_15 
REMARK    4  A    between atoms: N_15  and  C_16 
REMARK    5  A    between atoms: C_16  and  C_19 
REMARK    6  A    between atoms: C_19  and  O_21 
ROOT
HETATM    1  C   UNL     1     -42.874 -49.352  13.533  1.00  0.00     0.145 C 
ENDROOT
BRANCH   1   2
HETATM    2  C   UNL     1     -41.652 -49.491  12.686  1.00  0.00    -0.002 A 
HETATM    3  C   UNL     1     -41.394 -48.957  11.392  1.00  0.00     0.031 A 
HETATM    4  C   UNL     1     -42.289 -48.170  10.505  1.00  0.00     0.070 C 
HETATM    5  N   UNL     1     -40.143 -49.208  10.991  1.00  0.00    -0.298 N 
HETATM    6  N   UNL     1     -39.579 -49.881  12.020  1.00  0.00    -0.236 N 
ATOM      7  HN  UNL     1     -39.711 -48.950  10.104  1.00  0.00     0.187 HD
HETATM    8  C   UNL     1     -40.449 -50.073  13.067  1.00  0.00     0.039 A 
HETATM    9  C   UNL     1     -40.067 -50.742  14.340  1.00  0.00     0.070 C 
BRANCH   6  10
HETATM   10  C   UNL     1     -38.177 -50.288  11.936  1.00  0.00     0.479 C 
HETATM   11  F   UNL     1     -37.657 -50.033  10.703  1.00  0.00    -0.189 F 
HETATM   12  F   UNL     1     -37.410 -49.602  12.828  1.00  0.00    -0.189 F 
ENDBRANCH   6  10
ENDBRANCH   1   2
BRANCH   1  13
HETATM   13  C   UNL     1     -43.768 -50.565  13.711  1.00  0.00     0.223 C 
HETATM   14  O   UNL     1     -43.497 -51.392  14.585  1.00  0.00    -0.273 OA
HETATM   15  N   UNL     1     -44.798 -50.761  12.824  1.00  0.00    -0.342 N 
HETATM   16  H   UNL     1     -45.001 -50.054  12.119  1.00  0.00     0.163 HD
BRANCH  15  17
HETATM   17  C   UNL     1     -45.689 -51.949  12.850  1.00  0.00     0.111 C 
HETATM   18  C   UNL     1     -46.316 -52.125  14.243  1.00  0.00     0.050 C 
HETATM   19  C   UNL     1     -46.752 -51.847  11.747  1.00  0.00     0.050 C 
BRANCH  17  20
HETATM   20  C   UNL     1     -44.814 -53.194  12.562  1.00  0.00     0.168 C 
HETATM   21  O   UNL     1     -45.119 -54.330  12.911  1.00  0.00    -0.648 OA
BRANCH  20  22
HETATM   22  O   UNL     1     -43.673 -52.955  11.868  1.00  0.00    -0.775 OA
HETATM   23  H   UNL     1     -43.679 -53.229  10.930  1.00  0.00     0.167 HD
ENDBRANCH  20  22
ENDBRANCH  17  20
ENDBRANCH  15  17
ENDBRANCH   1  13
TORSDOF 6
ENDMDL
MODEL 8
REMARK VINA RESULT:      -5.7      5.705      7.596
REMARK  6 active torsions:
REMARK  status: ('A' for Active; 'I' for Inactive)
REMARK    1  A    between atoms: N_5  and  C_6 
REMARK    2  A    between atoms: C_11  and  C_12 
REMARK    3  A    between atoms: C_12  and  C_13 
REMARK       I    between atoms: C_13  and  N_15 
REMARK    4  A    between atoms: N_15  and  C_16 
REMARK    5  A    between atoms: C_16  and  C_19 
REMARK    6  A    between atoms: C_19  and  O_21 
ROOT
HETATM    1  C   UNL     1     -41.082 -54.019  12.890  1.00  0.00     0.145 C 
ENDROOT
BRANCH   1   2
HETATM    2  C   UNL     1     -42.214 -54.288  13.828  1.00  0.00    -0.002 A 
HETATM    3  C   UNL     1     -42.170 -54.723  15.183  1.00  0.00     0.031 A 
HETATM    4  C   UNL     1     -40.993 -55.090  16.013  1.00  0.00     0.070 C 
HETATM    5  N   UNL     1     -43.387 -54.756  15.734  1.00  0.00    -0.298 N 
HETATM    6  N   UNL     1     -44.220 -54.325  14.759  1.00  0.00    -0.236 N 
ATOM      7  HN  UNL     1     -43.633 -55.044  16.681  1.00  0.00     0.187 HD
HETATM    8  C   UNL     1     -43.558 -54.027  13.592  1.00  0.00     0.039 A 
HETATM    9  C   UNL     1     -44.233 -53.488  12.380  1.00  0.00     0.070 C 
BRANCH   6  10
HETATM   10  C   UNL     1     -45.651 -54.198  15.033  1.00  0.00     0.479 C 
HETATM   11  F   UNL     1     -46.366 -55.177  14.412  1.00  0.00    -0.189 F 
HETATM   12  F   UNL     1     -45.910 -54.315  16.365  1.00  0.00    -0.189 F 
ENDBRANCH   6  10
ENDBRANCH   1   2
BRANCH   1  13
HETATM   13  C   UNL     1     -40.641 -52.582  12.690  1.00  0.00     0.223 C 
HETATM   14  O   UNL     1     -41.084 -51.941  11.734  1.00  0.00    -0.273 OA
HETATM   15  N   UNL     1     -39.680 -52.065  13.523  1.00  0.00    -0.342 N 
HETATM   16  H   UNL     1     -39.341 -52.617  14.310  1.00  0.00     0.163 HD
BRANCH  15  17
HETATM   17  C   UNL     1     -39.113 -50.700  13.377  1.00  0.00     0.111 C 
HETATM   18  C   UNL     1     -40.238 -49.656  13.273  1.00  0.00     0.050 C 
HETATM   19  C   UNL     1     -38.145 -50.393  14.528  1.00  0.00     0.050 C 
BRANCH  17  20
HETATM   20  C   UNL     1     -38.312 -50.667  12.051  1.00  0.00     0.168 C 
HETATM   21  O   UNL     1     -37.221 -51.210  11.908  1.00  0.00    -0.648 OA
BRANCH  20  22
HETATM   22  O   UNL     1     -38.908 -50.006  11.028  1.00  0.00    -0.775 OA
HETATM   23  H   UNL     1     -38.501 -49.154  10.777  1.00  0.00     0.167 HD
ENDBRANCH  20  22
ENDBRANCH  17  20
ENDBRANCH  15  17
ENDBRANCH   1  13
TORSDOF 6
ENDMDL
MODEL 9
REMARK VINA RESULT:      -5.6      6.114      8.542
REMARK  6 active torsions:
REMARK  status: ('A' for Active; 'I' for Inactive)
REMARK    1  A    between atoms: N_5  and  C_6 
REMARK    2  A    between atoms: C_11  and  C_12 
REMARK    3  A    between atoms: C_12  and  C_13 
REMARK       I    between atoms: C_13  and  N_15 
REMARK    4  A    between atoms: N_15  and  C_16 
REMARK    5  A    between atoms: C_16  and  C_19 
REMARK    6  A    between atoms: C_19  and  O_21 
ROOT
HETATM    1  C   UNL     1     -44.927 -54.272  14.042  1.00  0.00     0.145 C 
ENDROOT
BRANCH   1   2
HETATM    2  C   UNL     1     -45.693 -53.117  14.600  1.00  0.00    -0.002 A 
HETATM    3  C   UNL     1     -46.386 -52.085  13.908  1.00  0.00     0.031 A 
HETATM    4  C   UNL     1     -46.484 -51.835  12.447  1.00  0.00     0.070 C 
HETATM    5  N   UNL     1     -47.043 -51.278  14.748  1.00  0.00    -0.298 N 
HETATM    6  N   UNL     1     -46.804 -51.790  15.977  1.00  0.00    -0.236 N 
ATOM      7  HN  UNL     1     -47.602 -50.458  14.513  1.00  0.00     0.187 HD
HETATM    8  C   UNL     1     -45.996 -52.902  15.938  1.00  0.00     0.039 A 
HETATM    9  C   UNL     1     -45.618 -53.684  17.147  1.00  0.00     0.070 C 
BRANCH   6  10
HETATM   10  C   UNL     1     -47.412 -51.167  17.152  1.00  0.00     0.479 C 
HETATM   11  F   UNL     1     -46.656 -50.132  17.614  1.00  0.00    -0.189 F 
HETATM   12  F   UNL     1     -48.636 -50.650  16.858  1.00  0.00    -0.189 F 
ENDBRANCH   6  10
ENDBRANCH   1   2
BRANCH   1  13
HETATM   13  C   UNL     1     -43.411 -54.214  14.079  1.00  0.00     0.223 C 
HETATM   14  O   UNL     1     -42.794 -54.993  14.809  1.00  0.00    -0.273 OA
HETATM   15  N   UNL     1     -42.771 -53.225  13.373  1.00  0.00    -0.342 N 
HETATM   16  H   UNL     1     -43.310 -52.602  12.772  1.00  0.00     0.163 HD
BRANCH  15  17
HETATM   17  C   UNL     1     -41.300 -53.020  13.395  1.00  0.00     0.111 C 
HETATM   18  C   UNL     1     -40.876 -52.282  14.676  1.00  0.00     0.050 C 
HETATM   19  C   UNL     1     -40.569 -54.360  13.231  1.00  0.00     0.050 C 
BRANCH  17  20
HETATM   20  C   UNL     1     -40.937 -52.122  12.186  1.00  0.00     0.168 C 
HETATM   21  O   UNL     1     -40.350 -51.050  12.293  1.00  0.00    -0.648 OA
BRANCH  20  22
HETATM   22  O   UNL     1     -41.296 -52.609  10.972  1.00  0.00    -0.775 OA
HETATM   23  H   UNL     1     -41.193 -51.995  10.219  1.00  0.00     0.167 HD
ENDBRANCH  20  22
ENDBRANCH  17  20
ENDBRANCH  15  17
ENDBRANCH   1  13
TORSDOF 6
ENDMDL
