MODEL 1
REMARK VINA RESULT:      -7.7      0.000      0.000
REMARK  6 active torsions:
REMARK  status: ('A' for Active; 'I' for Inactive)
REMARK    1  A    between atoms: N_8  and  C_9 
REMARK    2  A    between atoms: C_9  and  C_10 
REMARK    3  A    between atoms: C_10  and  O_11 
REMARK    4  A    between atoms: C_10  and  C_12 
REMARK    5  A    between atoms: C_12  and  N_13 
REMARK    6  A    between atoms: C_16  and  C_19 
ROOT
HETATM    1  C   UNL     1     -41.343 -48.063  11.397  1.00  0.00     0.156 C 
ENDROOT
BRANCH   1   2
HETATM    2  C   UNL     1     -40.982 -49.030  12.536  1.00  0.00     0.163 C 
BRANCH   2   3
HETATM    3  N   UNL     1     -41.372 -50.397  12.227  1.00  0.00    -0.339 N 
HETATM    4  C   UNL     1     -40.601 -51.294  11.539  1.00  0.00     0.184 A 
HETATM    5  N   UNL     1     -41.161 -52.480  11.485  1.00  0.00    -0.350 N 
HETATM    6  C   UNL     1     -42.342 -52.346  12.172  1.00  0.00     0.060 A 
ATOM      7  HN  UNL     1     -40.797 -53.318  11.033  1.00  0.00     0.166 HD
HETATM    8  C   UNL     1     -43.316 -53.312  12.456  1.00  0.00     0.039 A 
HETATM    9  C   UNL     1     -42.519 -51.041  12.622  1.00  0.00     0.062 A 
HETATM   10  C   UNL     1     -44.466 -52.950  13.182  1.00  0.00    -0.054 A 
HETATM   11  C   UNL     1     -45.489 -54.010  13.492  1.00  0.00     0.049 C 
HETATM   12  C   UNL     1     -44.636 -51.614  13.611  1.00  0.00    -0.054 A 
HETATM   13  C   UNL     1     -43.657 -50.639  13.330  1.00  0.00     0.039 A 
HETATM   14  C   UNL     1     -45.860 -51.203  14.387  1.00  0.00     0.049 C 
ENDBRANCH   2   3
ENDBRANCH   1   2
BRANCH   1  15
HETATM   15  O   UNL     1     -41.611 -48.816  10.203  1.00  0.00    -0.392 OA
HETATM   16  H   UNL     1     -41.789 -49.744  10.427  1.00  0.00     0.210 HD
ENDBRANCH   1  15
BRANCH   1  17
HETATM   17  C   UNL     1     -42.566 -47.208  11.747  1.00  0.00     0.181 C 
BRANCH  17  18
HETATM   18  N   UNL     1     -43.491 -47.112  10.626  1.00  0.00    -0.300 N 
HETATM   19  C   UNL     1     -43.443 -46.198   9.614  1.00  0.00     0.112 A 
HETATM   20  C   UNL     1     -44.535 -46.451   8.822  1.00  0.00     0.054 A 
HETATM   21  C   UNL     1     -45.182 -47.570   9.415  1.00  0.00     0.133 A 
HETATM   22  N   UNL     1     -44.512 -47.981  10.515  1.00  0.00    -0.295 N 
ATOM     23  HN  UNL     1     -44.731 -48.771  11.123  1.00  0.00     0.187 HD
BRANCH  21  24
HETATM   24  C   UNL     1     -46.439 -48.233   8.912  1.00  0.00     0.433 C 
HETATM   25  F   UNL     1     -46.305 -48.654   7.622  1.00  0.00    -0.165 F 
HETATM   26  F   UNL     1     -46.774 -49.332   9.637  1.00  0.00    -0.165 F 
HETATM   27  F   UNL     1     -47.514 -47.400   8.929  1.00  0.00    -0.165 F 
ENDBRANCH  21  24
ENDBRANCH  17  18
ENDBRANCH   1  17
TORSDOF 6
ENDMDL
MODEL 2
REMARK VINA RESULT:      -7.4      2.000      2.523
REMARK  6 active torsions:
REMARK  status: ('A' for Active; 'I' for Inactive)
REMARK    1  A    between atoms: N_8  and  C_9 
REMARK    2  A    between atoms: C_9  and  C_10 
REMARK    3  A    between atoms: C_10  and  O_11 
REMARK    4  A    between atoms: C_10  and  C_12 
REMARK    5  A    between atoms: C_12  and  N_13 
REMARK    6  A    between atoms: C_16  and  C_19 
ROOT
HETATM    1  C   UNL     1     -40.151 -50.196  11.968  1.00  0.00     0.156 C 
ENDROOT
BRANCH   1   2
HETATM    2  C   UNL     1     -40.733 -50.493  13.359  1.00  0.00     0.163 C 
BRANCH   2   3
HETATM    3  N   UNL     1     -41.051 -51.903  13.522  1.00  0.00    -0.339 N 
HETATM    4  C   UNL     1     -40.140 -52.880  13.821  1.00  0.00     0.184 A 
HETATM    5  N   UNL     1     -40.716 -54.046  14.000  1.00  0.00    -0.350 N 
HETATM    6  C   UNL     1     -42.055 -53.813  13.814  1.00  0.00     0.060 A 
ATOM      7  HN  UNL     1     -40.265 -54.932  14.229  1.00  0.00     0.166 HD
HETATM    8  C   UNL     1     -43.133 -54.701  13.924  1.00  0.00     0.039 A 
HETATM    9  C   UNL     1     -42.295 -52.483  13.480  1.00  0.00     0.062 A 
HETATM   10  C   UNL     1     -44.441 -54.242  13.684  1.00  0.00    -0.054 A 
HETATM   11  C   UNL     1     -45.585 -55.211  13.827  1.00  0.00     0.049 C 
HETATM   12  C   UNL     1     -44.660 -52.893  13.325  1.00  0.00    -0.054 A 
HETATM   13  C   UNL     1     -43.579 -51.994  13.217  1.00  0.00     0.039 A 
HETATM   14  C   UNL     1     -46.052 -52.381  13.061  1.00  0.00     0.049 C 
ENDBRANCH   2   3
ENDBRANCH   1   2
BRANCH   1  15
HETATM   15  O   UNL     1     -40.943 -50.861  10.971  1.00  0.00    -0.392 OA
HETATM   16  H   UNL     1     -40.985 -51.812  11.159  1.00  0.00     0.210 HD
ENDBRANCH   1  15
BRANCH   1  17
HETATM   17  C   UNL     1     -40.120 -48.691  11.677  1.00  0.00     0.181 C 
BRANCH  17  18
HETATM   18  N   UNL     1     -41.383 -48.228  11.119  1.00  0.00    -0.300 N 
HETATM   19  C   UNL     1     -42.464 -47.782  11.824  1.00  0.00     0.112 A 
HETATM   20  C   UNL     1     -43.435 -47.507  10.895  1.00  0.00     0.054 A 
HETATM   21  C   UNL     1     -42.843 -47.784   9.633  1.00  0.00     0.133 A 
HETATM   22  N   UNL     1     -41.568 -48.207   9.786  1.00  0.00    -0.295 N 
ATOM     23  HN  UNL     1     -40.898 -48.453   9.058  1.00  0.00     0.187 HD
BRANCH  21  24
HETATM   24  C   UNL     1     -43.513 -47.637   8.291  1.00  0.00     0.433 C 
HETATM   25  F   UNL     1     -43.412 -46.363   7.814  1.00  0.00    -0.165 F 
HETATM   26  F   UNL     1     -42.964 -48.440   7.343  1.00  0.00    -0.165 F 
HETATM   27  F   UNL     1     -44.843 -47.921   8.334  1.00  0.00    -0.165 F 
ENDBRANCH  21  24
ENDBRANCH  17  18
ENDBRANCH   1  17
TORSDOF 6
ENDMDL
MODEL 3
REMARK VINA RESULT:      -7.3      1.900      2.741
REMARK  6 active torsions:
REMARK  status: ('A' for Active; 'I' for Inactive)
REMARK    1  A    between atoms: N_8  and  C_9 
REMARK    2  A    between atoms: C_9  and  C_10 
REMARK    3  A    between atoms: C_10  and  O_11 
REMARK    4  A    between atoms: C_10  and  C_12 
REMARK    5  A    between atoms: C_12  and  N_13 
REMARK    6  A    between atoms: C_16  and  C_19 
ROOT
HETATM    1  C   UNL     1     -41.459 -48.367  11.046  1.00  0.00     0.156 C 
ENDROOT
BRANCH   1   2
HETATM    2  C   UNL     1     -41.852 -49.595  11.883  1.00  0.00     0.163 C 
BRANCH   2   3
HETATM    3  N   UNL     1     -40.684 -50.315  12.365  1.00  0.00    -0.339 N 
HETATM    4  C   UNL     1     -39.398 -49.848  12.307  1.00  0.00     0.184 A 
HETATM    5  N   UNL     1     -38.556 -50.662  12.899  1.00  0.00    -0.350 N 
HETATM    6  C   UNL     1     -39.328 -51.697  13.362  1.00  0.00     0.060 A 
ATOM      7  HN  UNL     1     -37.546 -50.550  12.993  1.00  0.00     0.166 HD
HETATM    8  C   UNL     1     -38.948 -52.825  14.102  1.00  0.00     0.039 A 
HETATM    9  C   UNL     1     -40.665 -51.525  13.015  1.00  0.00     0.062 A 
HETATM   10  C   UNL     1     -39.919 -53.774  14.474  1.00  0.00    -0.054 A 
HETATM   11  C   UNL     1     -39.489 -54.967  15.285  1.00  0.00     0.049 C 
HETATM   12  C   UNL     1     -41.266 -53.590  14.092  1.00  0.00    -0.054 A 
HETATM   13  C   UNL     1     -41.655 -52.455  13.351  1.00  0.00     0.039 A 
HETATM   14  C   UNL     1     -42.322 -54.594  14.478  1.00  0.00     0.049 C 
ENDBRANCH   2   3
ENDBRANCH   1   2
BRANCH   1  15
HETATM   15  O   UNL     1     -41.556 -48.694   9.651  1.00  0.00    -0.392 OA
HETATM   16  H   UNL     1     -42.320 -48.243   9.255  1.00  0.00     0.210 HD
ENDBRANCH   1  15
BRANCH   1  17
HETATM   17  C   UNL     1     -42.357 -47.163  11.352  1.00  0.00     0.181 C 
BRANCH  17  18
HETATM   18  N   UNL     1     -43.431 -47.033  10.376  1.00  0.00    -0.300 N 
HETATM   19  C   UNL     1     -43.596 -46.011   9.487  1.00  0.00     0.112 A 
HETATM   20  C   UNL     1     -44.761 -46.280   8.813  1.00  0.00     0.054 A 
HETATM   21  C   UNL     1     -45.227 -47.515   9.339  1.00  0.00     0.133 A 
HETATM   22  N   UNL     1     -44.383 -47.980  10.288  1.00  0.00    -0.295 N 
ATOM     23  HN  UNL     1     -44.452 -48.850  10.816  1.00  0.00     0.187 HD
BRANCH  21  24
HETATM   24  C   UNL     1     -46.483 -48.237   8.920  1.00  0.00     0.433 C 
HETATM   25  F   UNL     1     -47.575 -47.423   8.976  1.00  0.00    -0.165 F 
HETATM   26  F   UNL     1     -46.418 -48.696   7.643  1.00  0.00    -0.165 F 
HETATM   27  F   UNL     1     -46.764 -49.305   9.715  1.00  0.00    -0.165 F 
ENDBRANCH  21  24
ENDBRANCH  17  18
ENDBRANCH   1  17
TORSDOF 6
ENDMDL
MODEL 4
REMARK VINA RESULT:      -7.1      3.457      4.185
REMARK  6 active torsions:
REMARK  status: ('A' for Active; 'I' for Inactive)
REMARK    1  A    between atoms: N_8  and  C_9 
REMARK    2  A    between atoms: C_9  and  C_10 
REMARK    3  A    between atoms: C_10  and  O_11 
REMARK    4  A    between atoms: C_10  and  C_12 
REMARK    5  A    between atoms: C_12  and  N_13 
REMARK    6  A    between atoms: C_16  and  C_19 
ROOT
HETATM    1  C   UNL     1     -40.138 -50.430  11.491  1.00  0.00     0.156 C 
ENDROOT
BRANCH   1   2
HETATM    2  C   UNL     1     -41.427 -50.444  12.328  1.00  0.00     0.163 C 
BRANCH   2   3
HETATM    3  N   UNL     1     -41.927 -51.796  12.525  1.00  0.00    -0.339 N 
HETATM    4  C   UNL     1     -41.199 -52.937  12.320  1.00  0.00     0.184 A 
HETATM    5  N   UNL     1     -41.868 -54.012  12.665  1.00  0.00    -0.350 N 
HETATM    6  C   UNL     1     -43.079 -53.547  13.115  1.00  0.00     0.060 A 
ATOM      7  HN  UNL     1     -41.557 -54.982  12.610  1.00  0.00     0.166 HD
HETATM    8  C   UNL     1     -44.163 -54.263  13.640  1.00  0.00     0.039 A 
HETATM    9  C   UNL     1     -43.159 -52.162  13.009  1.00  0.00     0.062 A 
HETATM   10  C   UNL     1     -45.323 -53.574  14.042  1.00  0.00    -0.054 A 
HETATM   11  C   UNL     1     -46.468 -54.363  14.621  1.00  0.00     0.049 C 
HETATM   12  C   UNL     1     -45.391 -52.170  13.905  1.00  0.00    -0.054 A 
HETATM   13  C   UNL     1     -44.301 -51.445  13.382  1.00  0.00     0.039 A 
HETATM   14  C   UNL     1     -46.624 -51.413  14.328  1.00  0.00     0.049 C 
ENDBRANCH   2   3
ENDBRANCH   1   2
BRANCH   1  15
HETATM   15  O   UNL     1     -40.435 -49.957  10.169  1.00  0.00    -0.392 OA
HETATM   16  H   UNL     1     -39.625 -49.928   9.634  1.00  0.00     0.210 HD
ENDBRANCH   1  15
BRANCH   1  17
HETATM   17  C   UNL     1     -39.062 -49.539  12.124  1.00  0.00     0.181 C 
BRANCH  17  18
HETATM   18  N   UNL     1     -39.484 -48.145  12.173  1.00  0.00    -0.300 N 
HETATM   19  C   UNL     1     -39.745 -47.419  13.299  1.00  0.00     0.112 A 
HETATM   20  C   UNL     1     -40.160 -46.184  12.867  1.00  0.00     0.054 A 
HETATM   21  C   UNL     1     -40.088 -46.236  11.448  1.00  0.00     0.133 A 
HETATM   22  N   UNL     1     -39.648 -47.446  11.035  1.00  0.00    -0.295 N 
ATOM     23  HN  UNL     1     -39.478 -47.758  10.079  1.00  0.00     0.187 HD
BRANCH  21  24
HETATM   24  C   UNL     1     -40.444 -45.116  10.503  1.00  0.00     0.433 C 
HETATM   25  F   UNL     1     -41.570 -45.399   9.787  1.00  0.00    -0.165 F 
HETATM   26  F   UNL     1     -40.691 -43.947  11.150  1.00  0.00    -0.165 F 
HETATM   27  F   UNL     1     -39.466 -44.869   9.591  1.00  0.00    -0.165 F 
ENDBRANCH  21  24
ENDBRANCH  17  18
ENDBRANCH   1  17
TORSDOF 6
ENDMDL
MODEL 5
REMARK VINA RESULT:      -6.9      2.022      2.690
REMARK  6 active torsions:
REMARK  status: ('A' for Active; 'I' for Inactive)
REMARK    1  A    between atoms: N_8  and  C_9 
REMARK    2  A    between atoms: C_9  and  C_10 
REMARK    3  A    between atoms: C_10  and  O_11 
REMARK    4  A    between atoms: C_10  and  C_12 
REMARK    5  A    between atoms: C_12  and  N_13 
REMARK    6  A    between atoms: C_16  and  C_19 
ROOT
HETATM    1  C   UNL     1     -39.917 -49.494  13.027  1.00  0.00     0.156 C 
ENDROOT
BRANCH   1   2
HETATM    2  C   UNL     1     -40.081 -50.995  13.311  1.00  0.00     0.163 C 
BRANCH   2   3
HETATM    3  N   UNL     1     -41.405 -51.472  12.942  1.00  0.00    -0.339 N 
HETATM    4  C   UNL     1     -41.672 -52.293  11.879  1.00  0.00     0.184 A 
HETATM    5  N   UNL     1     -42.937 -52.640  11.836  1.00  0.00    -0.350 N 
HETATM    6  C   UNL     1     -43.512 -52.022  12.918  1.00  0.00     0.060 A 
ATOM      7  HN  UNL     1     -43.393 -53.239  11.149  1.00  0.00     0.166 HD
HETATM    8  C   UNL     1     -44.837 -52.080  13.372  1.00  0.00     0.039 A 
HETATM    9  C   UNL     1     -42.583 -51.254  13.614  1.00  0.00     0.062 A 
HETATM   10  C   UNL     1     -45.213 -51.354  14.517  1.00  0.00    -0.054 A 
HETATM   11  C   UNL     1     -46.637 -51.448  14.996  1.00  0.00     0.049 C 
HETATM   12  C   UNL     1     -44.259 -50.564  15.195  1.00  0.00    -0.054 A 
HETATM   13  C   UNL     1     -42.924 -50.504  14.745  1.00  0.00     0.039 A 
HETATM   14  C   UNL     1     -44.640 -49.776  16.422  1.00  0.00     0.049 C 
ENDBRANCH   2   3
ENDBRANCH   1   2
BRANCH   1  15
HETATM   15  O   UNL     1     -38.677 -49.038  13.589  1.00  0.00    -0.392 OA
HETATM   16  H   UNL     1     -38.812 -48.200  14.060  1.00  0.00     0.210 HD
ENDBRANCH   1  15
BRANCH   1  17
HETATM   17  C   UNL     1     -39.935 -49.198  11.523  1.00  0.00     0.181 C 
BRANCH  17  18
HETATM   18  N   UNL     1     -41.160 -48.515  11.126  1.00  0.00    -0.300 N 
HETATM   19  C   UNL     1     -42.033 -47.873  11.957  1.00  0.00     0.112 A 
HETATM   20  C   UNL     1     -43.059 -47.432  11.160  1.00  0.00     0.054 A 
HETATM   21  C   UNL     1     -42.710 -47.826   9.840  1.00  0.00     0.133 A 
HETATM   22  N   UNL     1     -41.524 -48.474   9.832  1.00  0.00    -0.295 N 
ATOM     23  HN  UNL     1     -41.019 -48.846   9.027  1.00  0.00     0.187 HD
BRANCH  21  24
HETATM   24  C   UNL     1     -43.525 -47.570   8.597  1.00  0.00     0.433 C 
HETATM   25  F   UNL     1     -43.039 -48.259   7.525  1.00  0.00    -0.165 F 
HETATM   26  F   UNL     1     -44.821 -47.952   8.736  1.00  0.00    -0.165 F 
HETATM   27  F   UNL     1     -43.530 -46.259   8.234  1.00  0.00    -0.165 F 
ENDBRANCH  21  24
ENDBRANCH  17  18
ENDBRANCH   1  17
TORSDOF 6
ENDMDL
MODEL 6
REMARK VINA RESULT:      -6.9      2.578      4.419
REMARK  6 active torsions:
REMARK  status: ('A' for Active; 'I' for Inactive)
REMARK    1  A    between atoms: N_8  and  C_9 
REMARK    2  A    between atoms: C_9  and  C_10 
REMARK    3  A    between atoms: C_10  and  O_11 
REMARK    4  A    between atoms: C_10  and  C_12 
REMARK    5  A    between atoms: C_12  and  N_13 
REMARK    6  A    between atoms: C_16  and  C_19 
ROOT
HETATM    1  C   UNL     1     -41.415 -48.177  10.904  1.00  0.00     0.156 C 
ENDROOT
BRANCH   1   2
HETATM    2  C   UNL     1     -41.651 -49.332  11.889  1.00  0.00     0.163 C 
BRANCH   2   3
HETATM    3  N   UNL     1     -40.409 -49.789  12.493  1.00  0.00    -0.339 N 
HETATM    4  C   UNL     1     -39.768 -50.956  12.177  1.00  0.00     0.184 A 
HETATM    5  N   UNL     1     -38.622 -51.070  12.807  1.00  0.00    -0.350 N 
HETATM    6  C   UNL     1     -38.515 -49.928  13.559  1.00  0.00     0.060 A 
ATOM      7  HN  UNL     1     -37.956 -51.841  12.750  1.00  0.00     0.166 HD
HETATM    8  C   UNL     1     -37.471 -49.513  14.396  1.00  0.00     0.039 A 
HETATM    9  C   UNL     1     -39.637 -49.118  13.410  1.00  0.00     0.062 A 
HETATM   10  C   UNL     1     -37.574 -48.288  15.083  1.00  0.00    -0.054 A 
HETATM   11  C   UNL     1     -36.430 -47.854  15.962  1.00  0.00     0.049 C 
HETATM   12  C   UNL     1     -38.731 -47.492  14.934  1.00  0.00    -0.054 A 
HETATM   13  C   UNL     1     -39.782 -47.903  14.090  1.00  0.00     0.039 A 
HETATM   14  C   UNL     1     -38.863 -46.179  15.661  1.00  0.00     0.049 C 
ENDBRANCH   2   3
ENDBRANCH   1   2
BRANCH   1  15
HETATM   15  O   UNL     1     -41.673 -48.634   9.567  1.00  0.00    -0.392 OA
HETATM   16  H   UNL     1     -42.346 -49.333   9.577  1.00  0.00     0.210 HD
ENDBRANCH   1  15
BRANCH   1  17
HETATM   17  C   UNL     1     -42.313 -46.975  11.216  1.00  0.00     0.181 C 
BRANCH  17  18
HETATM   18  N   UNL     1     -43.430 -46.885  10.284  1.00  0.00    -0.300 N 
HETATM   19  C   UNL     1     -43.676 -45.863   9.413  1.00  0.00     0.112 A 
HETATM   20  C   UNL     1     -44.853 -46.177   8.783  1.00  0.00     0.054 A 
HETATM   21  C   UNL     1     -45.242 -47.438   9.313  1.00  0.00     0.133 A 
HETATM   22  N   UNL     1     -44.341 -47.873  10.222  1.00  0.00    -0.295 N 
ATOM     23  HN  UNL     1     -44.350 -48.750  10.743  1.00  0.00     0.187 HD
BRANCH  21  24
HETATM   24  C   UNL     1     -46.480 -48.212   8.934  1.00  0.00     0.433 C 
HETATM   25  F   UNL     1     -46.684 -49.273   9.766  1.00  0.00    -0.165 F 
HETATM   26  F   UNL     1     -47.607 -47.457   8.999  1.00  0.00    -0.165 F 
HETATM   27  F   UNL     1     -46.413 -48.724   7.676  1.00  0.00    -0.165 F 
ENDBRANCH  21  24
ENDBRANCH  17  18
ENDBRANCH   1  17
TORSDOF 6
ENDMDL
MODEL 7
REMARK VINA RESULT:      -6.6      3.139      5.795
REMARK  6 active torsions:
REMARK  status: ('A' for Active; 'I' for Inactive)
REMARK    1  A    between atoms: N_8  and  C_9 
REMARK    2  A    between atoms: C_9  and  C_10 
REMARK    3  A    between atoms: C_10  and  O_11 
REMARK    4  A    between atoms: C_10  and  C_12 
REMARK    5  A    between atoms: C_12  and  N_13 
REMARK    6  A    between atoms: C_16  and  C_19 
ROOT
HETATM    1  C   UNL     1     -41.183 -52.994  12.648  1.00  0.00     0.156 C 
ENDROOT
BRANCH   1   2
HETATM    2  C   UNL     1     -40.201 -52.376  13.657  1.00  0.00     0.163 C 
BRANCH   2   3
HETATM    3  N   UNL     1     -39.576 -51.172  13.133  1.00  0.00    -0.339 N 
HETATM    4  C   UNL     1     -38.226 -50.988  12.998  1.00  0.00     0.184 A 
HETATM    5  N   UNL     1     -37.945 -49.847  12.413  1.00  0.00    -0.350 N 
HETATM    6  C   UNL     1     -39.164 -49.271  12.155  1.00  0.00     0.060 A 
ATOM      7  HN  UNL     1     -37.022 -49.471  12.197  1.00  0.00     0.166 HD
HETATM    8  C   UNL     1     -39.454 -48.062  11.509  1.00  0.00     0.039 A 
HETATM    9  C   UNL     1     -40.207 -50.064  12.625  1.00  0.00     0.062 A 
HETATM   10  C   UNL     1     -40.793 -47.659  11.353  1.00  0.00    -0.054 A 
HETATM   11  C   UNL     1     -41.080 -46.365  10.638  1.00  0.00     0.049 C 
HETATM   12  C   UNL     1     -41.836 -48.468  11.857  1.00  0.00    -0.054 A 
HETATM   13  C   UNL     1     -41.549 -49.687  12.505  1.00  0.00     0.039 A 
HETATM   14  C   UNL     1     -43.276 -48.055  11.704  1.00  0.00     0.049 C 
ENDBRANCH   2   3
ENDBRANCH   1   2
BRANCH   1  15
HETATM   15  O   UNL     1     -40.454 -53.458  11.501  1.00  0.00    -0.392 OA
HETATM   16  H   UNL     1     -39.637 -52.944  11.394  1.00  0.00     0.210 HD
ENDBRANCH   1  15
BRANCH   1  17
HETATM   17  C   UNL     1     -41.966 -54.160  13.262  1.00  0.00     0.181 C 
BRANCH  17  18
HETATM   18  N   UNL     1     -43.387 -53.855  13.365  1.00  0.00    -0.300 N 
HETATM   19  C   UNL     1     -44.368 -54.705  13.789  1.00  0.00     0.112 A 
HETATM   20  C   UNL     1     -45.547 -54.013  13.668  1.00  0.00     0.054 A 
HETATM   21  C   UNL     1     -45.183 -52.725  13.190  1.00  0.00     0.133 A 
HETATM   22  N   UNL     1     -43.844 -52.635  13.029  1.00  0.00    -0.295 N 
ATOM     23  HN  UNL     1     -43.303 -51.826  12.723  1.00  0.00     0.187 HD
BRANCH  21  24
HETATM   24  C   UNL     1     -46.133 -51.591  12.894  1.00  0.00     0.433 C 
HETATM   25  F   UNL     1     -46.875 -51.257  13.989  1.00  0.00    -0.165 F 
HETATM   26  F   UNL     1     -45.488 -50.458  12.513  1.00  0.00    -0.165 F 
HETATM   27  F   UNL     1     -47.023 -51.896  11.911  1.00  0.00    -0.165 F 
ENDBRANCH  21  24
ENDBRANCH  17  18
ENDBRANCH   1  17
TORSDOF 6
ENDMDL
MODEL 8
REMARK VINA RESULT:      -6.5      3.604      6.461
REMARK  6 active torsions:
REMARK  status: ('A' for Active; 'I' for Inactive)
REMARK    1  A    between atoms: N_8  and  C_9 
REMARK    2  A    between atoms: C_9  and  C_10 
REMARK    3  A    between atoms: C_10  and  O_11 
REMARK    4  A    between atoms: C_10  and  C_12 
REMARK    5  A    between atoms: C_12  and  N_13 
REMARK    6  A    between atoms: C_16  and  C_19 
ROOT
HETATM    1  C   UNL     1     -41.054 -52.453  12.339  1.00  0.00     0.156 C 
ENDROOT
BRANCH   1   2
HETATM    2  C   UNL     1     -39.897 -51.554  12.803  1.00  0.00     0.163 C 
BRANCH   2   3
HETATM    3  N   UNL     1     -40.007 -50.210  12.259  1.00  0.00    -0.339 N 
HETATM    4  C   UNL     1     -40.580 -49.898  11.055  1.00  0.00     0.184 A 
HETATM    5  N   UNL     1     -40.627 -48.601  10.858  1.00  0.00    -0.350 N 
HETATM    6  C   UNL     1     -40.064 -48.050  11.982  1.00  0.00     0.060 A 
ATOM      7  HN  UNL     1     -41.000 -48.109  10.046  1.00  0.00     0.166 HD
HETATM    8  C   UNL     1     -39.894 -46.701  12.318  1.00  0.00     0.039 A 
HETATM    9  C   UNL     1     -39.635 -49.036  12.867  1.00  0.00     0.062 A 
HETATM   10  C   UNL     1     -39.281 -46.359  13.538  1.00  0.00    -0.054 A 
HETATM   11  C   UNL     1     -39.127 -44.902  13.886  1.00  0.00     0.049 C 
HETATM   12  C   UNL     1     -38.834 -47.375  14.411  1.00  0.00    -0.054 A 
HETATM   13  C   UNL     1     -39.007 -48.735  14.080  1.00  0.00     0.039 A 
HETATM   14  C   UNL     1     -38.174 -47.031  15.722  1.00  0.00     0.049 C 
ENDBRANCH   2   3
ENDBRANCH   1   2
BRANCH   1  15
HETATM   15  O   UNL     1     -40.555 -53.427  11.409  1.00  0.00    -0.392 OA
HETATM   16  H   UNL     1     -41.202 -54.142  11.296  1.00  0.00     0.210 HD
ENDBRANCH   1  15
BRANCH   1  17
HETATM   17  C   UNL     1     -41.723 -53.169  13.519  1.00  0.00     0.181 C 
BRANCH  17  18
HETATM   18  N   UNL     1     -43.175 -53.066  13.454  1.00  0.00    -0.300 N 
HETATM   19  C   UNL     1     -43.990 -53.688  12.552  1.00  0.00     0.112 A 
HETATM   20  C   UNL     1     -45.263 -53.261  12.835  1.00  0.00     0.054 A 
HETATM   21  C   UNL     1     -45.133 -52.398  13.957  1.00  0.00     0.133 A 
HETATM   22  N   UNL     1     -43.841 -52.306  14.342  1.00  0.00    -0.295 N 
ATOM     23  HN  UNL     1     -43.457 -51.780  15.128  1.00  0.00     0.187 HD
BRANCH  21  24
HETATM   24  C   UNL     1     -46.259 -51.671  14.648  1.00  0.00     0.433 C 
HETATM   25  F   UNL     1     -45.793 -50.745  15.534  1.00  0.00    -0.165 F 
HETATM   26  F   UNL     1     -47.056 -50.997  13.779  1.00  0.00    -0.165 F 
HETATM   27  F   UNL     1     -47.062 -52.507  15.361  1.00  0.00    -0.165 F 
ENDBRANCH  21  24
ENDBRANCH  17  18
ENDBRANCH   1  17
TORSDOF 6
ENDMDL
MODEL 9
REMARK VINA RESULT:      -6.5      4.805      6.392
REMARK  6 active torsions:
REMARK  status: ('A' for Active; 'I' for Inactive)
REMARK    1  A    between atoms: N_8  and  C_9 
REMARK    2  A    between atoms: C_9  and  C_10 
REMARK    3  A    between atoms: C_10  and  O_11 
REMARK    4  A    between atoms: C_10  and  C_12 
REMARK    5  A    between atoms: C_12  and  N_13 
REMARK    6  A    between atoms: C_16  and  C_19 
ROOT
HETATM    1  C   UNL     1     -42.482 -52.697  12.418  1.00  0.00     0.156 C 
ENDROOT
BRANCH   1   2
HETATM    2  C   UNL     1     -42.898 -52.931  13.878  1.00  0.00     0.163 C 
BRANCH   2   3
HETATM    3  N   UNL     1     -44.344 -52.909  14.037  1.00  0.00    -0.339 N 
HETATM    4  C   UNL     1     -45.219 -53.697  13.338  1.00  0.00     0.184 A 
HETATM    5  N   UNL     1     -46.455 -53.536  13.749  1.00  0.00    -0.350 N 
HETATM    6  C   UNL     1     -46.377 -52.609  14.758  1.00  0.00     0.060 A 
ATOM      7  HN  UNL     1     -47.292 -54.000  13.395  1.00  0.00     0.166 HD
HETATM    8  C   UNL     1     -47.396 -52.096  15.571  1.00  0.00     0.039 A 
HETATM    9  C   UNL     1     -45.068 -52.171  14.940  1.00  0.00     0.062 A 
HETATM   10  C   UNL     1     -47.086 -51.138  16.555  1.00  0.00    -0.054 A 
HETATM   11  C   UNL     1     -48.194 -50.616  17.430  1.00  0.00     0.049 C 
HETATM   12  C   UNL     1     -45.754 -50.691  16.709  1.00  0.00    -0.054 A 
HETATM   13  C   UNL     1     -44.725 -51.207  15.894  1.00  0.00     0.039 A 
HETATM   14  C   UNL     1     -45.401 -49.665  17.753  1.00  0.00     0.049 C 
ENDBRANCH   2   3
ENDBRANCH   1   2
BRANCH   1  15
HETATM   15  O   UNL     1     -42.574 -51.295  12.117  1.00  0.00    -0.392 OA
HETATM   16  H   UNL     1     -43.450 -51.089  11.753  1.00  0.00     0.210 HD
ENDBRANCH   1  15
BRANCH   1  17
HETATM   17  C   UNL     1     -41.052 -53.183  12.152  1.00  0.00     0.181 C 
BRANCH  17  18
HETATM   18  N   UNL     1     -40.063 -52.226  12.628  1.00  0.00    -0.300 N 
HETATM   19  C   UNL     1     -39.438 -52.244  13.841  1.00  0.00     0.112 A 
HETATM   20  C   UNL     1     -38.639 -51.129  13.873  1.00  0.00     0.054 A 
HETATM   21  C   UNL     1     -38.816 -50.500  12.611  1.00  0.00     0.133 A 
HETATM   22  N   UNL     1     -39.681 -51.201  11.844  1.00  0.00    -0.295 N 
ATOM     23  HN  UNL     1     -39.976 -50.999  10.889  1.00  0.00     0.187 HD
BRANCH  21  24
HETATM   24  C   UNL     1     -38.146 -49.228  12.156  1.00  0.00     0.433 C 
HETATM   25  F   UNL     1     -37.314 -49.447  11.098  1.00  0.00    -0.165 F 
HETATM   26  F   UNL     1     -39.037 -48.286  11.749  1.00  0.00    -0.165 F 
HETATM   27  F   UNL     1     -37.382 -48.661  13.129  1.00  0.00    -0.165 F 
ENDBRANCH  21  24
ENDBRANCH  17  18
ENDBRANCH   1  17
TORSDOF 6
ENDMDL
