MODEL 1
REMARK VINA RESULT:      -6.1      0.000      0.000
REMARK  3 active torsions:
REMARK  status: ('A' for Active; 'I' for Inactive)
REMARK       I    between atoms: N_1  and  C_2 
REMARK    1  A    between atoms: C_2  and  C_4 
REMARK    2  A    between atoms: C_8  and  N_9 
REMARK       I    between atoms: N_9  and  C_10 
REMARK       I    between atoms: C_10  and  N_12 
REMARK    3  A    between atoms: N_12  and  C_13 
ROOT
HETATM    1  N   UNL     1     -42.519 -44.965  11.606  1.00  0.00    -0.337 N 
HETATM    2  C   UNL     1     -43.144 -45.416  10.454  1.00  0.00     0.321 C 
HETATM    3  O   UNL     1     -43.274 -44.727   9.449  1.00  0.00    -0.247 OA
HETATM    4  N   UNL     1     -43.571 -46.724  10.571  1.00  0.00    -0.309 N 
HETATM    5  H   UNL     1     -42.169 -45.695  12.218  1.00  0.00     0.164 HD
HETATM    6  H   UNL     1     -42.958 -47.309  11.119  1.00  0.00     0.170 HD
ENDROOT
BRANCH   1   7
HETATM    7  C   UNL     1     -41.696 -43.761  11.548  1.00  0.00     0.099 C 
HETATM    8  C   UNL     1     -40.178 -44.019  11.482  1.00  0.00     0.100 C 
HETATM    9  C   UNL     1     -39.734 -44.179  12.940  1.00  0.00     0.016 C 
HETATM   10  C   UNL     1     -40.825 -43.545  13.794  1.00  0.00     0.003 C 
HETATM   11  C   UNL     1     -41.801 -42.906  12.818  1.00  0.00     0.026 C 
BRANCH   8  12
HETATM   12  C   UNL     1     -39.727 -45.184  10.623  1.00  0.00     0.221 C 
HETATM   13  N   UNL     1     -39.200 -44.827   9.415  1.00  0.00    -0.370 N 
HETATM   14  H   UNL     1     -38.848 -45.559   8.810  1.00  0.00     0.159 HD
HETATM   15  H   UNL     1     -39.021 -43.864   9.153  1.00  0.00     0.159 HD
HETATM   16  O   UNL     1     -39.821 -46.361  10.950  1.00  0.00    -0.273 OA
ENDBRANCH   8  12
ENDBRANCH   1   7
BRANCH   4  17
HETATM   17  C   UNL     1     -44.280 -47.354   9.524  1.00  0.00     0.038 A 
HETATM   18  C   UNL     1     -43.586 -47.763   8.392  1.00  0.00     0.046 A 
HETATM   19  C   UNL     1     -44.313 -48.323   7.352  1.00  0.00     0.090 A 
HETATM   20  N   UNL     1     -45.643 -48.549   7.396  1.00  0.00    -0.375 N 
HETATM   21  C   UNL     1     -46.284 -48.173   8.525  1.00  0.00     0.090 A 
ATOM     22  HN  UNL     1     -46.140 -48.981   6.617  1.00  0.00     0.164 HD
HETATM   23  C   UNL     1     -45.656 -47.569   9.601  1.00  0.00     0.046 A 
ENDBRANCH   4  17
TORSDOF 3
ENDMDL
MODEL 2
REMARK VINA RESULT:      -5.9      6.441      7.209
REMARK  3 active torsions:
REMARK  status: ('A' for Active; 'I' for Inactive)
REMARK       I    between atoms: N_1  and  C_2 
REMARK    1  A    between atoms: C_2  and  C_4 
REMARK    2  A    between atoms: C_8  and  N_9 
REMARK       I    between atoms: N_9  and  C_10 
REMARK       I    between atoms: C_10  and  N_12 
REMARK    3  A    between atoms: N_12  and  C_13 
ROOT
HETATM    1  N   UNL     1     -40.136 -51.908  12.861  1.00  0.00    -0.337 N 
HETATM    2  C   UNL     1     -41.407 -52.150  13.358  1.00  0.00     0.321 C 
HETATM    3  O   UNL     1     -41.845 -51.611  14.368  1.00  0.00    -0.247 OA
HETATM    4  N   UNL     1     -42.113 -53.041  12.574  1.00  0.00    -0.309 N 
HETATM    5  H   UNL     1     -40.012 -52.123  11.877  1.00  0.00     0.164 HD
HETATM    6  H   UNL     1     -41.925 -52.956  11.586  1.00  0.00     0.170 HD
ENDROOT
BRANCH   1   7
HETATM    7  C   UNL     1     -39.392 -50.746  13.336  1.00  0.00     0.099 C 
HETATM    8  C   UNL     1     -39.269 -49.597  12.317  1.00  0.00     0.100 C 
HETATM    9  C   UNL     1     -38.049 -49.950  11.458  1.00  0.00     0.016 C 
HETATM   10  C   UNL     1     -37.236 -50.957  12.261  1.00  0.00     0.003 C 
HETATM   11  C   UNL     1     -37.916 -51.057  13.618  1.00  0.00     0.026 C 
BRANCH   8  12
HETATM   12  C   UNL     1     -40.493 -49.311  11.469  1.00  0.00     0.221 C 
HETATM   13  N   UNL     1     -40.452 -49.845  10.213  1.00  0.00    -0.370 N 
HETATM   14  H   UNL     1     -41.256 -49.718   9.610  1.00  0.00     0.159 HD
HETATM   15  H   UNL     1     -39.718 -50.473   9.904  1.00  0.00     0.159 HD
HETATM   16  O   UNL     1     -41.454 -48.650  11.845  1.00  0.00    -0.273 OA
ENDBRANCH   8  12
ENDBRANCH   1   7
BRANCH   4  17
HETATM   17  C   UNL     1     -43.410 -53.462  12.939  1.00  0.00     0.038 A 
HETATM   18  C   UNL     1     -44.506 -52.742  12.479  1.00  0.00     0.046 A 
HETATM   19  C   UNL     1     -45.766 -53.137  12.901  1.00  0.00     0.090 A 
HETATM   20  N   UNL     1     -45.998 -54.214  13.682  1.00  0.00    -0.375 N 
HETATM   21  C   UNL     1     -44.915 -54.915  14.082  1.00  0.00     0.090 A 
ATOM     22  HN  UNL     1     -46.943 -54.485  13.955  1.00  0.00     0.164 HD
HETATM   23  C   UNL     1     -43.614 -54.578  13.750  1.00  0.00     0.046 A 
ENDBRANCH   4  17
TORSDOF 3
ENDMDL
MODEL 3
REMARK VINA RESULT:      -5.8      5.320      7.303
REMARK  3 active torsions:
REMARK  status: ('A' for Active; 'I' for Inactive)
REMARK       I    between atoms: N_1  and  C_2 
REMARK    1  A    between atoms: C_2  and  C_4 
REMARK    2  A    between atoms: C_8  and  N_9 
REMARK       I    between atoms: N_9  and  C_10 
REMARK       I    between atoms: C_10  and  N_12 
REMARK    3  A    between atoms: N_12  and  C_13 
ROOT
HETATM    1  N   UNL     1     -42.631 -51.119  12.247  1.00  0.00    -0.337 N 
HETATM    2  C   UNL     1     -42.333 -49.766  12.239  1.00  0.00     0.321 C 
HETATM    3  O   UNL     1     -42.491 -49.039  13.213  1.00  0.00    -0.247 OA
HETATM    4  N   UNL     1     -41.823 -49.352  11.024  1.00  0.00    -0.309 N 
HETATM    5  H   UNL     1     -42.154 -51.668  11.539  1.00  0.00     0.164 HD
HETATM    6  H   UNL     1     -41.239 -50.038  10.568  1.00  0.00     0.170 HD
ENDROOT
BRANCH   1   7
HETATM    7  C   UNL     1     -42.830 -51.799  13.523  1.00  0.00     0.099 C 
HETATM    8  C   UNL     1     -42.244 -53.222  13.595  1.00  0.00     0.100 C 
HETATM    9  C   UNL     1     -43.327 -54.134  13.010  1.00  0.00     0.016 C 
HETATM   10  C   UNL     1     -44.632 -53.351  13.079  1.00  0.00     0.003 C 
HETATM   11  C   UNL     1     -44.310 -52.068  13.830  1.00  0.00     0.026 C 
BRANCH   8  12
HETATM   12  C   UNL     1     -40.902 -53.435  12.923  1.00  0.00     0.221 C 
HETATM   13  N   UNL     1     -40.804 -54.591  12.203  1.00  0.00    -0.370 N 
HETATM   14  H   UNL     1     -39.943 -54.773  11.701  1.00  0.00     0.159 HD
HETATM   15  H   UNL     1     -41.593 -55.206  12.037  1.00  0.00     0.159 HD
HETATM   16  O   UNL     1     -39.957 -52.658  13.006  1.00  0.00    -0.273 OA
ENDBRANCH   8  12
ENDBRANCH   1   7
BRANCH   4  17
HETATM   17  C   UNL     1     -41.506 -47.995  10.793  1.00  0.00     0.038 A 
HETATM   18  C   UNL     1     -42.454 -47.175  10.193  1.00  0.00     0.046 A 
HETATM   19  C   UNL     1     -42.098 -45.863   9.921  1.00  0.00     0.090 A 
HETATM   20  N   UNL     1     -40.910 -45.317  10.257  1.00  0.00    -0.375 N 
HETATM   21  C   UNL     1     -40.024 -46.130  10.871  1.00  0.00     0.090 A 
ATOM     22  HN  UNL     1     -40.693 -44.341  10.056  1.00  0.00     0.164 HD
HETATM   23  C   UNL     1     -40.267 -47.464  11.149  1.00  0.00     0.046 A 
ENDBRANCH   4  17
TORSDOF 3
ENDMDL
MODEL 4
REMARK VINA RESULT:      -5.8      6.302      8.432
REMARK  3 active torsions:
REMARK  status: ('A' for Active; 'I' for Inactive)
REMARK       I    between atoms: N_1  and  C_2 
REMARK    1  A    between atoms: C_2  and  C_4 
REMARK    2  A    between atoms: C_8  and  N_9 
REMARK       I    between atoms: N_9  and  C_10 
REMARK       I    between atoms: C_10  and  N_12 
REMARK    3  A    between atoms: N_12  and  C_13 
ROOT
HETATM    1  N   UNL     1     -42.984 -52.130  13.213  1.00  0.00    -0.337 N 
HETATM    2  C   UNL     1     -42.240 -51.259  12.433  1.00  0.00     0.321 C 
HETATM    3  O   UNL     1     -41.337 -51.628  11.691  1.00  0.00    -0.247 OA
HETATM    4  N   UNL     1     -42.653 -49.949  12.578  1.00  0.00    -0.309 N 
HETATM    5  H   UNL     1     -43.890 -51.779  13.504  1.00  0.00     0.164 HD
HETATM    6  H   UNL     1     -43.648 -49.844  12.709  1.00  0.00     0.170 HD
ENDROOT
BRANCH   1   7
HETATM    7  C   UNL     1     -42.940 -53.561  12.926  1.00  0.00     0.099 C 
HETATM    8  C   UNL     1     -44.209 -54.339  13.325  1.00  0.00     0.100 C 
HETATM    9  C   UNL     1     -44.017 -54.692  14.803  1.00  0.00     0.016 C 
HETATM   10  C   UNL     1     -42.524 -54.574  15.083  1.00  0.00     0.003 C 
HETATM   11  C   UNL     1     -41.867 -54.299  13.739  1.00  0.00     0.026 C 
BRANCH   8  12
HETATM   12  C   UNL     1     -45.534 -53.644  13.077  1.00  0.00     0.221 C 
HETATM   13  N   UNL     1     -46.477 -53.858  14.041  1.00  0.00    -0.370 N 
HETATM   14  H   UNL     1     -47.371 -53.392  13.950  1.00  0.00     0.159 HD
HETATM   15  H   UNL     1     -46.280 -54.350  14.905  1.00  0.00     0.159 HD
HETATM   16  O   UNL     1     -45.775 -52.946  12.099  1.00  0.00    -0.273 OA
ENDBRANCH   8  12
ENDBRANCH   1   7
BRANCH   4  17
HETATM   17  C   UNL     1     -41.986 -48.899  11.909  1.00  0.00     0.038 A 
HETATM   18  C   UNL     1     -42.635 -48.245  10.869  1.00  0.00     0.046 A 
HETATM   19  C   UNL     1     -41.937 -47.259  10.187  1.00  0.00     0.090 A 
HETATM   20  N   UNL     1     -40.691 -46.854  10.511  1.00  0.00    -0.375 N 
HETATM   21  C   UNL     1     -40.101 -47.484  11.550  1.00  0.00     0.090 A 
ATOM     22  HN  UNL     1     -40.218 -46.111   9.996  1.00  0.00     0.164 HD
HETATM   23  C   UNL     1     -40.696 -48.508  12.267  1.00  0.00     0.046 A 
ENDBRANCH   4  17
TORSDOF 3
ENDMDL
MODEL 5
REMARK VINA RESULT:      -5.4      6.344      8.491
REMARK  3 active torsions:
REMARK  status: ('A' for Active; 'I' for Inactive)
REMARK       I    between atoms: N_1  and  C_2 
REMARK    1  A    between atoms: C_2  and  C_4 
REMARK    2  A    between atoms: C_8  and  N_9 
REMARK       I    between atoms: N_9  and  C_10 
REMARK       I    between atoms: C_10  and  N_12 
REMARK    3  A    between atoms: N_12  and  C_13 
ROOT
HETATM    1  N   UNL     1     -44.254 -51.565  13.724  1.00  0.00    -0.337 N 
HETATM    2  C   UNL     1     -43.213 -50.661  13.590  1.00  0.00     0.321 C 
HETATM    3  O   UNL     1     -42.794 -49.979  14.518  1.00  0.00    -0.247 OA
HETATM    4  N   UNL     1     -42.700 -50.644  12.308  1.00  0.00    -0.309 N 
HETATM    5  H   UNL     1     -44.283 -52.295  13.020  1.00  0.00     0.164 HD
HETATM    6  H   UNL     1     -42.696 -51.545  11.855  1.00  0.00     0.170 HD
ENDROOT
BRANCH   1   7
HETATM    7  C   UNL     1     -44.672 -51.982  15.059  1.00  0.00     0.099 C 
HETATM    8  C   UNL     1     -45.405 -53.336  15.114  1.00  0.00     0.100 C 
HETATM    9  C   UNL     1     -46.874 -53.011  14.823  1.00  0.00     0.016 C 
HETATM   10  C   UNL     1     -47.046 -51.521  15.095  1.00  0.00     0.003 C 
HETATM   11  C   UNL     1     -45.722 -51.046  15.674  1.00  0.00     0.026 C 
BRANCH   8  12
HETATM   12  C   UNL     1     -44.877 -54.428  14.204  1.00  0.00     0.221 C 
HETATM   13  N   UNL     1     -45.823 -55.306  13.762  1.00  0.00    -0.370 N 
HETATM   14  H   UNL     1     -45.539 -56.038  13.123  1.00  0.00     0.159 HD
HETATM   15  H   UNL     1     -46.815 -55.182  13.935  1.00  0.00     0.159 HD
HETATM   16  O   UNL     1     -43.701 -54.547  13.879  1.00  0.00    -0.273 OA
ENDBRANCH   8  12
ENDBRANCH   1   7
BRANCH   4  17
HETATM   17  C   UNL     1     -41.667 -49.749  11.950  1.00  0.00     0.038 A 
HETATM   18  C   UNL     1     -42.003 -48.508  11.425  1.00  0.00     0.046 A 
HETATM   19  C   UNL     1     -40.972 -47.672  11.024  1.00  0.00     0.090 A 
HETATM   20  N   UNL     1     -39.662 -47.964  11.170  1.00  0.00    -0.375 N 
HETATM   21  C   UNL     1     -39.368 -49.163  11.718  1.00  0.00     0.090 A 
ATOM     22  HN  UNL     1     -38.932 -47.313  10.880  1.00  0.00     0.164 HD
HETATM   23  C   UNL     1     -40.323 -50.085  12.111  1.00  0.00     0.046 A 
ENDBRANCH   4  17
TORSDOF 3
ENDMDL
MODEL 6
REMARK VINA RESULT:      -5.2      5.221      5.635
REMARK  3 active torsions:
REMARK  status: ('A' for Active; 'I' for Inactive)
REMARK       I    between atoms: N_1  and  C_2 
REMARK    1  A    between atoms: C_2  and  C_4 
REMARK    2  A    between atoms: C_8  and  N_9 
REMARK       I    between atoms: N_9  and  C_10 
REMARK       I    between atoms: C_10  and  N_12 
REMARK    3  A    between atoms: N_12  and  C_13 
ROOT
HETATM    1  N   UNL     1     -41.356 -49.208  13.918  1.00  0.00    -0.337 N 
HETATM    2  C   UNL     1     -42.573 -49.697  13.470  1.00  0.00     0.321 C 
HETATM    3  O   UNL     1     -43.230 -49.153  12.590  1.00  0.00    -0.247 OA
HETATM    4  N   UNL     1     -42.933 -50.866  14.112  1.00  0.00    -0.309 N 
HETATM    5  H   UNL     1     -40.760 -49.892  14.373  1.00  0.00     0.164 HD
HETATM    6  H   UNL     1     -42.155 -51.469  14.333  1.00  0.00     0.170 HD
ENDROOT
BRANCH   1   7
HETATM    7  C   UNL     1     -40.651 -48.208  13.123  1.00  0.00     0.099 C 
HETATM    8  C   UNL     1     -39.470 -48.753  12.298  1.00  0.00     0.100 C 
HETATM    9  C   UNL     1     -38.273 -48.747  13.255  1.00  0.00     0.016 C 
HETATM   10  C   UNL     1     -38.629 -47.785  14.382  1.00  0.00     0.003 C 
HETATM   11  C   UNL     1     -39.951 -47.147  13.984  1.00  0.00     0.026 C 
BRANCH   8  12
HETATM   12  C   UNL     1     -39.667 -50.110  11.650  1.00  0.00     0.221 C 
HETATM   13  N   UNL     1     -40.285 -50.073  10.433  1.00  0.00    -0.370 N 
HETATM   14  H   UNL     1     -40.414 -50.945   9.933  1.00  0.00     0.159 HD
HETATM   15  H   UNL     1     -40.498 -49.209   9.948  1.00  0.00     0.159 HD
HETATM   16  O   UNL     1     -39.321 -51.173  12.153  1.00  0.00    -0.273 OA
ENDBRANCH   8  12
ENDBRANCH   1   7
BRANCH   4  17
HETATM   17  C   UNL     1     -44.166 -51.496  13.836  1.00  0.00     0.038 A 
HETATM   18  C   UNL     1     -44.204 -52.521  12.899  1.00  0.00     0.046 A 
HETATM   19  C   UNL     1     -45.437 -53.082  12.601  1.00  0.00     0.090 A 
HETATM   20  N   UNL     1     -46.592 -52.736  13.208  1.00  0.00    -0.375 N 
HETATM   21  C   UNL     1     -46.516 -51.762  14.140  1.00  0.00     0.090 A 
ATOM     22  HN  UNL     1     -47.477 -53.186  12.974  1.00  0.00     0.164 HD
HETATM   23  C   UNL     1     -45.342 -51.110  14.480  1.00  0.00     0.046 A 
ENDBRANCH   4  17
TORSDOF 3
ENDMDL
MODEL 7
REMARK VINA RESULT:      -4.9     11.587     14.471
REMARK  3 active torsions:
REMARK  status: ('A' for Active; 'I' for Inactive)
REMARK       I    between atoms: N_1  and  C_2 
REMARK    1  A    between atoms: C_2  and  C_4 
REMARK    2  A    between atoms: C_8  and  N_9 
REMARK       I    between atoms: N_9  and  C_10 
REMARK       I    between atoms: C_10  and  N_12 
REMARK    3  A    between atoms: N_12  and  C_13 
ROOT
HETATM    1  N   UNL     1     -50.649 -50.762  -0.472  1.00  0.00    -0.337 N 
HETATM    2  C   UNL     1     -50.484 -49.813   0.525  1.00  0.00     0.321 C 
HETATM    3  O   UNL     1     -50.184 -50.097   1.678  1.00  0.00    -0.247 OA
HETATM    4  N   UNL     1     -50.673 -48.527   0.056  1.00  0.00    -0.309 N 
HETATM    5  H   UNL     1     -50.552 -50.411  -1.419  1.00  0.00     0.164 HD
HETATM    6  H   UNL     1     -50.349 -48.383  -0.889  1.00  0.00     0.170 HD
ENDROOT
BRANCH   1   7
HETATM    7  C   UNL     1     -50.143 -52.115  -0.261  1.00  0.00     0.099 C 
HETATM    8  C   UNL     1     -48.922 -52.490  -1.123  1.00  0.00     0.100 C 
HETATM    9  C   UNL     1     -49.504 -52.980  -2.453  1.00  0.00     0.016 C 
HETATM   10  C   UNL     1     -50.958 -53.344  -2.178  1.00  0.00     0.003 C 
HETATM   11  C   UNL     1     -51.148 -53.198  -0.676  1.00  0.00     0.026 C 
BRANCH   8  12
HETATM   12  C   UNL     1     -47.881 -51.407  -1.326  1.00  0.00     0.221 C 
HETATM   13  N   UNL     1     -47.598 -51.130  -2.633  1.00  0.00    -0.370 N 
HETATM   14  H   UNL     1     -46.935 -50.391  -2.834  1.00  0.00     0.159 HD
HETATM   15  H   UNL     1     -48.115 -51.532  -3.407  1.00  0.00     0.159 HD
HETATM   16  O   UNL     1     -47.312 -50.815  -0.416  1.00  0.00    -0.273 OA
ENDBRANCH   8  12
ENDBRANCH   1   7
BRANCH   4  17
HETATM   17  C   UNL     1     -50.603 -47.418   0.927  1.00  0.00     0.038 A 
HETATM   18  C   UNL     1     -51.764 -46.975   1.548  1.00  0.00     0.046 A 
HETATM   19  C   UNL     1     -51.681 -45.848   2.351  1.00  0.00     0.090 A 
HETATM   20  N   UNL     1     -50.532 -45.191   2.615  1.00  0.00    -0.375 N 
HETATM   21  C   UNL     1     -49.414 -45.668   2.026  1.00  0.00     0.090 A 
ATOM     22  HN  UNL     1     -50.509 -44.375   3.228  1.00  0.00     0.164 HD
HETATM   23  C   UNL     1     -49.398 -46.760   1.175  1.00  0.00     0.046 A 
ENDBRANCH   4  17
TORSDOF 3
ENDMDL
MODEL 8
REMARK VINA RESULT:      -4.8      6.616      7.249
REMARK  3 active torsions:
REMARK  status: ('A' for Active; 'I' for Inactive)
REMARK       I    between atoms: N_1  and  C_2 
REMARK    1  A    between atoms: C_2  and  C_4 
REMARK    2  A    between atoms: C_8  and  N_9 
REMARK       I    between atoms: N_9  and  C_10 
REMARK       I    between atoms: C_10  and  N_12 
REMARK    3  A    between atoms: N_12  and  C_13 
ROOT
HETATM    1  N   UNL     1     -40.763 -50.869  13.302  1.00  0.00    -0.337 N 
HETATM    2  C   UNL     1     -41.803 -51.726  12.979  1.00  0.00     0.321 C 
HETATM    3  O   UNL     1     -41.923 -52.248  11.877  1.00  0.00    -0.247 OA
HETATM    4  N   UNL     1     -42.659 -51.932  14.043  1.00  0.00    -0.309 N 
HETATM    5  H   UNL     1     -40.574 -50.779  14.295  1.00  0.00     0.164 HD
HETATM    6  H   UNL     1     -42.199 -51.952  14.941  1.00  0.00     0.170 HD
ENDROOT
BRANCH   1   7
HETATM    7  C   UNL     1     -39.584 -50.819  12.443  1.00  0.00     0.099 C 
HETATM    8  C   UNL     1     -38.278 -50.427  13.160  1.00  0.00     0.100 C 
HETATM    9  C   UNL     1     -38.265 -48.895  13.163  1.00  0.00     0.016 C 
HETATM   10  C   UNL     1     -39.234 -48.454  12.073  1.00  0.00     0.003 C 
HETATM   11  C   UNL     1     -39.676 -49.727  11.368  1.00  0.00     0.026 C 
BRANCH   8  12
HETATM   12  C   UNL     1     -38.073 -50.997  14.550  1.00  0.00     0.221 C 
HETATM   13  N   UNL     1     -37.187 -50.304  15.323  1.00  0.00    -0.370 N 
HETATM   14  H   UNL     1     -37.033 -50.615  16.275  1.00  0.00     0.159 HD
HETATM   15  H   UNL     1     -36.779 -49.420  15.038  1.00  0.00     0.159 HD
HETATM   16  O   UNL     1     -38.634 -52.001  14.975  1.00  0.00    -0.273 OA
ENDBRANCH   8  12
ENDBRANCH   1   7
BRANCH   4  17
HETATM   17  C   UNL     1     -43.814 -52.732  13.903  1.00  0.00     0.038 A 
HETATM   18  C   UNL     1     -45.014 -52.126  13.553  1.00  0.00     0.046 A 
HETATM   19  C   UNL     1     -46.146 -52.923  13.481  1.00  0.00     0.090 A 
HETATM   20  N   UNL     1     -46.143 -54.259  13.670  1.00  0.00    -0.375 N 
HETATM   21  C   UNL     1     -44.955 -54.825  13.973  1.00  0.00     0.090 A 
ATOM     22  HN  UNL     1     -46.996 -54.814  13.589  1.00  0.00     0.164 HD
HETATM   23  C   UNL     1     -43.776 -54.111  14.109  1.00  0.00     0.046 A 
ENDBRANCH   4  17
TORSDOF 3
ENDMDL
MODEL 9
REMARK VINA RESULT:      -4.7     12.727     15.395
REMARK  3 active torsions:
REMARK  status: ('A' for Active; 'I' for Inactive)
REMARK       I    between atoms: N_1  and  C_2 
REMARK    1  A    between atoms: C_2  and  C_4 
REMARK    2  A    between atoms: C_8  and  N_9 
REMARK       I    between atoms: N_9  and  C_10 
REMARK       I    between atoms: C_10  and  N_12 
REMARK    3  A    between atoms: N_12  and  C_13 
ROOT
HETATM    1  N   UNL     1     -50.861 -51.082  -0.097  1.00  0.00    -0.337 N 
HETATM    2  C   UNL     1     -51.339 -51.914  -1.097  1.00  0.00     0.321 C 
HETATM    3  O   UNL     1     -51.910 -51.499  -2.098  1.00  0.00    -0.247 OA
HETATM    4  N   UNL     1     -51.074 -53.245  -0.838  1.00  0.00    -0.309 N 
HETATM    5  H   UNL     1     -50.131 -51.482   0.482  1.00  0.00     0.164 HD
HETATM    6  H   UNL     1     -50.192 -53.405  -0.375  1.00  0.00     0.170 HD
ENDROOT
BRANCH   1   7
HETATM    7  C   UNL     1     -50.725 -49.653  -0.361  1.00  0.00     0.099 C 
HETATM    8  C   UNL     1     -49.286 -49.111  -0.254  1.00  0.00     0.100 C 
HETATM    9  C   UNL     1     -49.086 -48.793   1.231  1.00  0.00     0.016 C 
HETATM   10  C   UNL     1     -50.479 -48.677   1.838  1.00  0.00     0.003 C 
HETATM   11  C   UNL     1     -51.451 -48.783   0.674  1.00  0.00     0.026 C 
BRANCH   8  12
HETATM   12  C   UNL     1     -48.186 -50.003  -0.795  1.00  0.00     0.221 C 
HETATM   13  N   UNL     1     -47.760 -49.681  -2.052  1.00  0.00    -0.370 N 
HETATM   14  H   UNL     1     -47.002 -50.218  -2.454  1.00  0.00     0.159 HD
HETATM   15  H   UNL     1     -48.071 -48.851  -2.544  1.00  0.00     0.159 HD
HETATM   16  O   UNL     1     -47.701 -50.949  -0.185  1.00  0.00    -0.273 OA
ENDBRANCH   8  12
ENDBRANCH   1   7
BRANCH   4  17
HETATM   17  C   UNL     1     -51.527 -54.259  -1.710  1.00  0.00     0.038 A 
HETATM   18  C   UNL     1     -50.639 -54.801  -2.631  1.00  0.00     0.046 A 
HETATM   19  C   UNL     1     -51.123 -55.752  -3.517  1.00  0.00     0.090 A 
HETATM   20  N   UNL     1     -52.387 -56.226  -3.501  1.00  0.00    -0.375 N 
HETATM   21  C   UNL     1     -53.216 -55.706  -2.570  1.00  0.00     0.090 A 
ATOM     22  HN  UNL     1     -52.699 -56.941  -4.158  1.00  0.00     0.164 HD
HETATM   23  C   UNL     1     -52.841 -54.724  -1.668  1.00  0.00     0.046 A 
ENDBRANCH   4  17
TORSDOF 3
ENDMDL
