MODEL 1
REMARK VINA RESULT:      -5.9      0.000      0.000
REMARK  6 active torsions:
REMARK  status: ('A' for Active; 'I' for Inactive)
REMARK    1  A    between atoms: C_8  and  C_9 
REMARK    2  A    between atoms: C_8  and  N_12 
REMARK    3  A    between atoms: C_9  and  O_10 
REMARK    4  A    between atoms: N_12  and  C_13 
REMARK    5  A    between atoms: C_13  and  C_14 
REMARK    6  A    between atoms: C_14  and  N_15 
ROOT
HETATM    1  C   UNL     1     -37.191 -51.085  12.151  1.00  0.00     0.010 C 
HETATM    2  C   UNL     1     -37.922 -49.745  12.228  1.00  0.00    -0.015 C 
HETATM    3  C   UNL     1     -38.064 -49.202  13.655  1.00  0.00     0.013 C 
HETATM    4  C   UNL     1     -39.357 -49.542  14.431  1.00  0.00    -0.045 C 
HETATM    5  C   UNL     1     -39.227 -50.876  15.190  1.00  0.00     0.015 C 
HETATM    6  C   UNL     1     -39.532 -48.465  15.537  1.00  0.00     0.015 C 
HETATM    7  C   UNL     1     -40.610 -49.488  13.510  1.00  0.00     0.052 C 
HETATM    8  C   UNL     1     -40.510 -50.187  12.120  1.00  0.00     0.179 C 
HETATM    9  C   UNL     1     -39.222 -49.711  11.416  1.00  0.00     0.048 C 
ENDROOT
BRANCH   8  10
HETATM   10  C   UNL     1     -40.591 -51.733  12.249  1.00  0.00     0.205 C 
BRANCH  10  11
HETATM   11  O   UNL     1     -41.218 -52.296  11.094  1.00  0.00    -0.398 OA
HETATM   12  H   UNL     1     -40.554 -52.913  10.726  1.00  0.00     0.209 HD
ENDBRANCH  10  11
ENDBRANCH   8  10
BRANCH   8  13
HETATM   13  N   UNL     1     -41.730 -49.735  11.336  1.00  0.00     0.097 N 
HETATM   14  H   UNL     1     -42.510 -49.649  11.994  1.00  0.00     0.317 HD
BRANCH  13  15
HETATM   15  C   UNL     1     -41.560 -48.441  10.638  1.00  0.00     0.292 C 
BRANCH  15  16
HETATM   16  C   UNL     1     -42.722 -47.462  10.844  1.00  0.00     0.180 C 
BRANCH  16  17
HETATM   17  N   UNL     1     -43.715 -47.635   9.800  1.00  0.00    -0.285 N 
HETATM   18  C   UNL     1     -43.511 -47.703   8.457  1.00  0.00     0.201 A 
HETATM   19  N   UNL     1     -44.667 -47.772   7.838  1.00  0.00    -0.346 N 
HETATM   20  C   UNL     1     -45.567 -47.733   8.869  1.00  0.00     0.198 A 
ATOM     21  HN  UNL     1     -44.850 -47.838   6.837  1.00  0.00     0.167 HD
HETATM   22  N   UNL     1     -45.033 -47.641  10.090  1.00  0.00    -0.293 N 
ATOM     23  HN  UNL     1     -45.496 -47.590  10.997  1.00  0.00     0.188 HD
ENDBRANCH  16  17
ENDBRANCH  15  16
ENDBRANCH  13  15
ENDBRANCH   8  13
TORSDOF 6
ENDMDL
MODEL 2
REMARK VINA RESULT:      -5.8      3.856      6.440
REMARK  6 active torsions:
REMARK  status: ('A' for Active; 'I' for Inactive)
REMARK    1  A    between atoms: C_8  and  C_9 
REMARK    2  A    between atoms: C_8  and  N_12 
REMARK    3  A    between atoms: C_9  and  O_10 
REMARK    4  A    between atoms: N_12  and  C_13 
REMARK    5  A    between atoms: C_13  and  C_14 
REMARK    6  A    between atoms: C_14  and  N_15 
ROOT
HETATM    1  C   UNL     1     -45.978 -54.322  14.733  1.00  0.00     0.010 C 
HETATM    2  C   UNL     1     -44.750 -54.909  14.039  1.00  0.00    -0.015 C 
HETATM    3  C   UNL     1     -43.615 -55.276  15.003  1.00  0.00     0.013 C 
HETATM    4  C   UNL     1     -42.517 -54.218  15.260  1.00  0.00    -0.045 C 
HETATM    5  C   UNL     1     -42.899 -53.279  16.420  1.00  0.00     0.015 C 
HETATM    6  C   UNL     1     -41.251 -54.972  15.753  1.00  0.00     0.015 C 
HETATM    7  C   UNL     1     -42.140 -53.452  13.959  1.00  0.00     0.052 C 
HETATM    8  C   UNL     1     -43.309 -52.939  13.064  1.00  0.00     0.179 C 
HETATM    9  C   UNL     1     -44.294 -54.101  12.818  1.00  0.00     0.048 C 
ENDROOT
BRANCH   8  10
HETATM   10  C   UNL     1     -43.994 -51.687  13.679  1.00  0.00     0.205 C 
BRANCH  10  11
HETATM   11  O   UNL     1     -44.882 -51.091  12.732  1.00  0.00    -0.398 OA
HETATM   12  H   UNL     1     -45.687 -51.646  12.761  1.00  0.00     0.209 HD
ENDBRANCH  10  11
ENDBRANCH   8  10
BRANCH   8  13
HETATM   13  N   UNL     1     -42.674 -52.508  11.754  1.00  0.00     0.097 N 
HETATM   14  H   UNL     1     -43.132 -51.642  11.455  1.00  0.00     0.317 HD
BRANCH  13  15
HETATM   15  C   UNL     1     -41.216 -52.263  11.835  1.00  0.00     0.292 C 
BRANCH  15  16
HETATM   16  C   UNL     1     -40.832 -50.779  11.854  1.00  0.00     0.180 C 
BRANCH  16  17
HETATM   17  N   UNL     1     -39.389 -50.634  11.909  1.00  0.00    -0.285 N 
HETATM   18  C   UNL     1     -38.551 -50.996  12.918  1.00  0.00     0.201 A 
HETATM   19  N   UNL     1     -37.327 -50.619  12.631  1.00  0.00    -0.346 N 
HETATM   20  C   UNL     1     -37.473 -50.010  11.414  1.00  0.00     0.198 A 
ATOM     21  HN  UNL     1     -36.477 -50.748  13.180  1.00  0.00     0.167 HD
HETATM   22  N   UNL     1     -38.719 -49.986  10.934  1.00  0.00    -0.293 N 
ATOM     23  HN  UNL     1     -39.070 -49.587  10.063  1.00  0.00     0.188 HD
ENDBRANCH  16  17
ENDBRANCH  15  16
ENDBRANCH  13  15
ENDBRANCH   8  13
TORSDOF 6
ENDMDL
MODEL 3
REMARK VINA RESULT:      -5.8      4.698      5.845
REMARK  6 active torsions:
REMARK  status: ('A' for Active; 'I' for Inactive)
REMARK    1  A    between atoms: C_8  and  C_9 
REMARK    2  A    between atoms: C_8  and  N_12 
REMARK    3  A    between atoms: C_9  and  O_10 
REMARK    4  A    between atoms: N_12  and  C_13 
REMARK    5  A    between atoms: C_13  and  C_14 
REMARK    6  A    between atoms: C_14  and  N_15 
ROOT
HETATM    1  C   UNL     1     -46.451 -54.692  14.637  1.00  0.00     0.010 C 
HETATM    2  C   UNL     1     -45.222 -53.877  15.037  1.00  0.00    -0.015 C 
HETATM    3  C   UNL     1     -45.433 -53.016  16.288  1.00  0.00     0.013 C 
HETATM    4  C   UNL     1     -45.890 -51.553  16.087  1.00  0.00    -0.045 C 
HETATM    5  C   UNL     1     -47.426 -51.444  16.024  1.00  0.00     0.015 C 
HETATM    6  C   UNL     1     -45.482 -50.759  17.359  1.00  0.00     0.015 C 
HETATM    7  C   UNL     1     -45.185 -50.893  14.866  1.00  0.00     0.052 C 
HETATM    8  C   UNL     1     -45.118 -51.717  13.545  1.00  0.00     0.179 C 
HETATM    9  C   UNL     1     -44.579 -53.127  13.864  1.00  0.00     0.048 C 
ENDROOT
BRANCH   8  10
HETATM   10  C   UNL     1     -46.490 -51.746  12.818  1.00  0.00     0.205 C 
BRANCH  10  11
HETATM   11  O   UNL     1     -46.425 -52.587  11.664  1.00  0.00    -0.398 OA
HETATM   12  H   UNL     1     -46.200 -53.472  12.013  1.00  0.00     0.209 HD
ENDBRANCH  10  11
ENDBRANCH   8  10
BRANCH   8  13
HETATM   13  N   UNL     1     -44.145 -50.979  12.641  1.00  0.00     0.097 N 
HETATM   14  H   UNL     1     -44.683 -50.310  12.083  1.00  0.00     0.317 HD
BRANCH  13  15
HETATM   15  C   UNL     1     -43.084 -50.241  13.363  1.00  0.00     0.292 C 
BRANCH  15  16
HETATM   16  C   UNL     1     -43.056 -48.737  13.066  1.00  0.00     0.180 C 
BRANCH  16  17
HETATM   17  N   UNL     1     -42.740 -48.507  11.669  1.00  0.00    -0.285 N 
HETATM   18  C   UNL     1     -41.564 -48.747  11.028  1.00  0.00     0.201 A 
HETATM   19  N   UNL     1     -41.642 -48.322   9.788  1.00  0.00    -0.346 N 
HETATM   20  C   UNL     1     -42.911 -47.811   9.721  1.00  0.00     0.198 A 
ATOM     21  HN  UNL     1     -40.934 -48.363   9.056  1.00  0.00     0.167 HD
HETATM   22  N   UNL     1     -43.620 -47.893  10.851  1.00  0.00    -0.293 N 
ATOM     23  HN  UNL     1     -44.570 -47.578  11.042  1.00  0.00     0.188 HD
ENDBRANCH  16  17
ENDBRANCH  15  16
ENDBRANCH  13  15
ENDBRANCH   8  13
TORSDOF 6
ENDMDL
MODEL 4
REMARK VINA RESULT:      -5.7      2.958      4.460
REMARK  6 active torsions:
REMARK  status: ('A' for Active; 'I' for Inactive)
REMARK    1  A    between atoms: C_8  and  C_9 
REMARK    2  A    between atoms: C_8  and  N_12 
REMARK    3  A    between atoms: C_9  and  O_10 
REMARK    4  A    between atoms: N_12  and  C_13 
REMARK    5  A    between atoms: C_13  and  C_14 
REMARK    6  A    between atoms: C_14  and  N_15 
ROOT
HETATM    1  C   UNL     1     -41.833 -53.130  16.200  1.00  0.00     0.010 C 
HETATM    2  C   UNL     1     -42.760 -52.149  15.485  1.00  0.00    -0.015 C 
HETATM    3  C   UNL     1     -44.169 -52.702  15.234  1.00  0.00     0.013 C 
HETATM    4  C   UNL     1     -44.442 -53.390  13.877  1.00  0.00    -0.045 C 
HETATM    5  C   UNL     1     -44.102 -54.892  13.926  1.00  0.00     0.015 C 
HETATM    6  C   UNL     1     -45.975 -53.333  13.628  1.00  0.00     0.015 C 
HETATM    7  C   UNL     1     -43.739 -52.647  12.704  1.00  0.00     0.052 C 
HETATM    8  C   UNL     1     -42.252 -52.230  12.908  1.00  0.00     0.179 C 
HETATM    9  C   UNL     1     -42.122 -51.490  14.256  1.00  0.00     0.048 C 
ENDROOT
BRANCH   8  10
HETATM   10  C   UNL     1     -41.295 -53.448  12.794  1.00  0.00     0.205 C 
BRANCH  10  11
HETATM   11  O   UNL     1     -40.583 -53.408  11.555  1.00  0.00    -0.398 OA
HETATM   12  H   UNL     1     -39.740 -52.959  11.766  1.00  0.00     0.209 HD
ENDBRANCH  10  11
ENDBRANCH   8  10
BRANCH   8  13
HETATM   13  N   UNL     1     -41.921 -51.288  11.763  1.00  0.00     0.097 N 
HETATM   14  H   UNL     1     -42.686 -51.342  11.084  1.00  0.00     0.317 HD
BRANCH  13  15
HETATM   15  C   UNL     1     -41.751 -49.875  12.167  1.00  0.00     0.292 C 
BRANCH  15  16
HETATM   16  C   UNL     1     -41.244 -48.960  11.045  1.00  0.00     0.180 C 
BRANCH  16  17
HETATM   17  N   UNL     1     -42.345 -48.205  10.477  1.00  0.00    -0.285 N 
HETATM   18  C   UNL     1     -43.344 -47.560  11.138  1.00  0.00     0.201 A 
HETATM   19  N   UNL     1     -44.201 -47.069  10.273  1.00  0.00    -0.346 N 
HETATM   20  C   UNL     1     -43.674 -47.457   9.070  1.00  0.00     0.198 A 
ATOM     21  HN  UNL     1     -45.048 -46.531  10.452  1.00  0.00     0.167 HD
HETATM   22  N   UNL     1     -42.542 -48.162   9.143  1.00  0.00    -0.293 N 
ATOM     23  HN  UNL     1     -41.978 -48.561   8.393  1.00  0.00     0.188 HD
ENDBRANCH  16  17
ENDBRANCH  15  16
ENDBRANCH  13  15
ENDBRANCH   8  13
TORSDOF 6
ENDMDL
MODEL 5
REMARK VINA RESULT:      -5.7      3.018      4.372
REMARK  6 active torsions:
REMARK  status: ('A' for Active; 'I' for Inactive)
REMARK    1  A    between atoms: C_8  and  C_9 
REMARK    2  A    between atoms: C_8  and  N_12 
REMARK    3  A    between atoms: C_9  and  O_10 
REMARK    4  A    between atoms: N_12  and  C_13 
REMARK    5  A    between atoms: C_13  and  C_14 
REMARK    6  A    between atoms: C_14  and  N_15 
ROOT
HETATM    1  C   UNL     1     -42.691 -44.733  13.819  1.00  0.00     0.010 C 
HETATM    2  C   UNL     1     -42.367 -46.207  13.585  1.00  0.00    -0.015 C 
HETATM    3  C   UNL     1     -41.081 -46.673  14.278  1.00  0.00     0.013 C 
HETATM    4  C   UNL     1     -39.766 -46.627  13.466  1.00  0.00    -0.045 C 
HETATM    5  C   UNL     1     -39.072 -45.258  13.590  1.00  0.00     0.015 C 
HETATM    6  C   UNL     1     -38.782 -47.638  14.117  1.00  0.00     0.015 C 
HETATM    7  C   UNL     1     -39.988 -47.063  11.988  1.00  0.00     0.052 C 
HETATM    8  C   UNL     1     -41.212 -46.456  11.238  1.00  0.00     0.179 C 
HETATM    9  C   UNL     1     -42.470 -46.629  12.114  1.00  0.00     0.048 C 
ENDROOT
BRANCH   8  10
HETATM   10  C   UNL     1     -40.958 -44.978  10.831  1.00  0.00     0.205 C 
BRANCH  10  11
HETATM   11  O   UNL     1     -40.228 -44.918   9.603  1.00  0.00    -0.398 OA
HETATM   12  H   UNL     1     -40.909 -44.996   8.905  1.00  0.00     0.209 HD
ENDBRANCH  10  11
ENDBRANCH   8  10
BRANCH   8  13
HETATM   13  N   UNL     1     -41.355 -47.258   9.955  1.00  0.00     0.097 N 
HETATM   14  H   UNL     1     -40.684 -48.030   9.993  1.00  0.00     0.317 HD
BRANCH  13  15
HETATM   15  C   UNL     1     -42.707 -47.821   9.738  1.00  0.00     0.292 C 
BRANCH  15  16
HETATM   16  C   UNL     1     -43.436 -47.245   8.519  1.00  0.00     0.180 C 
BRANCH  16  17
HETATM   17  N   UNL     1     -44.793 -47.754   8.458  1.00  0.00    -0.285 N 
HETATM   18  C   UNL     1     -45.759 -47.672   9.413  1.00  0.00     0.201 A 
HETATM   19  N   UNL     1     -46.825 -48.331   9.021  1.00  0.00    -0.346 N 
HETATM   20  C   UNL     1     -46.449 -48.815   7.797  1.00  0.00     0.198 A 
ATOM     21  HN  UNL     1     -47.712 -48.452   9.507  1.00  0.00     0.167 HD
HETATM   22  N   UNL     1     -45.210 -48.495   7.412  1.00  0.00    -0.293 N 
ATOM     23  HN  UNL     1     -44.713 -48.744   6.556  1.00  0.00     0.188 HD
ENDBRANCH  16  17
ENDBRANCH  15  16
ENDBRANCH  13  15
ENDBRANCH   8  13
TORSDOF 6
ENDMDL
MODEL 6
REMARK VINA RESULT:      -5.6      4.864      6.860
REMARK  6 active torsions:
REMARK  status: ('A' for Active; 'I' for Inactive)
REMARK    1  A    between atoms: C_8  and  C_9 
REMARK    2  A    between atoms: C_8  and  N_12 
REMARK    3  A    between atoms: C_9  and  O_10 
REMARK    4  A    between atoms: N_12  and  C_13 
REMARK    5  A    between atoms: C_13  and  C_14 
REMARK    6  A    between atoms: C_14  and  N_15 
ROOT
HETATM    1  C   UNL     1     -46.462 -54.698  14.638  1.00  0.00     0.010 C 
HETATM    2  C   UNL     1     -45.222 -53.902  15.039  1.00  0.00    -0.015 C 
HETATM    3  C   UNL     1     -45.427 -53.026  16.281  1.00  0.00     0.013 C 
HETATM    4  C   UNL     1     -45.858 -51.557  16.065  1.00  0.00    -0.045 C 
HETATM    5  C   UNL     1     -47.391 -51.423  15.991  1.00  0.00     0.015 C 
HETATM    6  C   UNL     1     -45.444 -50.760  17.333  1.00  0.00     0.015 C 
HETATM    7  C   UNL     1     -45.134 -50.920  14.843  1.00  0.00     0.052 C 
HETATM    8  C   UNL     1     -45.072 -51.756  13.530  1.00  0.00     0.179 C 
HETATM    9  C   UNL     1     -44.559 -53.173  13.865  1.00  0.00     0.048 C 
ENDROOT
BRANCH   8  10
HETATM   10  C   UNL     1     -46.440 -51.768  12.794  1.00  0.00     0.205 C 
BRANCH  10  11
HETATM   11  O   UNL     1     -46.375 -52.603  11.635  1.00  0.00    -0.398 OA
HETATM   12  H   UNL     1     -46.285 -51.981  10.885  1.00  0.00     0.209 HD
ENDBRANCH  10  11
ENDBRANCH   8  10
BRANCH   8  13
HETATM   13  N   UNL     1     -44.081 -51.043  12.627  1.00  0.00     0.097 N 
HETATM   14  H   UNL     1     -44.611 -50.415  12.016  1.00  0.00     0.317 HD
BRANCH  13  15
HETATM   15  C   UNL     1     -43.063 -50.246  13.348  1.00  0.00     0.292 C 
BRANCH  15  16
HETATM   16  C   UNL     1     -41.636 -50.427  12.818  1.00  0.00     0.180 C 
BRANCH  16  17
HETATM   17  N   UNL     1     -41.258 -51.827  12.860  1.00  0.00    -0.285 N 
HETATM   18  C   UNL     1     -41.160 -52.696  11.818  1.00  0.00     0.201 A 
HETATM   19  N   UNL     1     -40.879 -53.897  12.269  1.00  0.00    -0.346 N 
HETATM   20  C   UNL     1     -40.824 -53.706  13.624  1.00  0.00     0.198 A 
ATOM     21  HN  UNL     1     -40.737 -54.758  11.742  1.00  0.00     0.167 HD
HETATM   22  N   UNL     1     -41.057 -52.457  14.035  1.00  0.00    -0.293 N 
ATOM     23  HN  UNL     1     -41.077 -52.081  14.983  1.00  0.00     0.188 HD
ENDBRANCH  16  17
ENDBRANCH  15  16
ENDBRANCH  13  15
ENDBRANCH   8  13
TORSDOF 6
ENDMDL
MODEL 7
REMARK VINA RESULT:      -5.6      3.136      4.273
REMARK  6 active torsions:
REMARK  status: ('A' for Active; 'I' for Inactive)
REMARK    1  A    between atoms: C_8  and  C_9 
REMARK    2  A    between atoms: C_8  and  N_12 
REMARK    3  A    between atoms: C_9  and  O_10 
REMARK    4  A    between atoms: N_12  and  C_13 
REMARK    5  A    between atoms: C_13  and  C_14 
REMARK    6  A    between atoms: C_14  and  N_15 
ROOT
HETATM    1  C   UNL     1     -42.305 -51.228  16.352  1.00  0.00     0.010 C 
HETATM    2  C   UNL     1     -43.253 -50.249  15.663  1.00  0.00    -0.015 C 
HETATM    3  C   UNL     1     -44.709 -50.728  15.618  1.00  0.00     0.013 C 
HETATM    4  C   UNL     1     -45.176 -51.502  14.364  1.00  0.00    -0.045 C 
HETATM    5  C   UNL     1     -44.916 -53.014  14.504  1.00  0.00     0.015 C 
HETATM    6  C   UNL     1     -46.722 -51.366  14.282  1.00  0.00     0.015 C 
HETATM    7  C   UNL     1     -44.573 -50.902  13.061  1.00  0.00     0.052 C 
HETATM    8  C   UNL     1     -43.052 -50.567  13.062  1.00  0.00     0.179 C 
HETATM    9  C   UNL     1     -42.726 -49.732  14.319  1.00  0.00     0.048 C 
ENDROOT
BRANCH   8  10
HETATM   10  C   UNL     1     -42.183 -51.850  12.948  1.00  0.00     0.205 C 
BRANCH  10  11
HETATM   11  O   UNL     1     -42.459 -52.531  11.722  1.00  0.00    -0.398 OA
HETATM   12  H   UNL     1     -42.784 -53.413  11.995  1.00  0.00     0.209 HD
ENDBRANCH  10  11
ENDBRANCH   8  10
BRANCH   8  13
HETATM   13  N   UNL     1     -42.804 -49.743  11.810  1.00  0.00     0.097 N 
HETATM   14  H   UNL     1     -43.599 -49.884  11.181  1.00  0.00     0.317 HD
BRANCH  13  15
HETATM   15  C   UNL     1     -42.653 -48.291  12.058  1.00  0.00     0.292 C 
BRANCH  15  16
HETATM   16  C   UNL     1     -41.845 -47.555  10.983  1.00  0.00     0.180 C 
BRANCH  16  17
HETATM   17  N   UNL     1     -42.666 -47.319   9.810  1.00  0.00    -0.285 N 
HETATM   18  C   UNL     1     -43.575 -46.325   9.614  1.00  0.00     0.201 A 
HETATM   19  N   UNL     1     -44.180 -46.503   8.462  1.00  0.00    -0.346 N 
HETATM   20  C   UNL     1     -43.600 -47.648   7.987  1.00  0.00     0.198 A 
ATOM     21  HN  UNL     1     -44.903 -45.929   8.029  1.00  0.00     0.167 HD
HETATM   22  N   UNL     1     -42.672 -48.190   8.780  1.00  0.00    -0.293 N 
ATOM     23  HN  UNL     1     -42.118 -49.035   8.644  1.00  0.00     0.188 HD
ENDBRANCH  16  17
ENDBRANCH  15  16
ENDBRANCH  13  15
ENDBRANCH   8  13
TORSDOF 6
ENDMDL
MODEL 8
REMARK VINA RESULT:      -5.6      4.636      6.487
REMARK  6 active torsions:
REMARK  status: ('A' for Active; 'I' for Inactive)
REMARK    1  A    between atoms: C_8  and  C_9 
REMARK    2  A    between atoms: C_8  and  N_12 
REMARK    3  A    between atoms: C_9  and  O_10 
REMARK    4  A    between atoms: N_12  and  C_13 
REMARK    5  A    between atoms: C_13  and  C_14 
REMARK    6  A    between atoms: C_14  and  N_15 
ROOT
HETATM    1  C   UNL     1     -46.472 -54.597  14.758  1.00  0.00     0.010 C 
HETATM    2  C   UNL     1     -45.189 -53.843  15.104  1.00  0.00    -0.015 C 
HETATM    3  C   UNL     1     -45.319 -52.937  16.334  1.00  0.00     0.013 C 
HETATM    4  C   UNL     1     -45.699 -51.456  16.102  1.00  0.00    -0.045 C 
HETATM    5  C   UNL     1     -47.227 -51.262  16.074  1.00  0.00     0.015 C 
HETATM    6  C   UNL     1     -45.213 -50.653  17.340  1.00  0.00     0.015 C 
HETATM    7  C   UNL     1     -44.990 -50.871  14.846  1.00  0.00     0.052 C 
HETATM    8  C   UNL     1     -45.004 -51.733  13.548  1.00  0.00     0.179 C 
HETATM    9  C   UNL     1     -44.536 -53.163  13.894  1.00  0.00     0.048 C 
ENDROOT
BRANCH   8  10
HETATM   10  C   UNL     1     -46.395 -51.705  12.856  1.00  0.00     0.205 C 
BRANCH  10  11
HETATM   11  O   UNL     1     -46.425 -52.622  11.760  1.00  0.00    -0.398 OA
HETATM   12  H   UNL     1     -45.595 -52.452  11.270  1.00  0.00     0.209 HD
ENDBRANCH  10  11
ENDBRANCH   8  10
BRANCH   8  13
HETATM   13  N   UNL     1     -44.015 -51.077  12.600  1.00  0.00     0.097 N 
HETATM   14  H   UNL     1     -44.329 -50.116  12.437  1.00  0.00     0.317 HD
BRANCH  13  15
HETATM   15  C   UNL     1     -42.624 -51.037  13.103  1.00  0.00     0.292 C 
BRANCH  15  16
HETATM   16  C   UNL     1     -41.595 -51.652  12.147  1.00  0.00     0.180 C 
BRANCH  16  17
HETATM   17  N   UNL     1     -40.535 -50.701  11.869  1.00  0.00    -0.285 N 
HETATM   18  C   UNL     1     -40.642 -49.484  11.269  1.00  0.00     0.201 A 
HETATM   19  N   UNL     1     -39.447 -48.962  11.116  1.00  0.00    -0.346 N 
HETATM   20  C   UNL     1     -38.625 -49.923  11.642  1.00  0.00     0.198 A 
ATOM     21  HN  UNL     1     -39.193 -48.063  10.707  1.00  0.00     0.167 HD
HETATM   22  N   UNL     1     -39.245 -51.010  12.108  1.00  0.00    -0.293 N 
ATOM     23  HN  UNL     1     -38.848 -51.849  12.532  1.00  0.00     0.188 HD
ENDBRANCH  16  17
ENDBRANCH  15  16
ENDBRANCH  13  15
ENDBRANCH   8  13
TORSDOF 6
ENDMDL
MODEL 9
REMARK VINA RESULT:      -5.6      2.965      5.543
REMARK  6 active torsions:
REMARK  status: ('A' for Active; 'I' for Inactive)
REMARK    1  A    between atoms: C_8  and  C_9 
REMARK    2  A    between atoms: C_8  and  N_12 
REMARK    3  A    between atoms: C_9  and  O_10 
REMARK    4  A    between atoms: N_12  and  C_13 
REMARK    5  A    between atoms: C_13  and  C_14 
REMARK    6  A    between atoms: C_14  and  N_15 
ROOT
HETATM    1  C   UNL     1     -42.344 -51.594  16.395  1.00  0.00     0.010 C 
HETATM    2  C   UNL     1     -43.385 -51.418  15.290  1.00  0.00    -0.015 C 
HETATM    3  C   UNL     1     -44.171 -52.696  14.975  1.00  0.00     0.013 C 
HETATM    4  C   UNL     1     -43.646 -53.604  13.839  1.00  0.00    -0.045 C 
HETATM    5  C   UNL     1     -42.621 -54.629  14.362  1.00  0.00     0.015 C 
HETATM    6  C   UNL     1     -44.843 -54.455  13.332  1.00  0.00     0.015 C 
HETATM    7  C   UNL     1     -43.110 -52.771  12.638  1.00  0.00     0.052 C 
HETATM    8  C   UNL     1     -42.177 -51.566  12.961  1.00  0.00     0.179 C 
HETATM    9  C   UNL     1     -42.842 -50.698  14.050  1.00  0.00     0.048 C 
ENDROOT
BRANCH   8  10
HETATM   10  C   UNL     1     -40.749 -52.036  13.354  1.00  0.00     0.205 C 
BRANCH  10  11
HETATM   11  O   UNL     1     -40.023 -52.446  12.192  1.00  0.00    -0.398 OA
HETATM   12  H   UNL     1     -39.238 -52.913  12.542  1.00  0.00     0.209 HD
ENDBRANCH  10  11
ENDBRANCH   8  10
BRANCH   8  13
HETATM   13  N   UNL     1     -42.052 -50.776  11.669  1.00  0.00     0.097 N 
HETATM   14  H   UNL     1     -42.866 -50.997  11.089  1.00  0.00     0.317 HD
BRANCH  13  15
HETATM   15  C   UNL     1     -41.993 -49.309  11.856  1.00  0.00     0.292 C 
BRANCH  15  16
HETATM   16  C   UNL     1     -40.844 -48.629  11.103  1.00  0.00     0.180 C 
BRANCH  16  17
HETATM   17  N   UNL     1     -39.566 -49.059  11.639  1.00  0.00    -0.285 N 
HETATM   18  C   UNL     1     -38.988 -48.692  12.815  1.00  0.00     0.201 A 
HETATM   19  N   UNL     1     -37.791 -49.224  12.903  1.00  0.00    -0.346 N 
HETATM   20  C   UNL     1     -37.678 -49.916  11.726  1.00  0.00     0.198 A 
ATOM     21  HN  UNL     1     -37.113 -49.143  13.660  1.00  0.00     0.167 HD
HETATM   22  N   UNL     1     -38.737 -49.838  10.915  1.00  0.00    -0.293 N 
ATOM     23  HN  UNL     1     -38.880 -50.257   9.996  1.00  0.00     0.188 HD
ENDBRANCH  16  17
ENDBRANCH  15  16
ENDBRANCH  13  15
ENDBRANCH   8  13
TORSDOF 6
ENDMDL
