MODEL 1
REMARK VINA RESULT:      -6.3      0.000      0.000
REMARK  3 active torsions:
REMARK  status: ('A' for Active; 'I' for Inactive)
REMARK    1  A    between atoms: C_4  and  N_5 
REMARK       I    between atoms: N_5  and  C_6 
REMARK       I    between atoms: C_6  and  N_8 
REMARK    2  A    between atoms: N_8  and  C_9 
REMARK    3  A    between atoms: N_12  and  C_14 
ROOT
HETATM    1  N   UNL     1     -41.437 -47.813  10.273  1.00  0.00    -0.293 N 
HETATM    2  C   UNL     1     -40.929 -48.776  11.102  1.00  0.00     0.322 C 
HETATM    3  O   UNL     1     -39.783 -48.675  11.531  1.00  0.00    -0.247 OA
HETATM    4  N   UNL     1     -41.759 -49.805  11.403  1.00  0.00    -0.336 N 
HETATM    5  H   UNL     1     -40.800 -47.053  10.083  1.00  0.00     0.172 HD
HETATM    6  H   UNL     1     -42.665 -49.781  10.945  1.00  0.00     0.164 HD
ENDROOT
BRANCH   1   7
HETATM    7  C   UNL     1     -42.680 -47.784   9.672  1.00  0.00     0.132 A 
HETATM    8  C   UNL     1     -43.876 -47.365  10.296  1.00  0.00     0.084 A 
HETATM    9  C   UNL     1     -44.841 -47.495   9.326  1.00  0.00     0.076 A 
HETATM   10  C   UNL     1     -46.289 -47.242   9.251  1.00  0.00     0.079 C 
HETATM   11  O   UNL     1     -44.268 -47.966   8.190  1.00  0.00    -0.241 OA
HETATM   12  N   UNL     1     -42.921 -48.147   8.402  1.00  0.00    -0.245 N 
ATOM     13  HN  UNL     1     -42.238 -48.490   7.726  1.00  0.00     0.196 HD
ENDBRANCH   1   7
BRANCH   4  14
HETATM   14  C   UNL     1     -41.481 -50.964  12.205  1.00  0.00     0.116 C 
HETATM   15  C   UNL     1     -42.522 -52.067  12.195  1.00  0.00     0.057 C 
HETATM   16  C   UNL     1     -42.233 -52.844  13.481  1.00  0.00     0.275 C 
HETATM   17  N   UNL     1     -41.164 -52.132  14.220  1.00  0.00     0.095 N 
HETATM   18  C   UNL     1     -41.241 -50.746  13.696  1.00  0.00     0.298 C 
BRANCH  17  19
HETATM   19  C   UNL     1     -39.816 -52.713  14.002  1.00  0.00     0.223 A 
HETATM   20  C   UNL     1     -39.613 -54.198  13.907  1.00  0.00     0.038 A 
HETATM   21  C   UNL     1     -39.175 -53.463  15.139  1.00  0.00     0.038 A 
ENDBRANCH  17  19
ENDBRANCH   4  14
TORSDOF 3
ENDMDL
MODEL 2
REMARK VINA RESULT:      -6.1      1.130      1.414
REMARK  3 active torsions:
REMARK  status: ('A' for Active; 'I' for Inactive)
REMARK    1  A    between atoms: C_4  and  N_5 
REMARK       I    between atoms: N_5  and  C_6 
REMARK       I    between atoms: C_6  and  N_8 
REMARK    2  A    between atoms: N_8  and  C_9 
REMARK    3  A    between atoms: N_12  and  C_14 
ROOT
HETATM    1  N   UNL     1     -41.468 -47.899  10.264  1.00  0.00    -0.293 N 
HETATM    2  C   UNL     1     -41.074 -48.845  11.171  1.00  0.00     0.322 C 
HETATM    3  O   UNL     1     -39.932 -48.825  11.623  1.00  0.00    -0.247 OA
HETATM    4  N   UNL     1     -42.008 -49.764  11.520  1.00  0.00    -0.336 N 
HETATM    5  H   UNL     1     -40.756 -47.220  10.040  1.00  0.00     0.172 HD
HETATM    6  H   UNL     1     -42.898 -49.685  11.037  1.00  0.00     0.164 HD
ENDROOT
BRANCH   1   7
HETATM    7  C   UNL     1     -42.690 -47.793   9.629  1.00  0.00     0.132 A 
HETATM    8  C   UNL     1     -43.890 -47.369  10.241  1.00  0.00     0.084 A 
HETATM    9  C   UNL     1     -44.828 -47.409   9.236  1.00  0.00     0.076 A 
HETATM   10  C   UNL     1     -46.264 -47.103   9.134  1.00  0.00     0.079 C 
HETATM   11  O   UNL     1     -44.235 -47.833   8.093  1.00  0.00    -0.241 OA
HETATM   12  N   UNL     1     -42.902 -48.073   8.334  1.00  0.00    -0.245 N 
ATOM     13  HN  UNL     1     -42.210 -48.399   7.659  1.00  0.00     0.196 HD
ENDBRANCH   1   7
BRANCH   4  14
HETATM   14  C   UNL     1     -41.862 -50.885  12.408  1.00  0.00     0.116 C 
HETATM   15  C   UNL     1     -41.156 -52.107  11.854  1.00  0.00     0.057 C 
HETATM   16  C   UNL     1     -41.627 -53.239  12.771  1.00  0.00     0.275 C 
HETATM   17  N   UNL     1     -42.635 -52.685  13.707  1.00  0.00     0.095 N 
HETATM   18  C   UNL     1     -43.135 -51.477  13.006  1.00  0.00     0.298 C 
BRANCH  17  19
HETATM   19  C   UNL     1     -42.071 -52.340  15.034  1.00  0.00     0.223 A 
HETATM   20  C   UNL     1     -41.104 -53.252  15.733  1.00  0.00     0.038 A 
HETATM   21  C   UNL     1     -42.517 -53.144  16.225  1.00  0.00     0.038 A 
ENDBRANCH  17  19
ENDBRANCH   4  14
TORSDOF 3
ENDMDL
MODEL 3
REMARK VINA RESULT:      -5.8      2.854      6.210
REMARK  3 active torsions:
REMARK  status: ('A' for Active; 'I' for Inactive)
REMARK    1  A    between atoms: C_4  and  N_5 
REMARK       I    between atoms: N_5  and  C_6 
REMARK       I    between atoms: C_6  and  N_8 
REMARK    2  A    between atoms: N_8  and  C_9 
REMARK    3  A    between atoms: N_12  and  C_14 
ROOT
HETATM    1  N   UNL     1     -41.523 -52.858  12.330  1.00  0.00    -0.293 N 
HETATM    2  C   UNL     1     -41.102 -51.572  12.119  1.00  0.00     0.322 C 
HETATM    3  O   UNL     1     -39.904 -51.331  11.999  1.00  0.00    -0.247 OA
HETATM    4  N   UNL     1     -42.072 -50.628  12.053  1.00  0.00    -0.336 N 
HETATM    5  H   UNL     1     -40.778 -53.538  12.356  1.00  0.00     0.172 HD
HETATM    6  H   UNL     1     -43.017 -50.964  12.211  1.00  0.00     0.164 HD
ENDROOT
BRANCH   1   7
HETATM    7  C   UNL     1     -42.816 -53.302  12.524  1.00  0.00     0.132 A 
HETATM    8  C   UNL     1     -43.247 -54.102  13.606  1.00  0.00     0.084 A 
HETATM    9  C   UNL     1     -44.592 -54.285  13.393  1.00  0.00     0.076 A 
HETATM   10  C   UNL     1     -45.677 -54.988  14.097  1.00  0.00     0.079 C 
HETATM   11  O   UNL     1     -44.952 -53.640  12.255  1.00  0.00    -0.241 OA
HETATM   12  N   UNL     1     -43.848 -53.027  11.711  1.00  0.00    -0.245 N 
ATOM     13  HN  UNL     1     -43.819 -52.470  10.856  1.00  0.00     0.196 HD
ENDBRANCH   1   7
BRANCH   4  14
HETATM   14  C   UNL     1     -41.920 -49.209  11.886  1.00  0.00     0.116 C 
HETATM   15  C   UNL     1     -43.082 -48.340  12.329  1.00  0.00     0.057 C 
HETATM   16  C   UNL     1     -42.868 -47.036  11.558  1.00  0.00     0.275 C 
HETATM   17  N   UNL     1     -41.713 -47.222  10.647  1.00  0.00     0.095 N 
HETATM   18  C   UNL     1     -41.636 -48.694  10.478  1.00  0.00     0.298 C 
BRANCH  17  19
HETATM   19  C   UNL     1     -40.446 -46.678  11.193  1.00  0.00     0.223 A 
HETATM   20  C   UNL     1     -40.407 -45.360  11.911  1.00  0.00     0.038 A 
HETATM   21  C   UNL     1     -39.847 -45.470  10.525  1.00  0.00     0.038 A 
ENDBRANCH  17  19
ENDBRANCH   4  14
TORSDOF 3
ENDMDL
MODEL 4
REMARK VINA RESULT:      -5.7      4.496      7.122
REMARK  3 active torsions:
REMARK  status: ('A' for Active; 'I' for Inactive)
REMARK    1  A    between atoms: C_4  and  N_5 
REMARK       I    between atoms: N_5  and  C_6 
REMARK       I    between atoms: C_6  and  N_8 
REMARK    2  A    between atoms: N_8  and  C_9 
REMARK    3  A    between atoms: N_12  and  C_14 
ROOT
HETATM    1  N   UNL     1     -41.628 -47.582  10.042  1.00  0.00    -0.293 N 
HETATM    2  C   UNL     1     -41.135 -46.546  10.789  1.00  0.00     0.322 C 
HETATM    3  O   UNL     1     -40.021 -46.633  11.300  1.00  0.00    -0.247 OA
HETATM    4  N   UNL     1     -41.938 -45.461  10.911  1.00  0.00    -0.336 N 
HETATM    5  H   UNL     1     -40.998 -48.366   9.957  1.00  0.00     0.172 HD
HETATM    6  H   UNL     1     -42.849 -45.543  10.470  1.00  0.00     0.164 HD
ENDROOT
BRANCH   1   7
HETATM    7  C   UNL     1     -42.863 -47.671   9.432  1.00  0.00     0.132 A 
HETATM    8  C   UNL     1     -44.104 -47.471  10.076  1.00  0.00     0.084 A 
HETATM    9  C   UNL     1     -45.044 -47.647   9.088  1.00  0.00     0.076 A 
HETATM   10  C   UNL     1     -46.513 -47.588   9.020  1.00  0.00     0.079 C 
HETATM   11  O   UNL     1     -44.413 -47.939   7.924  1.00  0.00    -0.241 OA
HETATM   12  N   UNL     1     -43.054 -47.954   8.134  1.00  0.00    -0.245 N 
ATOM     13  HN  UNL     1     -42.332 -48.144   7.439  1.00  0.00     0.196 HD
ENDBRANCH   1   7
BRANCH   4  14
HETATM   14  C   UNL     1     -41.700 -44.260  11.663  1.00  0.00     0.116 C 
HETATM   15  C   UNL     1     -42.178 -44.249  13.102  1.00  0.00     0.057 C 
HETATM   16  C   UNL     1     -42.285 -42.758  13.432  1.00  0.00     0.275 C 
HETATM   17  N   UNL     1     -41.995 -41.990  12.198  1.00  0.00     0.095 N 
HETATM   18  C   UNL     1     -42.275 -42.959  11.110  1.00  0.00     0.298 C 
BRANCH  17  19
HETATM   19  C   UNL     1     -40.597 -41.499  12.131  1.00  0.00     0.223 A 
HETATM   20  C   UNL     1     -39.927 -40.887  13.328  1.00  0.00     0.038 A 
HETATM   21  C   UNL     1     -40.365 -40.013  12.191  1.00  0.00     0.038 A 
ENDBRANCH  17  19
ENDBRANCH   4  14
TORSDOF 3
ENDMDL
MODEL 5
REMARK VINA RESULT:      -5.5      3.001      4.372
REMARK  3 active torsions:
REMARK  status: ('A' for Active; 'I' for Inactive)
REMARK    1  A    between atoms: C_4  and  N_5 
REMARK       I    between atoms: N_5  and  C_6 
REMARK       I    between atoms: C_6  and  N_8 
REMARK    2  A    between atoms: N_8  and  C_9 
REMARK    3  A    between atoms: N_12  and  C_14 
ROOT
HETATM    1  N   UNL     1     -40.436 -50.832  11.304  1.00  0.00    -0.293 N 
HETATM    2  C   UNL     1     -41.275 -51.732  11.905  1.00  0.00     0.322 C 
HETATM    3  O   UNL     1     -40.984 -52.925  11.925  1.00  0.00    -0.247 OA
HETATM    4  N   UNL     1     -42.404 -51.221  12.456  1.00  0.00    -0.336 N 
HETATM    5  H   UNL     1     -39.598 -51.243  10.919  1.00  0.00     0.172 HD
HETATM    6  H   UNL     1     -42.537 -50.222  12.328  1.00  0.00     0.164 HD
ENDROOT
BRANCH   1   7
HETATM    7  C   UNL     1     -40.622 -49.472  11.155  1.00  0.00     0.132 A 
HETATM    8  C   UNL     1     -40.026 -48.477  11.961  1.00  0.00     0.084 A 
HETATM    9  C   UNL     1     -40.482 -47.288  11.443  1.00  0.00     0.076 A 
HETATM   10  C   UNL     1     -40.281 -45.864  11.759  1.00  0.00     0.079 C 
HETATM   11  O   UNL     1     -41.304 -47.547  10.396  1.00  0.00    -0.241 OA
HETATM   12  N   UNL     1     -41.393 -48.906  10.213  1.00  0.00    -0.245 N 
ATOM     13  HN  UNL     1     -41.938 -49.391   9.499  1.00  0.00     0.196 HD
ENDBRANCH   1   7
BRANCH   4  14
HETATM   14  C   UNL     1     -43.473 -51.928  13.106  1.00  0.00     0.116 C 
HETATM   15  C   UNL     1     -44.070 -53.103  12.357  1.00  0.00     0.057 C 
HETATM   16  C   UNL     1     -45.448 -53.275  13.000  1.00  0.00     0.275 C 
HETATM   17  N   UNL     1     -45.644 -52.174  13.973  1.00  0.00     0.095 N 
HETATM   18  C   UNL     1     -44.707 -51.123  13.504  1.00  0.00     0.298 C 
BRANCH  17  19
HETATM   19  C   UNL     1     -45.348 -52.570  15.371  1.00  0.00     0.223 A 
HETATM   20  C   UNL     1     -45.900 -53.839  15.956  1.00  0.00     0.038 A 
HETATM   21  C   UNL     1     -46.467 -52.515  16.376  1.00  0.00     0.038 A 
ENDBRANCH  17  19
ENDBRANCH   4  14
TORSDOF 3
ENDMDL
MODEL 6
REMARK VINA RESULT:      -5.4      2.736      4.047
REMARK  3 active torsions:
REMARK  status: ('A' for Active; 'I' for Inactive)
REMARK    1  A    between atoms: C_4  and  N_5 
REMARK       I    between atoms: N_5  and  C_6 
REMARK       I    between atoms: C_6  and  N_8 
REMARK    2  A    between atoms: N_8  and  C_9 
REMARK    3  A    between atoms: N_12  and  C_14 
ROOT
HETATM    1  N   UNL     1     -39.587 -50.477  11.788  1.00  0.00    -0.293 N 
HETATM    2  C   UNL     1     -40.161 -51.500  12.493  1.00  0.00     0.322 C 
HETATM    3  O   UNL     1     -39.505 -52.501  12.768  1.00  0.00    -0.247 OA
HETATM    4  N   UNL     1     -41.456 -51.324  12.854  1.00  0.00    -0.336 N 
HETATM    5  H   UNL     1     -38.617 -50.632  11.551  1.00  0.00     0.172 HD
HETATM    6  H   UNL     1     -41.887 -50.466  12.524  1.00  0.00     0.164 HD
ENDROOT
BRANCH   1   7
HETATM    7  C   UNL     1     -40.180 -49.305  11.362  1.00  0.00     0.132 A 
HETATM    8  C   UNL     1     -39.909 -48.021  11.882  1.00  0.00     0.084 A 
HETATM    9  C   UNL     1     -40.712 -47.173  11.158  1.00  0.00     0.076 A 
HETATM   10  C   UNL     1     -40.952 -45.721  11.140  1.00  0.00     0.079 C 
HETATM   11  O   UNL     1     -41.426 -47.897  10.260  1.00  0.00    -0.241 OA
HETATM   12  N   UNL     1     -41.097 -49.226  10.385  1.00  0.00    -0.245 N 
ATOM     13  HN  UNL     1     -41.475 -50.002   9.840  1.00  0.00     0.196 HD
ENDBRANCH   1   7
BRANCH   4  14
HETATM   14  C   UNL     1     -42.315 -52.239  13.554  1.00  0.00     0.116 C 
HETATM   15  C   UNL     1     -42.041 -52.438  15.032  1.00  0.00     0.057 C 
HETATM   16  C   UNL     1     -42.699 -53.786  15.340  1.00  0.00     0.275 C 
HETATM   17  N   UNL     1     -43.205 -54.353  14.067  1.00  0.00     0.095 N 
HETATM   18  C   UNL     1     -42.390 -53.672  13.032  1.00  0.00     0.298 C 
BRANCH  17  19
HETATM   19  C   UNL     1     -44.653 -54.111  13.855  1.00  0.00     0.223 A 
HETATM   20  C   UNL     1     -45.651 -54.334  14.954  1.00  0.00     0.038 A 
HETATM   21  C   UNL     1     -45.572 -55.302  13.812  1.00  0.00     0.038 A 
ENDBRANCH  17  19
ENDBRANCH   4  14
TORSDOF 3
ENDMDL
MODEL 7
REMARK VINA RESULT:      -5.4      4.133      6.306
REMARK  3 active torsions:
REMARK  status: ('A' for Active; 'I' for Inactive)
REMARK    1  A    between atoms: C_4  and  N_5 
REMARK       I    between atoms: N_5  and  C_6 
REMARK       I    between atoms: C_6  and  N_8 
REMARK    2  A    between atoms: N_8  and  C_9 
REMARK    3  A    between atoms: N_12  and  C_14 
ROOT
HETATM    1  N   UNL     1     -42.551 -52.745  11.719  1.00  0.00    -0.293 N 
HETATM    2  C   UNL     1     -43.604 -53.044  12.541  1.00  0.00     0.322 C 
HETATM    3  O   UNL     1     -44.430 -53.886  12.200  1.00  0.00    -0.247 OA
HETATM    4  N   UNL     1     -43.657 -52.366  13.714  1.00  0.00    -0.336 N 
HETATM    5  H   UNL     1     -42.531 -53.280  10.862  1.00  0.00     0.172 HD
HETATM    6  H   UNL     1     -42.931 -51.669  13.847  1.00  0.00     0.164 HD
ENDROOT
BRANCH   1   7
HETATM    7  C   UNL     1     -41.559 -51.806  11.922  1.00  0.00     0.132 A 
HETATM    8  C   UNL     1     -40.315 -52.059  12.541  1.00  0.00     0.084 A 
HETATM    9  C   UNL     1     -39.658 -50.851  12.513  1.00  0.00     0.076 A 
HETATM   10  C   UNL     1     -38.343 -50.366  12.960  1.00  0.00     0.079 C 
HETATM   11  O   UNL     1     -40.455 -49.928  11.919  1.00  0.00    -0.241 OA
HETATM   12  N   UNL     1     -41.640 -50.519  11.549  1.00  0.00    -0.245 N 
ATOM     13  HN  UNL     1     -42.427 -50.068  11.082  1.00  0.00     0.196 HD
ENDBRANCH   1   7
BRANCH   4  14
HETATM   14  C   UNL     1     -44.662 -52.442  14.739  1.00  0.00     0.116 C 
HETATM   15  C   UNL     1     -44.735 -53.735  15.528  1.00  0.00     0.057 C 
HETATM   16  C   UNL     1     -46.153 -53.724  16.103  1.00  0.00     0.275 C 
HETATM   17  N   UNL     1     -46.862 -52.541  15.559  1.00  0.00     0.095 N 
HETATM   18  C   UNL     1     -46.112 -52.225  14.318  1.00  0.00     0.298 C 
BRANCH  17  19
HETATM   19  C   UNL     1     -46.870 -51.386  16.489  1.00  0.00     0.223 A 
HETATM   20  C   UNL     1     -47.092 -51.572  17.963  1.00  0.00     0.038 A 
HETATM   21  C   UNL     1     -48.181 -50.987  17.113  1.00  0.00     0.038 A 
ENDBRANCH  17  19
ENDBRANCH   4  14
TORSDOF 3
ENDMDL
MODEL 8
REMARK VINA RESULT:      -5.4      4.543      8.212
REMARK  3 active torsions:
REMARK  status: ('A' for Active; 'I' for Inactive)
REMARK    1  A    between atoms: C_4  and  N_5 
REMARK       I    between atoms: N_5  and  C_6 
REMARK       I    between atoms: C_6  and  N_8 
REMARK    2  A    between atoms: N_8  and  C_9 
REMARK    3  A    between atoms: N_12  and  C_14 
ROOT
HETATM    1  N   UNL     1     -39.492 -52.894  15.272  1.00  0.00    -0.293 N 
HETATM    2  C   UNL     1     -40.719 -52.518  14.794  1.00  0.00     0.322 C 
HETATM    3  O   UNL     1     -40.942 -51.339  14.534  1.00  0.00    -0.247 OA
HETATM    4  N   UNL     1     -41.627 -53.512  14.631  1.00  0.00    -0.336 N 
HETATM    5  H   UNL     1     -38.834 -52.133  15.364  1.00  0.00     0.172 HD
HETATM    6  H   UNL     1     -41.319 -54.434  14.924  1.00  0.00     0.164 HD
ENDROOT
BRANCH   1   7
HETATM    7  C   UNL     1     -39.082 -54.157  15.650  1.00  0.00     0.132 A 
HETATM    8  C   UNL     1     -39.193 -54.693  16.952  1.00  0.00     0.084 A 
HETATM    9  C   UNL     1     -38.675 -55.962  16.854  1.00  0.00     0.076 A 
HETATM   10  C   UNL     1     -38.475 -57.084  17.785  1.00  0.00     0.079 C 
HETATM   11  O   UNL     1     -38.274 -56.179  15.576  1.00  0.00    -0.241 OA
HETATM   12  N   UNL     1     -38.526 -55.057  14.823  1.00  0.00    -0.245 N 
ATOM     13  HN  UNL     1     -38.330 -54.933  13.830  1.00  0.00     0.196 HD
ENDBRANCH   1   7
BRANCH   4  14
HETATM   14  C   UNL     1     -42.991 -53.405  14.192  1.00  0.00     0.116 C 
HETATM   15  C   UNL     1     -43.895 -54.588  14.477  1.00  0.00     0.057 C 
HETATM   16  C   UNL     1     -45.032 -54.422  13.466  1.00  0.00     0.275 C 
HETATM   17  N   UNL     1     -44.706 -53.271  12.590  1.00  0.00     0.095 N 
HETATM   18  C   UNL     1     -43.232 -53.151  12.706  1.00  0.00     0.298 C 
BRANCH  17  19
HETATM   19  C   UNL     1     -45.380 -52.016  13.001  1.00  0.00     0.223 A 
HETATM   20  C   UNL     1     -46.663 -52.038  13.782  1.00  0.00     0.038 A 
HETATM   21  C   UNL     1     -46.679 -51.657  12.332  1.00  0.00     0.038 A 
ENDBRANCH  17  19
ENDBRANCH   4  14
TORSDOF 3
ENDMDL
MODEL 9
REMARK VINA RESULT:      -5.2      2.662      3.710
REMARK  3 active torsions:
REMARK  status: ('A' for Active; 'I' for Inactive)
REMARK    1  A    between atoms: C_4  and  N_5 
REMARK       I    between atoms: N_5  and  C_6 
REMARK       I    between atoms: C_6  and  N_8 
REMARK    2  A    between atoms: N_8  and  C_9 
REMARK    3  A    between atoms: N_12  and  C_14 
ROOT
HETATM    1  N   UNL     1     -38.235 -50.119  11.528  1.00  0.00    -0.293 N 
HETATM    2  C   UNL     1     -38.044 -51.175  12.378  1.00  0.00     0.322 C 
HETATM    3  O   UNL     1     -36.939 -51.707  12.457  1.00  0.00    -0.247 OA
HETATM    4  N   UNL     1     -39.124 -51.567  13.098  1.00  0.00    -0.336 N 
HETATM    5  H   UNL     1     -37.408 -49.842  11.020  1.00  0.00     0.172 HD
HETATM    6  H   UNL     1     -39.983 -51.063  12.901  1.00  0.00     0.164 HD
ENDROOT
BRANCH   1   7
HETATM    7  C   UNL     1     -39.408 -49.432  11.284  1.00  0.00     0.132 A 
HETATM    8  C   UNL     1     -39.775 -48.210  11.890  1.00  0.00     0.084 A 
HETATM    9  C   UNL     1     -40.998 -47.901  11.343  1.00  0.00     0.076 A 
HETATM   10  C   UNL     1     -41.961 -46.798  11.490  1.00  0.00     0.079 C 
HETATM   11  O   UNL     1     -41.349 -48.875  10.467  1.00  0.00    -0.241 OA
HETATM   12  N   UNL     1     -40.361 -49.829  10.427  1.00  0.00    -0.245 N 
ATOM     13  HN  UNL     1     -40.353 -50.675   9.856  1.00  0.00     0.196 HD
ENDBRANCH   1   7
BRANCH   4  14
HETATM   14  C   UNL     1     -39.224 -52.660  14.025  1.00  0.00     0.116 C 
HETATM   15  C   UNL     1     -40.175 -53.782  13.657  1.00  0.00     0.057 C 
HETATM   16  C   UNL     1     -40.465 -54.460  14.998  1.00  0.00     0.275 C 
HETATM   17  N   UNL     1     -39.801 -53.674  16.065  1.00  0.00     0.095 N 
HETATM   18  C   UNL     1     -39.634 -52.331  15.457  1.00  0.00     0.298 C 
BRANCH  17  19
HETATM   19  C   UNL     1     -38.494 -54.241  16.479  1.00  0.00     0.223 A 
HETATM   20  C   UNL     1     -38.264 -55.725  16.518  1.00  0.00     0.038 A 
HETATM   21  C   UNL     1     -38.420 -54.960  17.799  1.00  0.00     0.038 A 
ENDBRANCH  17  19
ENDBRANCH   4  14
TORSDOF 3
ENDMDL
