MODEL 1
REMARK VINA RESULT:      -6.1      0.000      0.000
REMARK  3 active torsions:
REMARK  status: ('A' for Active; 'I' for Inactive)
REMARK    1  A    between atoms: C_2  and  C_3 
REMARK    2  A    between atoms: C_2  and  N_10 
REMARK    3  A    between atoms: C_3  and  N_4 
REMARK       I    between atoms: N_10  and  C_11 
REMARK       I    between atoms: C_11  and  N_13 
REMARK       I    between atoms: N_17  and  C_20 
ROOT
HETATM    1  N   UNL     1     -42.005 -54.159  14.721  1.00  0.00    -0.337 N 
HETATM    2  C   UNL     1     -42.201 -53.671  13.457  1.00  0.00     0.318 C 
HETATM    3  O   UNL     1     -43.251 -53.858  12.852  1.00  0.00    -0.247 OA
HETATM    4  N   UNL     1     -41.152 -52.919  12.954  1.00  0.00    -0.333 N 
HETATM    5  C   UNL     1     -41.397 -52.101  11.764  1.00  0.00     0.129 C 
HETATM    6  C   UNL     1     -41.445 -50.618  12.134  1.00  0.00     0.040 C 
HETATM    7  C   UNL     1     -40.071 -49.944  12.109  1.00  0.00     0.127 C 
HETATM    8  N   UNL     1     -38.974 -50.711  12.701  1.00  0.00    -0.351 N 
HETATM    9  C   UNL     1     -39.275 -51.536  13.878  1.00  0.00     0.145 C 
HETATM   10  C   UNL     1     -39.771 -52.932  13.471  1.00  0.00     0.147 C 
HETATM   11  C   UNL     1     -37.689 -50.805  12.183  1.00  0.00     0.215 C 
HETATM   12  O   UNL     1     -36.849 -51.557  12.686  1.00  0.00    -0.274 OA
HETATM   13  C   UNL     1     -37.290 -49.992  10.975  1.00  0.00     0.117 C 
HETATM   14  H   UNL     1     -41.388 -53.617  15.304  1.00  0.00     0.164 HD
ENDROOT
BRANCH   1  15
HETATM   15  C   UNL     1     -43.008 -54.974  15.415  1.00  0.00     0.100 C 
HETATM   16  C   UNL     1     -42.272 -56.020  16.257  1.00  0.00     0.034 C 
BRANCH  15  17
HETATM   17  C   UNL     1     -43.969 -54.123  16.272  1.00  0.00     0.153 C 
BRANCH  17  18
HETATM   18  N   UNL     1     -45.171 -53.710  15.574  1.00  0.00    -0.350 N 
HETATM   19  C   UNL     1     -45.668 -52.439  15.505  1.00  0.00     0.108 A 
HETATM   20  C   UNL     1     -46.816 -52.550  14.755  1.00  0.00     0.106 A 
HETATM   21  N   UNL     1     -47.018 -53.849  14.365  1.00  0.00    -0.361 N 
HETATM   22  C   UNL     1     -46.001 -54.521  14.856  1.00  0.00     0.182 A 
ATOM     23  HN  UNL     1     -47.793 -54.215  13.811  1.00  0.00     0.166 HD
ENDBRANCH  17  18
ENDBRANCH  15  17
ENDBRANCH   1  15
TORSDOF 3
ENDMDL
MODEL 2
REMARK VINA RESULT:      -6.0      3.472      4.901
REMARK  3 active torsions:
REMARK  status: ('A' for Active; 'I' for Inactive)
REMARK    1  A    between atoms: C_2  and  C_3 
REMARK    2  A    between atoms: C_2  and  N_10 
REMARK    3  A    between atoms: C_3  and  N_4 
REMARK       I    between atoms: N_10  and  C_11 
REMARK       I    between atoms: C_11  and  N_13 
REMARK       I    between atoms: N_17  and  C_20 
ROOT
HETATM    1  N   UNL     1     -44.223 -50.587  12.654  1.00  0.00    -0.337 N 
HETATM    2  C   UNL     1     -43.338 -49.923  13.461  1.00  0.00     0.318 C 
HETATM    3  O   UNL     1     -43.112 -50.295  14.607  1.00  0.00    -0.247 OA
HETATM    4  N   UNL     1     -42.696 -48.852  12.864  1.00  0.00    -0.333 N 
HETATM    5  C   UNL     1     -41.518 -48.292  13.530  1.00  0.00     0.129 C 
HETATM    6  C   UNL     1     -40.245 -48.662  12.767  1.00  0.00     0.040 C 
HETATM    7  C   UNL     1     -39.890 -47.659  11.666  1.00  0.00     0.127 C 
HETATM    8  N   UNL     1     -41.008 -47.188  10.847  1.00  0.00    -0.351 N 
HETATM    9  C   UNL     1     -42.078 -48.145  10.538  1.00  0.00     0.145 C 
HETATM   10  C   UNL     1     -43.148 -48.163  11.640  1.00  0.00     0.147 C 
HETATM   11  C   UNL     1     -41.195 -45.880  10.419  1.00  0.00     0.215 C 
HETATM   12  O   UNL     1     -42.220 -45.543   9.818  1.00  0.00    -0.274 OA
HETATM   13  C   UNL     1     -40.147 -44.829  10.691  1.00  0.00     0.117 C 
HETATM   14  H   UNL     1     -44.025 -50.546  11.668  1.00  0.00     0.164 HD
ENDROOT
BRANCH   1  15
HETATM   15  C   UNL     1     -44.992 -51.748  13.116  1.00  0.00     0.100 C 
HETATM   16  C   UNL     1     -46.458 -51.533  12.729  1.00  0.00     0.034 C 
BRANCH  15  17
HETATM   17  C   UNL     1     -44.443 -53.079  12.558  1.00  0.00     0.153 C 
BRANCH  17  18
HETATM   18  N   UNL     1     -43.581 -53.792  13.479  1.00  0.00    -0.350 N 
HETATM   19  C   UNL     1     -43.985 -54.611  14.496  1.00  0.00     0.108 A 
HETATM   20  C   UNL     1     -42.820 -55.037  15.090  1.00  0.00     0.106 A 
HETATM   21  N   UNL     1     -41.727 -54.506  14.454  1.00  0.00    -0.361 N 
HETATM   22  C   UNL     1     -42.216 -53.776  13.477  1.00  0.00     0.182 A 
ATOM     23  HN  UNL     1     -40.745 -54.647  14.691  1.00  0.00     0.166 HD
ENDBRANCH  17  18
ENDBRANCH  15  17
ENDBRANCH   1  15
TORSDOF 3
ENDMDL
MODEL 3
REMARK VINA RESULT:      -5.8      2.506      7.559
REMARK  3 active torsions:
REMARK  status: ('A' for Active; 'I' for Inactive)
REMARK    1  A    between atoms: C_2  and  C_3 
REMARK    2  A    between atoms: C_2  and  N_10 
REMARK    3  A    between atoms: C_3  and  N_4 
REMARK       I    between atoms: N_10  and  C_11 
REMARK       I    between atoms: C_11  and  N_13 
REMARK       I    between atoms: N_17  and  C_20 
ROOT
HETATM    1  N   UNL     1     -39.629 -50.989  13.016  1.00  0.00    -0.337 N 
HETATM    2  C   UNL     1     -39.622 -52.299  13.415  1.00  0.00     0.318 C 
HETATM    3  O   UNL     1     -38.586 -52.862  13.750  1.00  0.00    -0.247 OA
HETATM    4  N   UNL     1     -40.868 -52.902  13.458  1.00  0.00    -0.333 N 
HETATM    5  C   UNL     1     -40.996 -54.176  14.168  1.00  0.00     0.129 C 
HETATM    6  C   UNL     1     -41.750 -53.982  15.485  1.00  0.00     0.040 C 
HETATM    7  C   UNL     1     -43.268 -54.106  15.334  1.00  0.00     0.127 C 
HETATM    8  N   UNL     1     -43.850 -53.444  14.165  1.00  0.00    -0.351 N 
HETATM    9  C   UNL     1     -43.252 -52.174  13.733  1.00  0.00     0.145 C 
HETATM   10  C   UNL     1     -42.077 -52.407  12.772  1.00  0.00     0.147 C 
HETATM   11  C   UNL     1     -44.858 -53.966  13.366  1.00  0.00     0.215 C 
HETATM   12  O   UNL     1     -45.221 -53.390  12.336  1.00  0.00    -0.274 OA
HETATM   13  C   UNL     1     -45.530 -55.266  13.734  1.00  0.00     0.117 C 
HETATM   14  H   UNL     1     -40.478 -50.483  13.206  1.00  0.00     0.164 HD
ENDROOT
BRANCH   1  15
HETATM   15  C   UNL     1     -38.403 -50.190  12.914  1.00  0.00     0.100 C 
HETATM   16  C   UNL     1     -38.209 -49.800  11.446  1.00  0.00     0.034 C 
BRANCH  15  17
HETATM   17  C   UNL     1     -38.428 -48.952  13.836  1.00  0.00     0.153 C 
BRANCH  17  18
HETATM   18  N   UNL     1     -37.373 -48.939  14.831  1.00  0.00    -0.350 N 
HETATM   19  C   UNL     1     -36.813 -50.032  15.430  1.00  0.00     0.108 A 
HETATM   20  C   UNL     1     -35.880 -49.518  16.300  1.00  0.00     0.106 A 
HETATM   21  N   UNL     1     -35.856 -48.149  16.235  1.00  0.00    -0.361 N 
HETATM   22  C   UNL     1     -36.752 -47.829  15.328  1.00  0.00     0.182 A 
ATOM     23  HN  UNL     1     -35.269 -47.514  16.775  1.00  0.00     0.166 HD
ENDBRANCH  17  18
ENDBRANCH  15  17
ENDBRANCH   1  15
TORSDOF 3
ENDMDL
MODEL 4
REMARK VINA RESULT:      -5.3      3.861      7.171
REMARK  3 active torsions:
REMARK  status: ('A' for Active; 'I' for Inactive)
REMARK    1  A    between atoms: C_2  and  C_3 
REMARK    2  A    between atoms: C_2  and  N_10 
REMARK    3  A    between atoms: C_3  and  N_4 
REMARK       I    between atoms: N_10  and  C_11 
REMARK       I    between atoms: C_11  and  N_13 
REMARK       I    between atoms: N_17  and  C_20 
ROOT
HETATM    1  N   UNL     1     -41.387 -48.380  12.629  1.00  0.00    -0.337 N 
HETATM    2  C   UNL     1     -42.393 -48.651  13.518  1.00  0.00     0.318 C 
HETATM    3  O   UNL     1     -43.052 -47.755  14.034  1.00  0.00    -0.247 OA
HETATM    4  N   UNL     1     -42.629 -49.997  13.738  1.00  0.00    -0.333 N 
HETATM    5  C   UNL     1     -43.873 -50.380  14.410  1.00  0.00     0.129 C 
HETATM    6  C   UNL     1     -44.842 -51.024  13.417  1.00  0.00     0.040 C 
HETATM    7  C   UNL     1     -44.648 -52.536  13.279  1.00  0.00     0.127 C 
HETATM    8  N   UNL     1     -43.261 -52.997  13.203  1.00  0.00    -0.351 N 
HETATM    9  C   UNL     1     -42.298 -52.147  12.491  1.00  0.00     0.145 C 
HETATM   10  C   UNL     1     -41.688 -51.089  13.422  1.00  0.00     0.147 C 
HETATM   11  C   UNL     1     -42.753 -54.124  13.836  1.00  0.00     0.215 C 
HETATM   12  O   UNL     1     -41.547 -54.387  13.806  1.00  0.00    -0.274 OA
HETATM   13  C   UNL     1     -43.670 -55.056  14.590  1.00  0.00     0.117 C 
HETATM   14  H   UNL     1     -41.224 -49.088  11.931  1.00  0.00     0.164 HD
ENDROOT
BRANCH   1  15
HETATM   15  C   UNL     1     -40.999 -47.011  12.272  1.00  0.00     0.100 C 
HETATM   16  C   UNL     1     -39.661 -46.703  12.949  1.00  0.00     0.034 C 
BRANCH  15  17
HETATM   17  C   UNL     1     -40.929 -46.797  10.744  1.00  0.00     0.153 C 
BRANCH  17  18
HETATM   18  N   UNL     1     -42.224 -46.645  10.111  1.00  0.00    -0.350 N 
HETATM   19  C   UNL     1     -42.918 -47.617   9.447  1.00  0.00     0.108 A 
HETATM   20  C   UNL     1     -44.068 -46.997   9.017  1.00  0.00     0.106 A 
HETATM   21  N   UNL     1     -44.089 -45.683   9.411  1.00  0.00    -0.361 N 
HETATM   22  C   UNL     1     -42.975 -45.506  10.084  1.00  0.00     0.182 A 
ATOM     23  HN  UNL     1     -44.816 -44.992   9.221  1.00  0.00     0.166 HD
ENDBRANCH  17  18
ENDBRANCH  15  17
ENDBRANCH   1  15
TORSDOF 3
ENDMDL
MODEL 5
REMARK VINA RESULT:      -5.3      2.199      6.702
REMARK  3 active torsions:
REMARK  status: ('A' for Active; 'I' for Inactive)
REMARK    1  A    between atoms: C_2  and  C_3 
REMARK    2  A    between atoms: C_2  and  N_10 
REMARK    3  A    between atoms: C_3  and  N_4 
REMARK       I    between atoms: N_10  and  C_11 
REMARK       I    between atoms: C_11  and  N_13 
REMARK       I    between atoms: N_17  and  C_20 
ROOT
HETATM    1  N   UNL     1     -39.830 -50.580  12.879  1.00  0.00    -0.337 N 
HETATM    2  C   UNL     1     -39.733 -51.887  13.277  1.00  0.00     0.318 C 
HETATM    3  O   UNL     1     -38.658 -52.383  13.593  1.00  0.00    -0.247 OA
HETATM    4  N   UNL     1     -40.937 -52.567  13.340  1.00  0.00    -0.333 N 
HETATM    5  C   UNL     1     -40.972 -53.847  14.051  1.00  0.00     0.129 C 
HETATM    6  C   UNL     1     -41.714 -53.701  15.381  1.00  0.00     0.040 C 
HETATM    7  C   UNL     1     -43.224 -53.920  15.256  1.00  0.00     0.127 C 
HETATM    8  N   UNL     1     -43.866 -53.297  14.098  1.00  0.00    -0.351 N 
HETATM    9  C   UNL     1     -43.357 -51.992  13.657  1.00  0.00     0.145 C 
HETATM   10  C   UNL     1     -42.187 -52.149  12.675  1.00  0.00     0.147 C 
HETATM   11  C   UNL     1     -44.853 -53.881  13.315  1.00  0.00     0.215 C 
HETATM   12  O   UNL     1     -45.270 -53.329  12.292  1.00  0.00    -0.274 OA
HETATM   13  C   UNL     1     -45.435 -55.221  13.694  1.00  0.00     0.117 C 
HETATM   14  H   UNL     1     -40.706 -50.128  13.085  1.00  0.00     0.164 HD
ENDROOT
BRANCH   1  15
HETATM   15  C   UNL     1     -38.659 -49.705  12.757  1.00  0.00     0.100 C 
HETATM   16  C   UNL     1     -38.012 -49.962  11.394  1.00  0.00     0.034 C 
BRANCH  15  17
HETATM   17  C   UNL     1     -39.014 -48.214  12.949  1.00  0.00     0.153 C 
BRANCH  17  18
HETATM   18  N   UNL     1     -40.353 -47.868  12.518  1.00  0.00    -0.350 N 
HETATM   19  C   UNL     1     -40.755 -47.645  11.231  1.00  0.00     0.108 A 
HETATM   20  C   UNL     1     -42.093 -47.338  11.327  1.00  0.00     0.106 A 
HETATM   21  N   UNL     1     -42.508 -47.379  12.633  1.00  0.00    -0.361 N 
HETATM   22  C   UNL     1     -41.444 -47.720  13.325  1.00  0.00     0.182 A 
ATOM     23  HN  UNL     1     -43.444 -47.185  12.991  1.00  0.00     0.166 HD
ENDBRANCH  17  18
ENDBRANCH  15  17
ENDBRANCH   1  15
TORSDOF 3
ENDMDL
MODEL 6
REMARK VINA RESULT:      -5.2      2.618      6.734
REMARK  3 active torsions:
REMARK  status: ('A' for Active; 'I' for Inactive)
REMARK    1  A    between atoms: C_2  and  C_3 
REMARK    2  A    between atoms: C_2  and  N_10 
REMARK    3  A    between atoms: C_3  and  N_4 
REMARK       I    between atoms: N_10  and  C_11 
REMARK       I    between atoms: C_11  and  N_13 
REMARK       I    between atoms: N_17  and  C_20 
ROOT
HETATM    1  N   UNL     1     -40.363 -50.532  14.360  1.00  0.00    -0.337 N 
HETATM    2  C   UNL     1     -41.635 -50.136  14.675  1.00  0.00     0.318 C 
HETATM    3  O   UNL     1     -41.900 -48.965  14.924  1.00  0.00    -0.247 OA
HETATM    4  N   UNL     1     -42.585 -51.143  14.635  1.00  0.00    -0.333 N 
HETATM    5  C   UNL     1     -43.999 -50.760  14.639  1.00  0.00     0.129 C 
HETATM    6  C   UNL     1     -44.621 -50.991  13.261  1.00  0.00     0.040 C 
HETATM    7  C   UNL     1     -45.177 -52.406  13.080  1.00  0.00     0.127 C 
HETATM    8  N   UNL     1     -44.338 -53.492  13.589  1.00  0.00    -0.351 N 
HETATM    9  C   UNL     1     -42.882 -53.342  13.468  1.00  0.00     0.145 C 
HETATM   10  C   UNL     1     -42.295 -52.589  14.671  1.00  0.00     0.147 C 
HETATM   11  C   UNL     1     -44.798 -54.611  14.271  1.00  0.00     0.215 C 
HETATM   12  O   UNL     1     -44.015 -55.431  14.759  1.00  0.00    -0.274 OA
HETATM   13  C   UNL     1     -46.279 -54.846  14.442  1.00  0.00     0.117 C 
HETATM   14  H   UNL     1     -40.296 -51.327  13.745  1.00  0.00     0.164 HD
ENDROOT
BRANCH   1  15
HETATM   15  C   UNL     1     -39.229 -49.602  14.347  1.00  0.00     0.100 C 
HETATM   16  C   UNL     1     -38.137 -50.169  15.258  1.00  0.00     0.034 C 
BRANCH  15  17
HETATM   17  C   UNL     1     -38.701 -49.334  12.921  1.00  0.00     0.153 C 
BRANCH  17  18
HETATM   18  N   UNL     1     -39.720 -48.889  11.991  1.00  0.00    -0.350 N 
HETATM   19  C   UNL     1     -40.262 -47.636  11.925  1.00  0.00     0.108 A 
HETATM   20  C   UNL     1     -41.184 -47.705  10.906  1.00  0.00     0.106 A 
HETATM   21  N   UNL     1     -41.205 -48.959  10.352  1.00  0.00    -0.361 N 
HETATM   22  C   UNL     1     -40.299 -49.645  11.013  1.00  0.00     0.182 A 
ATOM     23  HN  UNL     1     -41.797 -49.289   9.590  1.00  0.00     0.166 HD
ENDBRANCH  17  18
ENDBRANCH  15  17
ENDBRANCH   1  15
TORSDOF 3
ENDMDL
MODEL 7
REMARK VINA RESULT:      -5.2      3.991      5.557
REMARK  3 active torsions:
REMARK  status: ('A' for Active; 'I' for Inactive)
REMARK    1  A    between atoms: C_2  and  C_3 
REMARK    2  A    between atoms: C_2  and  N_10 
REMARK    3  A    between atoms: C_3  and  N_4 
REMARK       I    between atoms: N_10  and  C_11 
REMARK       I    between atoms: C_11  and  N_13 
REMARK       I    between atoms: N_17  and  C_20 
ROOT
HETATM    1  N   UNL     1     -39.984 -49.788  13.139  1.00  0.00    -0.337 N 
HETATM    2  C   UNL     1     -40.221 -49.156  11.948  1.00  0.00     0.318 C 
HETATM    3  O   UNL     1     -40.438 -49.787  10.920  1.00  0.00    -0.247 OA
HETATM    4  N   UNL     1     -40.246 -47.774  12.017  1.00  0.00    -0.333 N 
HETATM    5  C   UNL     1     -40.802 -47.035  10.881  1.00  0.00     0.129 C 
HETATM    6  C   UNL     1     -42.165 -46.442  11.243  1.00  0.00     0.040 C 
HETATM    7  C   UNL     1     -42.068 -45.055  11.883  1.00  0.00     0.127 C 
HETATM    8  N   UNL     1     -41.015 -44.886  12.886  1.00  0.00    -0.351 N 
HETATM    9  C   UNL     1     -40.713 -46.029  13.757  1.00  0.00     0.145 C 
HETATM   10  C   UNL     1     -39.679 -46.966  13.114  1.00  0.00     0.147 C 
HETATM   11  C   UNL     1     -40.204 -43.767  13.018  1.00  0.00     0.215 C 
HETATM   12  O   UNL     1     -39.269 -43.745  13.824  1.00  0.00    -0.274 OA
HETATM   13  C   UNL     1     -40.442 -42.545  12.164  1.00  0.00     0.117 C 
HETATM   14  H   UNL     1     -40.272 -49.284  13.962  1.00  0.00     0.164 HD
ENDROOT
BRANCH   1  15
HETATM   15  C   UNL     1     -39.925 -51.249  13.259  1.00  0.00     0.100 C 
HETATM   16  C   UNL     1     -38.509 -51.635  13.695  1.00  0.00     0.034 C 
BRANCH  15  17
HETATM   17  C   UNL     1     -40.992 -51.806  14.225  1.00  0.00     0.153 C 
BRANCH  17  18
HETATM   18  N   UNL     1     -42.077 -52.505  13.564  1.00  0.00    -0.350 N 
HETATM   19  C   UNL     1     -42.926 -53.408  14.139  1.00  0.00     0.108 A 
HETATM   20  C   UNL     1     -43.763 -53.802  13.121  1.00  0.00     0.106 A 
HETATM   21  N   UNL     1     -43.448 -53.156  11.954  1.00  0.00    -0.361 N 
HETATM   22  C   UNL     1     -42.442 -52.367  12.255  1.00  0.00     0.182 A 
ATOM     23  HN  UNL     1     -43.899 -53.265  11.045  1.00  0.00     0.166 HD
ENDBRANCH  17  18
ENDBRANCH  15  17
ENDBRANCH   1  15
TORSDOF 3
ENDMDL
MODEL 8
REMARK VINA RESULT:      -5.2      4.339      6.947
REMARK  3 active torsions:
REMARK  status: ('A' for Active; 'I' for Inactive)
REMARK    1  A    between atoms: C_2  and  C_3 
REMARK    2  A    between atoms: C_2  and  N_10 
REMARK    3  A    between atoms: C_3  and  N_4 
REMARK       I    between atoms: N_10  and  C_11 
REMARK       I    between atoms: C_11  and  N_13 
REMARK       I    between atoms: N_17  and  C_20 
ROOT
HETATM    1  N   UNL     1     -39.073 -48.897  11.601  1.00  0.00    -0.337 N 
HETATM    2  C   UNL     1     -40.438 -48.837  11.502  1.00  0.00     0.318 C 
HETATM    3  O   UNL     1     -41.128 -49.849  11.526  1.00  0.00    -0.247 OA
HETATM    4  N   UNL     1     -40.960 -47.557  11.428  1.00  0.00    -0.333 N 
HETATM    5  C   UNL     1     -42.399 -47.383  11.643  1.00  0.00     0.129 C 
HETATM    6  C   UNL     1     -42.662 -46.727  13.000  1.00  0.00     0.040 C 
HETATM    7  C   UNL     1     -42.657 -45.198  12.941  1.00  0.00     0.127 C 
HETATM    8  N   UNL     1     -41.592 -44.593  12.139  1.00  0.00    -0.351 N 
HETATM    9  C   UNL     1     -40.279 -45.251  12.142  1.00  0.00     0.145 C 
HETATM   10  C   UNL     1     -40.198 -46.346  11.068  1.00  0.00     0.147 C 
HETATM   11  C   UNL     1     -41.744 -43.504  11.291  1.00  0.00     0.215 C 
HETATM   12  O   UNL     1     -40.819 -43.119  10.569  1.00  0.00    -0.274 OA
HETATM   13  C   UNL     1     -43.059 -42.766  11.223  1.00  0.00     0.117 C 
HETATM   14  H   UNL     1     -38.634 -48.099  12.029  1.00  0.00     0.164 HD
ENDROOT
BRANCH   1  15
HETATM   15  C   UNL     1     -38.345 -50.167  11.691  1.00  0.00     0.100 C 
HETATM   16  C   UNL     1     -37.120 -50.081  10.777  1.00  0.00     0.034 C 
BRANCH  15  17
HETATM   17  C   UNL     1     -37.952 -50.520  13.142  1.00  0.00     0.153 C 
BRANCH  17  18
HETATM   18  N   UNL     1     -39.030 -51.101  13.919  1.00  0.00    -0.350 N 
HETATM   19  C   UNL     1     -39.703 -50.498  14.944  1.00  0.00     0.108 A 
HETATM   20  C   UNL     1     -40.611 -51.439  15.370  1.00  0.00     0.106 A 
HETATM   21  N   UNL     1     -40.510 -52.586  14.626  1.00  0.00    -0.361 N 
HETATM   22  C   UNL     1     -39.563 -52.346  13.747  1.00  0.00     0.182 A 
ATOM     23  HN  UNL     1     -41.054 -53.443  14.732  1.00  0.00     0.166 HD
ENDBRANCH  17  18
ENDBRANCH  15  17
ENDBRANCH   1  15
TORSDOF 3
ENDMDL
MODEL 9
REMARK VINA RESULT:      -5.2      3.868      7.147
REMARK  3 active torsions:
REMARK  status: ('A' for Active; 'I' for Inactive)
REMARK    1  A    between atoms: C_2  and  C_3 
REMARK    2  A    between atoms: C_2  and  N_10 
REMARK    3  A    between atoms: C_3  and  N_4 
REMARK       I    between atoms: N_10  and  C_11 
REMARK       I    between atoms: C_11  and  N_13 
REMARK       I    between atoms: N_17  and  C_20 
ROOT
HETATM    1  N   UNL     1     -40.601 -47.019  11.902  1.00  0.00    -0.337 N 
HETATM    2  C   UNL     1     -39.706 -47.465  12.838  1.00  0.00     0.318 C 
HETATM    3  O   UNL     1     -38.984 -46.691  13.454  1.00  0.00    -0.247 OA
HETATM    4  N   UNL     1     -39.728 -48.832  13.059  1.00  0.00    -0.333 N 
HETATM    5  C   UNL     1     -39.049 -49.350  14.248  1.00  0.00     0.129 C 
HETATM    6  C   UNL     1     -40.071 -49.808  15.291  1.00  0.00     0.040 C 
HETATM    7  C   UNL     1     -40.506 -51.264  15.110  1.00  0.00     0.127 C 
HETATM    8  N   UNL     1     -40.771 -51.685  13.733  1.00  0.00    -0.351 N 
HETATM    9  C   UNL     1     -41.380 -50.704  12.825  1.00  0.00     0.145 C 
HETATM   10  C   UNL     1     -40.313 -49.832  12.146  1.00  0.00     0.147 C 
HETATM   11  C   UNL     1     -40.402 -52.905  13.180  1.00  0.00     0.215 C 
HETATM   12  O   UNL     1     -40.571 -53.141  11.980  1.00  0.00    -0.274 OA
HETATM   13  C   UNL     1     -39.771 -53.973  14.039  1.00  0.00     0.117 C 
HETATM   14  H   UNL     1     -41.430 -47.580  11.792  1.00  0.00     0.164 HD
ENDROOT
BRANCH   1  15
HETATM   15  C   UNL     1     -40.721 -45.602  11.540  1.00  0.00     0.100 C 
HETATM   16  C   UNL     1     -39.804 -45.337  10.343  1.00  0.00     0.034 C 
BRANCH  15  17
HETATM   17  C   UNL     1     -42.180 -45.191  11.244  1.00  0.00     0.153 C 
BRANCH  17  18
HETATM   18  N   UNL     1     -42.927 -46.175  10.485  1.00  0.00    -0.350 N 
HETATM   19  C   UNL     1     -43.112 -46.181   9.131  1.00  0.00     0.108 A 
HETATM   20  C   UNL     1     -43.890 -47.289   8.887  1.00  0.00     0.106 A 
HETATM   21  N   UNL     1     -44.169 -47.954  10.053  1.00  0.00    -0.361 N 
HETATM   22  C   UNL     1     -43.560 -47.271  10.996  1.00  0.00     0.182 A 
ATOM     23  HN  UNL     1     -44.731 -48.798  10.164  1.00  0.00     0.166 HD
ENDBRANCH  17  18
ENDBRANCH  15  17
ENDBRANCH   1  15
TORSDOF 3
ENDMDL
