MODEL 1
REMARK VINA RESULT:      -6.0      0.000      0.000
REMARK  6 active torsions:
REMARK  status: ('A' for Active; 'I' for Inactive)
REMARK    1  A    between atoms: O_1  and  C_2 
REMARK    2  A    between atoms: C_2  and  C_3 
REMARK    3  A    between atoms: C_3  and  N_4 
REMARK    4  A    between atoms: N_4  and  C_5 
REMARK    5  A    between atoms: N_14  and  C_15 
REMARK    6  A    between atoms: C_15  and  C_16 
ROOT
HETATM    1  C   UNL     1     -41.522 -53.153  12.811  1.00  0.00     0.160 A 
HETATM    2  N   UNL     1     -40.461 -53.425  13.531  1.00  0.00    -0.331 N 
ATOM      3  HN  UNL     1     -39.511 -53.086  13.379  1.00  0.00     0.168 HD
HETATM    4  C   UNL     1     -40.890 -54.258  14.529  1.00  0.00     0.061 A 
HETATM    5  C   UNL     1     -40.160 -54.840  15.576  1.00  0.00     0.032 A 
HETATM    6  C   UNL     1     -40.822 -55.677  16.480  1.00  0.00     0.002 A 
HETATM    7  C   UNL     1     -42.186 -55.936  16.339  1.00  0.00     0.002 A 
HETATM    8  C   UNL     1     -42.929 -55.374  15.294  1.00  0.00     0.032 A 
HETATM    9  C   UNL     1     -42.251 -54.526  14.408  1.00  0.00     0.063 A 
HETATM   10  N   UNL     1     -42.633 -53.806  13.296  1.00  0.00    -0.319 N 
ENDROOT
BRANCH   1  11
HETATM   11  N   UNL     1     -41.592 -52.368  11.709  1.00  0.00    -0.262 NA
HETATM   12  H   UNL     1     -42.388 -52.584  11.105  1.00  0.00     0.130 HD
BRANCH  11  13
HETATM   13  C   UNL     1     -41.634 -50.921  11.974  1.00  0.00     0.121 C 
BRANCH  13  14
HETATM   14  C   UNL     1     -40.320 -50.280  11.520  1.00  0.00     0.178 C 
BRANCH  14  15
HETATM   15  O   UNL     1     -40.395 -49.947  10.131  1.00  0.00    -0.400 OA
HETATM   16  H   UNL     1     -40.418 -48.977  10.078  1.00  0.00     0.209 HD
ENDBRANCH  14  15
ENDBRANCH  13  14
ENDBRANCH  11  13
ENDBRANCH   1  11
BRANCH  10  17
HETATM   17  C   UNL     1     -43.931 -53.853  12.657  1.00  0.00     0.164 C 
BRANCH  17  18
HETATM   18  C   UNL     1     -44.743 -52.566  12.781  1.00  0.00     0.140 C 
HETATM   19  C   UNL     1     -45.195 -52.228  14.193  1.00  0.00     0.035 C 
HETATM   20  C   UNL     1     -46.540 -51.555  14.018  1.00  0.00     0.029 C 
HETATM   21  C   UNL     1     -46.878 -51.729  12.552  1.00  0.00     0.168 C 
HETATM   22  O   UNL     1     -45.968 -52.704  12.036  1.00  0.00    -0.384 OA
ENDBRANCH  17  18
ENDBRANCH  10  17
TORSDOF 6
ENDMDL
MODEL 2
REMARK VINA RESULT:      -5.9      2.541      4.409
REMARK  6 active torsions:
REMARK  status: ('A' for Active; 'I' for Inactive)
REMARK    1  A    between atoms: O_1  and  C_2 
REMARK    2  A    between atoms: C_2  and  C_3 
REMARK    3  A    between atoms: C_3  and  N_4 
REMARK    4  A    between atoms: N_4  and  C_5 
REMARK    5  A    between atoms: N_14  and  C_15 
REMARK    6  A    between atoms: C_15  and  C_16 
ROOT
HETATM    1  C   UNL     1     -41.265 -52.564  12.208  1.00  0.00     0.160 A 
HETATM    2  N   UNL     1     -42.502 -52.353  11.826  1.00  0.00    -0.331 N 
ATOM      3  HN  UNL     1     -42.821 -51.706  11.106  1.00  0.00     0.168 HD
HETATM    4  C   UNL     1     -43.276 -53.181  12.594  1.00  0.00     0.061 A 
HETATM    5  C   UNL     1     -44.668 -53.355  12.586  1.00  0.00     0.032 A 
HETATM    6  C   UNL     1     -45.241 -54.263  13.483  1.00  0.00     0.002 A 
HETATM    7  C   UNL     1     -44.443 -54.978  14.378  1.00  0.00     0.002 A 
HETATM    8  C   UNL     1     -43.054 -54.809  14.408  1.00  0.00     0.032 A 
HETATM    9  C   UNL     1     -42.497 -53.907  13.491  1.00  0.00     0.063 A 
HETATM   10  N   UNL     1     -41.209 -53.491  13.224  1.00  0.00    -0.319 N 
ENDROOT
BRANCH   1  11
HETATM   11  N   UNL     1     -40.143 -51.970  11.735  1.00  0.00    -0.262 NA
HETATM   12  H   UNL     1     -39.904 -52.251  10.781  1.00  0.00     0.130 HD
BRANCH  11  13
HETATM   13  C   UNL     1     -40.157 -50.498  11.758  1.00  0.00     0.121 C 
BRANCH  13  14
HETATM   14  C   UNL     1     -38.730 -49.971  11.591  1.00  0.00     0.178 C 
BRANCH  14  15
HETATM   15  O   UNL     1     -37.799 -51.055  11.655  1.00  0.00    -0.400 OA
HETATM   16  H   UNL     1     -37.443 -51.170  10.757  1.00  0.00     0.209 HD
ENDBRANCH  14  15
ENDBRANCH  13  14
ENDBRANCH  11  13
ENDBRANCH   1  11
BRANCH  10  17
HETATM   17  C   UNL     1     -40.028 -53.845  13.982  1.00  0.00     0.164 C 
BRANCH  17  18
HETATM   18  C   UNL     1     -39.606 -52.803  15.016  1.00  0.00     0.140 C 
HETATM   19  C   UNL     1     -40.699 -51.825  15.420  1.00  0.00     0.035 C 
HETATM   20  C   UNL     1     -39.973 -50.523  15.686  1.00  0.00     0.029 C 
HETATM   21  C   UNL     1     -38.552 -50.765  15.223  1.00  0.00     0.168 C 
HETATM   22  O   UNL     1     -38.570 -51.973  14.458  1.00  0.00    -0.384 OA
ENDBRANCH  17  18
ENDBRANCH  10  17
TORSDOF 6
ENDMDL
MODEL 3
REMARK VINA RESULT:      -5.9      5.389      8.051
REMARK  6 active torsions:
REMARK  status: ('A' for Active; 'I' for Inactive)
REMARK    1  A    between atoms: O_1  and  C_2 
REMARK    2  A    between atoms: C_2  and  C_3 
REMARK    3  A    between atoms: C_3  and  N_4 
REMARK    4  A    between atoms: N_4  and  C_5 
REMARK    5  A    between atoms: N_14  and  C_15 
REMARK    6  A    between atoms: C_15  and  C_16 
ROOT
HETATM    1  C   UNL     1     -41.228 -47.344  10.622  1.00  0.00     0.160 A 
HETATM    2  N   UNL     1     -40.865 -46.106  10.388  1.00  0.00    -0.331 N 
ATOM      3  HN  UNL     1     -41.062 -45.555   9.552  1.00  0.00     0.168 HD
HETATM    4  C   UNL     1     -40.166 -45.706  11.495  1.00  0.00     0.061 A 
HETATM    5  C   UNL     1     -39.563 -44.468  11.765  1.00  0.00     0.032 A 
HETATM    6  C   UNL     1     -38.886 -44.296  12.978  1.00  0.00     0.002 A 
HETATM    7  C   UNL     1     -38.804 -45.340  13.900  1.00  0.00     0.002 A 
HETATM    8  C   UNL     1     -39.389 -46.585  13.643  1.00  0.00     0.032 A 
HETATM    9  C   UNL     1     -40.076 -46.733  12.430  1.00  0.00     0.063 A 
HETATM   10  N   UNL     1     -40.765 -47.775  11.845  1.00  0.00    -0.319 N 
ENDROOT
BRANCH   1  11
HETATM   11  N   UNL     1     -41.939 -48.163   9.811  1.00  0.00    -0.262 NA
HETATM   12  H   UNL     1     -41.986 -49.128  10.145  1.00  0.00     0.130 HD
BRANCH  11  13
HETATM   13  C   UNL     1     -43.321 -47.732   9.543  1.00  0.00     0.121 C 
BRANCH  13  14
HETATM   14  C   UNL     1     -43.462 -47.354   8.067  1.00  0.00     0.178 C 
BRANCH  14  15
HETATM   15  O   UNL     1     -42.770 -46.130   7.809  1.00  0.00    -0.400 OA
HETATM   16  H   UNL     1     -43.263 -45.429   8.270  1.00  0.00     0.209 HD
ENDBRANCH  14  15
ENDBRANCH  13  14
ENDBRANCH  11  13
ENDBRANCH   1  11
BRANCH  10  17
HETATM   17  C   UNL     1     -40.849 -49.129  12.351  1.00  0.00     0.164 C 
BRANCH  17  18
HETATM   18  C   UNL     1     -39.694 -50.034  11.929  1.00  0.00     0.140 C 
HETATM   19  C   UNL     1     -39.011 -50.773  13.070  1.00  0.00     0.035 C 
HETATM   20  C   UNL     1     -37.557 -50.863  12.656  1.00  0.00     0.029 C 
HETATM   21  C   UNL     1     -37.448 -50.000  11.417  1.00  0.00     0.168 C 
HETATM   22  O   UNL     1     -38.650 -49.230  11.347  1.00  0.00    -0.384 OA
ENDBRANCH  17  18
ENDBRANCH  10  17
TORSDOF 6
ENDMDL
MODEL 4
REMARK VINA RESULT:      -5.9      2.298      4.712
REMARK  6 active torsions:
REMARK  status: ('A' for Active; 'I' for Inactive)
REMARK    1  A    between atoms: O_1  and  C_2 
REMARK    2  A    between atoms: C_2  and  C_3 
REMARK    3  A    between atoms: C_3  and  N_4 
REMARK    4  A    between atoms: N_4  and  C_5 
REMARK    5  A    between atoms: N_14  and  C_15 
REMARK    6  A    between atoms: C_15  and  C_16 
ROOT
HETATM    1  C   UNL     1     -41.249 -52.625  12.228  1.00  0.00     0.160 A 
HETATM    2  N   UNL     1     -42.461 -52.276  11.871  1.00  0.00    -0.331 N 
ATOM      3  HN  UNL     1     -42.721 -51.549  11.205  1.00  0.00     0.168 HD
HETATM    4  C   UNL     1     -43.307 -53.087  12.579  1.00  0.00     0.061 A 
HETATM    5  C   UNL     1     -44.709 -53.136  12.566  1.00  0.00     0.032 A 
HETATM    6  C   UNL     1     -45.362 -54.055  13.394  1.00  0.00     0.002 A 
HETATM    7  C   UNL     1     -44.632 -54.905  14.226  1.00  0.00     0.002 A 
HETATM    8  C   UNL     1     -43.233 -54.863  14.261  1.00  0.00     0.032 A 
HETATM    9  C   UNL     1     -42.597 -53.947  13.413  1.00  0.00     0.063 A 
HETATM   10  N   UNL     1     -41.277 -53.629  13.170  1.00  0.00    -0.319 N 
ENDROOT
BRANCH   1  11
HETATM   11  N   UNL     1     -40.078 -52.099  11.795  1.00  0.00    -0.262 NA
HETATM   12  H   UNL     1     -40.044 -51.956  10.784  1.00  0.00     0.130 HD
BRANCH  11  13
HETATM   13  C   UNL     1     -39.695 -50.823  12.422  1.00  0.00     0.121 C 
BRANCH  13  14
HETATM   14  C   UNL     1     -39.693 -49.715  11.366  1.00  0.00     0.178 C 
BRANCH  14  15
HETATM   15  O   UNL     1     -40.540 -50.081  10.274  1.00  0.00    -0.400 OA
HETATM   16  H   UNL     1     -41.338 -50.481  10.662  1.00  0.00     0.209 HD
ENDBRANCH  14  15
ENDBRANCH  13  14
ENDBRANCH  11  13
ENDBRANCH   1  11
BRANCH  10  17
HETATM   17  C   UNL     1     -40.132 -54.143  13.892  1.00  0.00     0.164 C 
BRANCH  17  18
HETATM   18  C   UNL     1     -40.045 -53.684  15.346  1.00  0.00     0.140 C 
HETATM   19  C   UNL     1     -39.083 -52.534  15.597  1.00  0.00     0.035 C 
HETATM   20  C   UNL     1     -38.519 -52.796  16.978  1.00  0.00     0.029 C 
HETATM   21  C   UNL     1     -39.022 -54.174  17.351  1.00  0.00     0.168 C 
HETATM   22  O   UNL     1     -39.534 -54.763  16.153  1.00  0.00    -0.384 OA
ENDBRANCH  17  18
ENDBRANCH  10  17
TORSDOF 6
ENDMDL
MODEL 5
REMARK VINA RESULT:      -5.9      3.839      7.797
REMARK  6 active torsions:
REMARK  status: ('A' for Active; 'I' for Inactive)
REMARK    1  A    between atoms: O_1  and  C_2 
REMARK    2  A    between atoms: C_2  and  C_3 
REMARK    3  A    between atoms: C_3  and  N_4 
REMARK    4  A    between atoms: N_4  and  C_5 
REMARK    5  A    between atoms: N_14  and  C_15 
REMARK    6  A    between atoms: C_15  and  C_16 
ROOT
HETATM    1  C   UNL     1     -39.941 -50.251  11.740  1.00  0.00     0.160 A 
HETATM    2  N   UNL     1     -41.072 -50.091  11.097  1.00  0.00    -0.331 N 
ATOM      3  HN  UNL     1     -41.711 -50.823  10.787  1.00  0.00     0.168 HD
HETATM    4  C   UNL     1     -41.219 -48.740  10.929  1.00  0.00     0.061 A 
HETATM    5  C   UNL     1     -42.258 -48.031  10.310  1.00  0.00     0.032 A 
HETATM    6  C   UNL     1     -42.182 -46.635  10.249  1.00  0.00     0.002 A 
HETATM    7  C   UNL     1     -41.085 -45.959  10.786  1.00  0.00     0.002 A 
HETATM    8  C   UNL     1     -40.033 -46.652  11.397  1.00  0.00     0.032 A 
HETATM    9  C   UNL     1     -40.136 -48.048  11.463  1.00  0.00     0.063 A 
HETATM   10  N   UNL     1     -39.328 -49.041  11.977  1.00  0.00    -0.319 N 
ENDROOT
BRANCH   1  11
HETATM   11  N   UNL     1     -39.371 -51.416  12.130  1.00  0.00    -0.262 NA
HETATM   12  H   UNL     1     -38.388 -51.321  12.393  1.00  0.00     0.130 HD
BRANCH  11  13
HETATM   13  C   UNL     1     -40.049 -52.103  13.242  1.00  0.00     0.121 C 
BRANCH  13  14
HETATM   14  C   UNL     1     -40.862 -53.279  12.696  1.00  0.00     0.178 C 
BRANCH  14  15
HETATM   15  O   UNL     1     -40.645 -53.410  11.289  1.00  0.00    -0.400 OA
HETATM   16  H   UNL     1     -39.926 -54.055  11.177  1.00  0.00     0.209 HD
ENDBRANCH  14  15
ENDBRANCH  13  14
ENDBRANCH  11  13
ENDBRANCH   1  11
BRANCH  10  17
HETATM   17  C   UNL     1     -38.000 -48.858  12.523  1.00  0.00     0.164 C 
BRANCH  17  18
HETATM   18  C   UNL     1     -37.942 -48.842  14.049  1.00  0.00     0.140 C 
HETATM   19  C   UNL     1     -37.038 -47.773  14.643  1.00  0.00     0.035 C 
HETATM   20  C   UNL     1     -36.469 -48.403  15.898  1.00  0.00     0.029 C 
HETATM   21  C   UNL     1     -36.907 -49.851  15.843  1.00  0.00     0.168 C 
HETATM   22  O   UNL     1     -37.384 -50.085  14.516  1.00  0.00    -0.384 OA
ENDBRANCH  17  18
ENDBRANCH  10  17
TORSDOF 6
ENDMDL
MODEL 6
REMARK VINA RESULT:      -5.8      2.076      5.141
REMARK  6 active torsions:
REMARK  status: ('A' for Active; 'I' for Inactive)
REMARK    1  A    between atoms: O_1  and  C_2 
REMARK    2  A    between atoms: C_2  and  C_3 
REMARK    3  A    between atoms: C_3  and  N_4 
REMARK    4  A    between atoms: N_4  and  C_5 
REMARK    5  A    between atoms: N_14  and  C_15 
REMARK    6  A    between atoms: C_15  and  C_16 
ROOT
HETATM    1  C   UNL     1     -42.633 -53.880  14.060  1.00  0.00     0.160 A 
HETATM    2  N   UNL     1     -43.597 -54.249  14.868  1.00  0.00    -0.331 N 
ATOM      3  HN  UNL     1     -43.582 -55.024  15.530  1.00  0.00     0.168 HD
HETATM    4  C   UNL     1     -44.629 -53.378  14.640  1.00  0.00     0.061 A 
HETATM    5  C   UNL     1     -45.894 -53.323  15.244  1.00  0.00     0.032 A 
HETATM    6  C   UNL     1     -46.797 -52.337  14.833  1.00  0.00     0.002 A 
HETATM    7  C   UNL     1     -46.450 -51.428  13.832  1.00  0.00     0.002 A 
HETATM    8  C   UNL     1     -45.197 -51.475  13.210  1.00  0.00     0.032 A 
HETATM    9  C   UNL     1     -44.300 -52.460  13.646  1.00  0.00     0.063 A 
HETATM   10  N   UNL     1     -43.014 -52.804  13.290  1.00  0.00    -0.319 N 
ENDROOT
BRANCH   1  11
HETATM   11  N   UNL     1     -41.410 -54.445  13.923  1.00  0.00    -0.262 NA
HETATM   12  H   UNL     1     -40.863 -54.055  13.153  1.00  0.00     0.130 HD
BRANCH  11  13
HETATM   13  C   UNL     1     -40.558 -54.393  15.123  1.00  0.00     0.121 C 
BRANCH  13  14
HETATM   14  C   UNL     1     -39.105 -54.669  14.731  1.00  0.00     0.178 C 
BRANCH  14  15
HETATM   15  O   UNL     1     -38.973 -54.657  13.307  1.00  0.00    -0.400 OA
HETATM   16  H   UNL     1     -38.237 -55.255  13.091  1.00  0.00     0.209 HD
ENDBRANCH  14  15
ENDBRANCH  13  14
ENDBRANCH  11  13
ENDBRANCH   1  11
BRANCH  10  17
HETATM   17  C   UNL     1     -42.256 -52.241  12.191  1.00  0.00     0.164 C 
BRANCH  17  18
HETATM   18  C   UNL     1     -41.152 -51.276  12.615  1.00  0.00     0.140 C 
HETATM   19  C   UNL     1     -40.970 -50.073  11.704  1.00  0.00     0.035 C 
HETATM   20  C   UNL     1     -39.484 -49.782  11.740  1.00  0.00     0.029 C 
HETATM   21  C   UNL     1     -38.875 -50.946  12.493  1.00  0.00     0.168 C 
HETATM   22  O   UNL     1     -39.884 -51.957  12.570  1.00  0.00    -0.384 OA
ENDBRANCH  17  18
ENDBRANCH  10  17
TORSDOF 6
ENDMDL
MODEL 7
REMARK VINA RESULT:      -5.6      2.033      5.343
REMARK  6 active torsions:
REMARK  status: ('A' for Active; 'I' for Inactive)
REMARK    1  A    between atoms: O_1  and  C_2 
REMARK    2  A    between atoms: C_2  and  C_3 
REMARK    3  A    between atoms: C_3  and  N_4 
REMARK    4  A    between atoms: N_4  and  C_5 
REMARK    5  A    between atoms: N_14  and  C_15 
REMARK    6  A    between atoms: C_15  and  C_16 
ROOT
HETATM    1  C   UNL     1     -41.885 -51.975  12.149  1.00  0.00     0.160 A 
HETATM    2  N   UNL     1     -41.676 -50.780  11.653  1.00  0.00    -0.331 N 
ATOM      3  HN  UNL     1     -42.340 -50.204  11.136  1.00  0.00     0.168 HD
HETATM    4  C   UNL     1     -40.383 -50.463  11.974  1.00  0.00     0.061 A 
HETATM    5  C   UNL     1     -39.658 -49.297  11.688  1.00  0.00     0.032 A 
HETATM    6  C   UNL     1     -38.328 -49.206  12.115  1.00  0.00     0.002 A 
HETATM    7  C   UNL     1     -37.730 -50.261  12.805  1.00  0.00     0.002 A 
HETATM    8  C   UNL     1     -38.434 -51.437  13.089  1.00  0.00     0.032 A 
HETATM    9  C   UNL     1     -39.769 -51.503  12.668  1.00  0.00     0.063 A 
HETATM   10  N   UNL     1     -40.755 -52.462  12.766  1.00  0.00    -0.319 N 
ENDROOT
BRANCH   1  11
HETATM   11  N   UNL     1     -43.021 -52.709  12.082  1.00  0.00    -0.262 NA
HETATM   12  H   UNL     1     -42.893 -53.686  12.355  1.00  0.00     0.130 HD
BRANCH  11  13
HETATM   13  C   UNL     1     -44.150 -52.188  12.870  1.00  0.00     0.121 C 
BRANCH  13  14
HETATM   14  C   UNL     1     -45.177 -53.301  13.092  1.00  0.00     0.178 C 
BRANCH  14  15
HETATM   15  O   UNL     1     -44.719 -54.513  12.486  1.00  0.00    -0.400 OA
HETATM   16  H   UNL     1     -45.430 -54.815  11.895  1.00  0.00     0.209 HD
ENDBRANCH  14  15
ENDBRANCH  13  14
ENDBRANCH  11  13
ENDBRANCH   1  11
BRANCH  10  17
HETATM   17  C   UNL     1     -40.585 -53.804  13.282  1.00  0.00     0.164 C 
BRANCH  17  18
HETATM   18  C   UNL     1     -41.236 -54.044  14.642  1.00  0.00     0.140 C 
HETATM   19  C   UNL     1     -40.406 -54.870  15.612  1.00  0.00     0.035 C 
HETATM   20  C   UNL     1     -41.419 -55.662  16.411  1.00  0.00     0.029 C 
HETATM   21  C   UNL     1     -42.745 -55.409  15.724  1.00  0.00     0.168 C 
HETATM   22  O   UNL     1     -42.444 -54.809  14.462  1.00  0.00    -0.384 OA
ENDBRANCH  17  18
ENDBRANCH  10  17
TORSDOF 6
ENDMDL
MODEL 8
REMARK VINA RESULT:      -5.5      3.112      5.620
REMARK  6 active torsions:
REMARK  status: ('A' for Active; 'I' for Inactive)
REMARK    1  A    between atoms: O_1  and  C_2 
REMARK    2  A    between atoms: C_2  and  C_3 
REMARK    3  A    between atoms: C_3  and  N_4 
REMARK    4  A    between atoms: N_4  and  C_5 
REMARK    5  A    between atoms: N_14  and  C_15 
REMARK    6  A    between atoms: C_15  and  C_16 
ROOT
HETATM    1  C   UNL     1     -40.706 -50.697  11.565  1.00  0.00     0.160 A 
HETATM    2  N   UNL     1     -41.868 -51.298  11.658  1.00  0.00    -0.331 N 
ATOM      3  HN  UNL     1     -42.729 -51.050  11.172  1.00  0.00     0.168 HD
HETATM    4  C   UNL     1     -41.686 -52.328  12.542  1.00  0.00     0.061 A 
HETATM    5  C   UNL     1     -42.608 -53.286  12.991  1.00  0.00     0.032 A 
HETATM    6  C   UNL     1     -42.187 -54.247  13.917  1.00  0.00     0.002 A 
HETATM    7  C   UNL     1     -40.875 -54.248  14.393  1.00  0.00     0.002 A 
HETATM    8  C   UNL     1     -39.945 -53.294  13.965  1.00  0.00     0.032 A 
HETATM    9  C   UNL     1     -40.381 -52.349  13.026  1.00  0.00     0.063 A 
HETATM   10  N   UNL     1     -39.772 -51.291  12.384  1.00  0.00    -0.319 N 
ENDROOT
BRANCH   1  11
HETATM   11  N   UNL     1     -40.395 -49.618  10.810  1.00  0.00    -0.262 NA
HETATM   12  H   UNL     1     -40.198 -49.846   9.833  1.00  0.00     0.130 HD
BRANCH  11  13
HETATM   13  C   UNL     1     -41.403 -48.545  10.805  1.00  0.00     0.121 C 
BRANCH  13  14
HETATM   14  C   UNL     1     -40.787 -47.261  11.366  1.00  0.00     0.178 C 
BRANCH  14  15
HETATM   15  O   UNL     1     -40.256 -46.469  10.300  1.00  0.00    -0.400 OA
HETATM   16  H   UNL     1     -40.324 -45.541  10.583  1.00  0.00     0.209 HD
ENDBRANCH  14  15
ENDBRANCH  13  14
ENDBRANCH  11  13
ENDBRANCH   1  11
BRANCH  10  17
HETATM   17  C   UNL     1     -38.438 -50.793  12.644  1.00  0.00     0.164 C 
BRANCH  17  18
HETATM   18  C   UNL     1     -38.327 -49.901  13.879  1.00  0.00     0.140 C 
HETATM   19  C   UNL     1     -38.045 -48.436  13.586  1.00  0.00     0.035 C 
HETATM   20  C   UNL     1     -37.182 -47.970  14.741  1.00  0.00     0.029 C 
HETATM   21  C   UNL     1     -36.848 -49.229  15.513  1.00  0.00     0.168 C 
HETATM   22  O   UNL     1     -37.206 -50.331  14.675  1.00  0.00    -0.384 OA
ENDBRANCH  17  18
ENDBRANCH  10  17
TORSDOF 6
ENDMDL
MODEL 9
REMARK VINA RESULT:      -5.5      2.467      4.775
REMARK  6 active torsions:
REMARK  status: ('A' for Active; 'I' for Inactive)
REMARK    1  A    between atoms: O_1  and  C_2 
REMARK    2  A    between atoms: C_2  and  C_3 
REMARK    3  A    between atoms: C_3  and  N_4 
REMARK    4  A    between atoms: N_4  and  C_5 
REMARK    5  A    between atoms: N_14  and  C_15 
REMARK    6  A    between atoms: C_15  and  C_16 
ROOT
HETATM    1  C   UNL     1     -41.376 -52.068  12.561  1.00  0.00     0.160 A 
HETATM    2  N   UNL     1     -42.191 -53.006  12.143  1.00  0.00    -0.331 N 
ATOM      3  HN  UNL     1     -41.946 -53.837  11.605  1.00  0.00     0.168 HD
HETATM    4  C   UNL     1     -43.436 -52.640  12.578  1.00  0.00     0.061 A 
HETATM    5  C   UNL     1     -44.664 -53.297  12.409  1.00  0.00     0.032 A 
HETATM    6  C   UNL     1     -45.821 -52.717  12.941  1.00  0.00     0.002 A 
HETATM    7  C   UNL     1     -45.756 -51.501  13.622  1.00  0.00     0.002 A 
HETATM    8  C   UNL     1     -44.542 -50.825  13.791  1.00  0.00     0.032 A 
HETATM    9  C   UNL     1     -43.392 -51.430  13.265  1.00  0.00     0.063 A 
HETATM   10  N   UNL     1     -42.058 -51.083  13.239  1.00  0.00    -0.319 N 
ENDROOT
BRANCH   1  11
HETATM   11  N   UNL     1     -40.037 -51.992  12.370  1.00  0.00    -0.262 NA
HETATM   12  H   UNL     1     -39.731 -51.101  11.973  1.00  0.00     0.130 HD
BRANCH  11  13
HETATM   13  C   UNL     1     -39.219 -52.231  13.570  1.00  0.00     0.121 C 
BRANCH  13  14
HETATM   14  C   UNL     1     -39.467 -53.652  14.083  1.00  0.00     0.178 C 
BRANCH  14  15
HETATM   15  O   UNL     1     -38.642 -54.578  13.371  1.00  0.00    -0.400 OA
HETATM   16  H   UNL     1     -38.713 -55.429  13.836  1.00  0.00     0.209 HD
ENDBRANCH  14  15
ENDBRANCH  13  14
ENDBRANCH  11  13
ENDBRANCH   1  11
BRANCH  10  17
HETATM   17  C   UNL     1     -41.497 -49.830  13.699  1.00  0.00     0.164 C 
BRANCH  17  18
HETATM   18  C   UNL     1     -41.557 -48.698  12.676  1.00  0.00     0.140 C 
HETATM   19  C   UNL     1     -42.833 -47.871  12.711  1.00  0.00     0.035 C 
HETATM   20  C   UNL     1     -43.077 -47.476  11.269  1.00  0.00     0.029 C 
HETATM   21  C   UNL     1     -42.059 -48.262  10.470  1.00  0.00     0.168 C 
HETATM   22  O   UNL     1     -41.527 -49.256  11.348  1.00  0.00    -0.384 OA
ENDBRANCH  17  18
ENDBRANCH  10  17
TORSDOF 6
ENDMDL
