MODEL 1
REMARK VINA RESULT:      -6.6      0.000      0.000
REMARK  5 active torsions:
REMARK  status: ('A' for Active; 'I' for Inactive)
REMARK    1  A    between atoms: C_8  and  N_9 
REMARK       I    between atoms: N_9  and  C_10 
REMARK       I    between atoms: C_10  and  N_12 
REMARK    2  A    between atoms: N_12  and  C_13 
REMARK    3  A    between atoms: C_13  and  C_14 
REMARK    4  A    between atoms: C_14  and  C_15 
REMARK    5  A    between atoms: C_15  and  N_16 
ROOT
HETATM    1  N   UNL     1     -41.537 -48.550   9.969  1.00  0.00    -0.308 N 
HETATM    2  C   UNL     1     -41.463 -49.330  11.108  1.00  0.00     0.320 C 
HETATM    3  O   UNL     1     -42.120 -49.177  12.136  1.00  0.00    -0.247 OA
HETATM    4  N   UNL     1     -40.555 -50.370  11.024  1.00  0.00    -0.343 N 
HETATM    5  H   UNL     1     -41.017 -48.867   9.158  1.00  0.00     0.170 HD
HETATM    6  H   UNL     1     -39.759 -50.235  10.420  1.00  0.00     0.164 HD
ENDROOT
BRANCH   1   7
HETATM    7  C   UNL     1     -42.383 -47.405   9.811  1.00  0.00     0.044 A 
HETATM    8  C   UNL     1     -42.007 -46.153  10.319  1.00  0.00    -0.020 A 
HETATM    9  C   UNL     1     -40.742 -45.883  11.077  1.00  0.00     0.052 C 
HETATM   10  C   UNL     1     -42.887 -45.082  10.115  1.00  0.00     0.096 A 
HETATM   11  N   UNL     1     -44.069 -45.158   9.468  1.00  0.00    -0.375 N 
HETATM   12  C   UNL     1     -44.397 -46.366   8.988  1.00  0.00     0.090 A 
ATOM     13  HN  UNL     1     -44.675 -44.347   9.351  1.00  0.00     0.164 HD
HETATM   14  C   UNL     1     -43.608 -47.492   9.138  1.00  0.00     0.047 A 
ENDBRANCH   1   7
BRANCH   4  15
HETATM   15  C   UNL     1     -40.383 -51.155  12.241  1.00  0.00     0.126 C 
BRANCH  15  16
HETATM   16  C   UNL     1     -40.907 -52.582  12.202  1.00  0.00     0.039 C 
BRANCH  16  17
HETATM   17  C   UNL     1     -42.432 -52.659  12.297  1.00  0.00     0.127 C 
BRANCH  17  18
HETATM   18  N   UNL     1     -42.851 -53.759  13.148  1.00  0.00    -0.352 N 
HETATM   19  C   UNL     1     -42.073 -54.184  14.284  1.00  0.00     0.126 C 
HETATM   20  C   UNL     1     -42.968 -55.151  15.036  1.00  0.00     0.029 C 
HETATM   21  C   UNL     1     -44.375 -54.912  14.504  1.00  0.00     0.104 C 
HETATM   22  C   UNL     1     -44.173 -54.164  13.216  1.00  0.00     0.219 C 
HETATM   23  O   UNL     1     -45.054 -53.884  12.417  1.00  0.00    -0.273 OA
ENDBRANCH  17  18
ENDBRANCH  16  17
ENDBRANCH  15  16
ENDBRANCH   4  15
TORSDOF 5
ENDMDL
MODEL 2
REMARK VINA RESULT:      -6.4      1.181      1.564
REMARK  5 active torsions:
REMARK  status: ('A' for Active; 'I' for Inactive)
REMARK    1  A    between atoms: C_8  and  N_9 
REMARK       I    between atoms: N_9  and  C_10 
REMARK       I    between atoms: C_10  and  N_12 
REMARK    2  A    between atoms: N_12  and  C_13 
REMARK    3  A    between atoms: C_13  and  C_14 
REMARK    4  A    between atoms: C_14  and  C_15 
REMARK    5  A    between atoms: C_15  and  N_16 
ROOT
HETATM    1  N   UNL     1     -41.169 -49.037  10.392  1.00  0.00    -0.308 N 
HETATM    2  C   UNL     1     -41.250 -49.899  11.470  1.00  0.00     0.320 C 
HETATM    3  O   UNL     1     -41.954 -49.750  12.467  1.00  0.00    -0.247 OA
HETATM    4  N   UNL     1     -40.450 -51.021  11.357  1.00  0.00    -0.343 N 
HETATM    5  H   UNL     1     -40.632 -49.350   9.591  1.00  0.00     0.170 HD
HETATM    6  H   UNL     1     -39.606 -50.930  10.813  1.00  0.00     0.164 HD
ENDROOT
BRANCH   1   7
HETATM    7  C   UNL     1     -41.882 -47.800  10.274  1.00  0.00     0.044 A 
HETATM    8  C   UNL     1     -41.318 -46.596  10.723  1.00  0.00    -0.020 A 
HETATM    9  C   UNL     1     -39.973 -46.471  11.373  1.00  0.00     0.052 C 
HETATM   10  C   UNL     1     -42.077 -45.429  10.564  1.00  0.00     0.096 A 
HETATM   11  N   UNL     1     -43.307 -45.370  10.012  1.00  0.00    -0.375 N 
HETATM   12  C   UNL     1     -43.816 -46.534   9.587  1.00  0.00     0.090 A 
ATOM     13  HN  UNL     1     -43.819 -44.492   9.925  1.00  0.00     0.164 HD
HETATM   14  C   UNL     1     -43.158 -47.746   9.701  1.00  0.00     0.047 A 
ENDBRANCH   1   7
BRANCH   4  15
HETATM   15  C   UNL     1     -40.440 -51.905  12.519  1.00  0.00     0.126 C 
BRANCH  15  16
HETATM   16  C   UNL     1     -41.181 -53.224  12.367  1.00  0.00     0.039 C 
BRANCH  16  17
HETATM   17  C   UNL     1     -41.700 -53.771  13.698  1.00  0.00     0.127 C 
BRANCH  17  18
HETATM   18  N   UNL     1     -43.152 -53.792  13.727  1.00  0.00    -0.352 N 
HETATM   19  C   UNL     1     -43.946 -53.061  12.773  1.00  0.00     0.126 C 
HETATM   20  C   UNL     1     -45.365 -53.554  12.980  1.00  0.00     0.029 C 
HETATM   21  C   UNL     1     -45.243 -54.849  13.772  1.00  0.00     0.104 C 
HETATM   22  C   UNL     1     -43.852 -54.818  14.341  1.00  0.00     0.219 C 
HETATM   23  O   UNL     1     -43.398 -55.623  15.138  1.00  0.00    -0.273 OA
ENDBRANCH  17  18
ENDBRANCH  16  17
ENDBRANCH  15  16
ENDBRANCH   4  15
TORSDOF 5
ENDMDL
MODEL 3
REMARK VINA RESULT:      -6.3      3.089      6.815
REMARK  5 active torsions:
REMARK  status: ('A' for Active; 'I' for Inactive)
REMARK    1  A    between atoms: C_8  and  N_9 
REMARK       I    between atoms: N_9  and  C_10 
REMARK       I    between atoms: C_10  and  N_12 
REMARK    2  A    between atoms: N_12  and  C_13 
REMARK    3  A    between atoms: C_13  and  C_14 
REMARK    4  A    between atoms: C_14  and  C_15 
REMARK    5  A    between atoms: C_15  and  N_16 
ROOT
HETATM    1  N   UNL     1     -41.809 -52.765  12.109  1.00  0.00    -0.308 N 
HETATM    2  C   UNL     1     -41.702 -51.386  12.101  1.00  0.00     0.320 C 
HETATM    3  O   UNL     1     -42.384 -50.602  12.758  1.00  0.00    -0.247 OA
HETATM    4  N   UNL     1     -40.714 -50.901  11.265  1.00  0.00    -0.343 N 
HETATM    5  H   UNL     1     -41.101 -53.285  11.602  1.00  0.00     0.170 HD
HETATM    6  H   UNL     1     -40.486 -51.455  10.454  1.00  0.00     0.164 HD
ENDROOT
BRANCH   1   7
HETATM    7  C   UNL     1     -42.763 -53.511  12.874  1.00  0.00     0.044 A 
HETATM    8  C   UNL     1     -42.381 -54.193  14.039  1.00  0.00    -0.020 A 
HETATM    9  C   UNL     1     -40.984 -54.240  14.583  1.00  0.00     0.052 C 
HETATM   10  C   UNL     1     -43.376 -54.892  14.734  1.00  0.00     0.096 A 
HETATM   11  N   UNL     1     -44.674 -54.962  14.373  1.00  0.00    -0.375 N 
HETATM   12  C   UNL     1     -45.010 -54.294  13.261  1.00  0.00     0.090 A 
ATOM     13  HN  UNL     1     -45.359 -55.490  14.915  1.00  0.00     0.164 HD
HETATM   14  C   UNL     1     -44.108 -53.579  12.494  1.00  0.00     0.047 A 
ENDBRANCH   1   7
BRANCH   4  15
HETATM   15  C   UNL     1     -40.636 -49.447  11.161  1.00  0.00     0.126 C 
BRANCH  15  16
HETATM   16  C   UNL     1     -39.412 -48.792  11.780  1.00  0.00     0.039 C 
BRANCH  16  17
HETATM   17  C   UNL     1     -38.210 -49.734  11.861  1.00  0.00     0.127 C 
BRANCH  17  18
HETATM   18  N   UNL     1     -37.928 -50.110  13.236  1.00  0.00    -0.352 N 
HETATM   19  C   UNL     1     -37.671 -49.128  14.258  1.00  0.00     0.126 C 
HETATM   20  C   UNL     1     -37.691 -49.901  15.562  1.00  0.00     0.029 C 
HETATM   21  C   UNL     1     -38.369 -51.227  15.247  1.00  0.00     0.104 C 
HETATM   22  C   UNL     1     -38.316 -51.336  13.749  1.00  0.00     0.219 C 
HETATM   23  O   UNL     1     -38.651 -52.315  13.100  1.00  0.00    -0.273 OA
ENDBRANCH  17  18
ENDBRANCH  16  17
ENDBRANCH  15  16
ENDBRANCH   4  15
TORSDOF 5
ENDMDL
MODEL 4
REMARK VINA RESULT:      -6.2      2.045      7.092
REMARK  5 active torsions:
REMARK  status: ('A' for Active; 'I' for Inactive)
REMARK    1  A    between atoms: C_8  and  N_9 
REMARK       I    between atoms: N_9  and  C_10 
REMARK       I    between atoms: C_10  and  N_12 
REMARK    2  A    between atoms: N_12  and  C_13 
REMARK    3  A    between atoms: C_13  and  C_14 
REMARK    4  A    between atoms: C_14  and  C_15 
REMARK    5  A    between atoms: C_15  and  N_16 
ROOT
HETATM    1  N   UNL     1     -43.739 -52.689  12.122  1.00  0.00    -0.308 N 
HETATM    2  C   UNL     1     -42.499 -52.270  12.567  1.00  0.00     0.320 C 
HETATM    3  O   UNL     1     -42.047 -52.416  13.701  1.00  0.00    -0.247 OA
HETATM    4  N   UNL     1     -41.735 -51.641  11.601  1.00  0.00    -0.343 N 
HETATM    5  H   UNL     1     -43.927 -52.601  11.130  1.00  0.00     0.170 HD
HETATM    6  H   UNL     1     -42.230 -51.153  10.871  1.00  0.00     0.164 HD
ENDROOT
BRANCH   1   7
HETATM    7  C   UNL     1     -44.723 -53.346  12.930  1.00  0.00     0.044 A 
HETATM    8  C   UNL     1     -45.808 -52.638  13.467  1.00  0.00    -0.020 A 
HETATM    9  C   UNL     1     -46.043 -51.168  13.286  1.00  0.00     0.052 C 
HETATM   10  C   UNL     1     -46.730 -53.356  14.240  1.00  0.00     0.096 A 
HETATM   11  N   UNL     1     -46.658 -54.676  14.509  1.00  0.00    -0.375 N 
HETATM   12  C   UNL     1     -45.614 -55.327  13.977  1.00  0.00     0.090 A 
ATOM     13  HN  UNL     1     -47.355 -55.150  15.083  1.00  0.00     0.164 HD
HETATM   14  C   UNL     1     -44.641 -54.716  13.206  1.00  0.00     0.047 A 
ENDBRANCH   1   7
BRANCH   4  15
HETATM   15  C   UNL     1     -40.459 -51.103  12.060  1.00  0.00     0.126 C 
BRANCH  15  16
HETATM   16  C   UNL     1     -40.060 -49.746  11.501  1.00  0.00     0.039 C 
BRANCH  16  17
HETATM   17  C   UNL     1     -40.525 -48.581  12.376  1.00  0.00     0.127 C 
BRANCH  17  18
HETATM   18  N   UNL     1     -41.549 -47.797  11.708  1.00  0.00    -0.352 N 
HETATM   19  C   UNL     1     -41.229 -46.853  10.668  1.00  0.00     0.126 C 
HETATM   20  C   UNL     1     -42.566 -46.459  10.068  1.00  0.00     0.029 C 
HETATM   21  C   UNL     1     -43.556 -47.517  10.533  1.00  0.00     0.104 C 
HETATM   22  C   UNL     1     -42.874 -48.198  11.686  1.00  0.00     0.219 C 
HETATM   23  O   UNL     1     -43.386 -49.033  12.415  1.00  0.00    -0.273 OA
ENDBRANCH  17  18
ENDBRANCH  16  17
ENDBRANCH  15  16
ENDBRANCH   4  15
TORSDOF 5
ENDMDL
MODEL 5
REMARK VINA RESULT:      -6.2      1.606      2.541
REMARK  5 active torsions:
REMARK  status: ('A' for Active; 'I' for Inactive)
REMARK    1  A    between atoms: C_8  and  N_9 
REMARK       I    between atoms: N_9  and  C_10 
REMARK       I    between atoms: C_10  and  N_12 
REMARK    2  A    between atoms: N_12  and  C_13 
REMARK    3  A    between atoms: C_13  and  C_14 
REMARK    4  A    between atoms: C_14  and  C_15 
REMARK    5  A    between atoms: C_15  and  N_16 
ROOT
HETATM    1  N   UNL     1     -41.065 -48.889  10.546  1.00  0.00    -0.308 N 
HETATM    2  C   UNL     1     -41.144 -49.773  11.607  1.00  0.00     0.320 C 
HETATM    3  O   UNL     1     -41.386 -49.483  12.776  1.00  0.00    -0.247 OA
HETATM    4  N   UNL     1     -40.931 -51.094  11.258  1.00  0.00    -0.343 N 
HETATM    5  H   UNL     1     -40.971 -49.288   9.619  1.00  0.00     0.170 HD
HETATM    6  H   UNL     1     -40.333 -51.269  10.465  1.00  0.00     0.164 HD
ENDROOT
BRANCH   1   7
HETATM    7  C   UNL     1     -41.227 -47.469  10.647  1.00  0.00     0.044 A 
HETATM    8  C   UNL     1     -42.470 -46.865  10.409  1.00  0.00    -0.020 A 
HETATM    9  C   UNL     1     -43.716 -47.600  10.013  1.00  0.00     0.052 C 
HETATM   10  C   UNL     1     -42.547 -45.472  10.536  1.00  0.00     0.096 A 
HETATM   11  N   UNL     1     -41.519 -44.664  10.870  1.00  0.00    -0.375 N 
HETATM   12  C   UNL     1     -40.346 -45.271  11.098  1.00  0.00     0.090 A 
ATOM     13  HN  UNL     1     -41.629 -43.653  10.944  1.00  0.00     0.164 HD
HETATM   14  C   UNL     1     -40.156 -46.637  10.994  1.00  0.00     0.047 A 
ENDBRANCH   1   7
BRANCH   4  15
HETATM   15  C   UNL     1     -40.914 -52.043  12.367  1.00  0.00     0.126 C 
BRANCH  15  16
HETATM   16  C   UNL     1     -42.043 -53.061  12.399  1.00  0.00     0.039 C 
BRANCH  16  17
HETATM   17  C   UNL     1     -42.723 -53.153  13.765  1.00  0.00     0.127 C 
BRANCH  17  18
HETATM   18  N   UNL     1     -44.102 -52.699  13.697  1.00  0.00    -0.352 N 
HETATM   19  C   UNL     1     -44.455 -51.309  13.835  1.00  0.00     0.126 C 
HETATM   20  C   UNL     1     -45.918 -51.233  13.445  1.00  0.00     0.029 C 
HETATM   21  C   UNL     1     -46.218 -52.531  12.707  1.00  0.00     0.104 C 
HETATM   22  C   UNL     1     -45.085 -53.448  13.072  1.00  0.00     0.219 C 
HETATM   23  O   UNL     1     -45.011 -54.631  12.778  1.00  0.00    -0.273 OA
ENDBRANCH  17  18
ENDBRANCH  16  17
ENDBRANCH  15  16
ENDBRANCH   4  15
TORSDOF 5
ENDMDL
MODEL 6
REMARK VINA RESULT:      -6.1      3.590      7.171
REMARK  5 active torsions:
REMARK  status: ('A' for Active; 'I' for Inactive)
REMARK    1  A    between atoms: C_8  and  N_9 
REMARK       I    between atoms: N_9  and  C_10 
REMARK       I    between atoms: C_10  and  N_12 
REMARK    2  A    between atoms: N_12  and  C_13 
REMARK    3  A    between atoms: C_13  and  C_14 
REMARK    4  A    between atoms: C_14  and  C_15 
REMARK    5  A    between atoms: C_15  and  N_16 
ROOT
HETATM    1  N   UNL     1     -43.737 -52.789  12.095  1.00  0.00    -0.308 N 
HETATM    2  C   UNL     1     -42.521 -52.320  12.556  1.00  0.00     0.320 C 
HETATM    3  O   UNL     1     -42.109 -52.384  13.712  1.00  0.00    -0.247 OA
HETATM    4  N   UNL     1     -41.731 -51.743  11.578  1.00  0.00    -0.343 N 
HETATM    5  H   UNL     1     -43.890 -52.769  11.093  1.00  0.00     0.170 HD
HETATM    6  H   UNL     1     -42.207 -51.311  10.801  1.00  0.00     0.164 HD
ENDROOT
BRANCH   1   7
HETATM    7  C   UNL     1     -44.740 -53.410  12.909  1.00  0.00     0.044 A 
HETATM    8  C   UNL     1     -45.816 -52.669  13.420  1.00  0.00    -0.020 A 
HETATM    9  C   UNL     1     -46.022 -51.200  13.204  1.00  0.00     0.052 C 
HETATM   10  C   UNL     1     -46.758 -53.352  14.200  1.00  0.00     0.096 A 
HETATM   11  N   UNL     1     -46.713 -54.668  14.500  1.00  0.00    -0.375 N 
HETATM   12  C   UNL     1     -45.677 -55.349  13.992  1.00  0.00     0.090 A 
ATOM     13  HN  UNL     1     -47.424 -55.115  15.078  1.00  0.00     0.164 HD
HETATM   14  C   UNL     1     -44.686 -54.775  13.216  1.00  0.00     0.047 A 
ENDBRANCH   1   7
BRANCH   4  15
HETATM   15  C   UNL     1     -40.481 -51.153  12.047  1.00  0.00     0.126 C 
BRANCH  15  16
HETATM   16  C   UNL     1     -40.087 -49.825  11.420  1.00  0.00     0.039 C 
BRANCH  16  17
HETATM   17  C   UNL     1     -38.574 -49.666  11.265  1.00  0.00     0.127 C 
BRANCH  17  18
HETATM   18  N   UNL     1     -37.920 -49.570  12.559  1.00  0.00    -0.352 N 
HETATM   19  C   UNL     1     -38.273 -48.556  13.519  1.00  0.00     0.126 C 
HETATM   20  C   UNL     1     -37.568 -48.962  14.799  1.00  0.00     0.029 C 
HETATM   21  C   UNL     1     -37.174 -50.421  14.610  1.00  0.00     0.104 C 
HETATM   22  C   UNL     1     -37.273 -50.653  13.129  1.00  0.00     0.219 C 
HETATM   23  O   UNL     1     -36.924 -51.670  12.549  1.00  0.00    -0.273 OA
ENDBRANCH  17  18
ENDBRANCH  16  17
ENDBRANCH  15  16
ENDBRANCH   4  15
TORSDOF 5
ENDMDL
MODEL 7
REMARK VINA RESULT:      -6.0      2.152      3.830
REMARK  5 active torsions:
REMARK  status: ('A' for Active; 'I' for Inactive)
REMARK    1  A    between atoms: C_8  and  N_9 
REMARK       I    between atoms: N_9  and  C_10 
REMARK       I    between atoms: C_10  and  N_12 
REMARK    2  A    between atoms: N_12  and  C_13 
REMARK    3  A    between atoms: C_13  and  C_14 
REMARK    4  A    between atoms: C_14  and  C_15 
REMARK    5  A    between atoms: C_15  and  N_16 
ROOT
HETATM    1  N   UNL     1     -42.120 -50.822  13.474  1.00  0.00    -0.308 N 
HETATM    2  C   UNL     1     -42.385 -52.146  13.179  1.00  0.00     0.320 C 
HETATM    3  O   UNL     1     -42.654 -52.602  12.070  1.00  0.00    -0.247 OA
HETATM    4  N   UNL     1     -42.318 -52.993  14.270  1.00  0.00    -0.343 N 
HETATM    5  H   UNL     1     -41.801 -50.613  14.414  1.00  0.00     0.170 HD
HETATM    6  H   UNL     1     -42.534 -52.596  15.172  1.00  0.00     0.164 HD
ENDROOT
BRANCH   1   7
HETATM    7  C   UNL     1     -42.144 -49.748  12.526  1.00  0.00     0.044 A 
HETATM    8  C   UNL     1     -41.023 -49.459  11.733  1.00  0.00    -0.020 A 
HETATM    9  C   UNL     1     -39.717 -50.192  11.799  1.00  0.00     0.052 C 
HETATM   10  C   UNL     1     -41.131 -48.398  10.824  1.00  0.00     0.096 A 
HETATM   11  N   UNL     1     -42.228 -47.631  10.650  1.00  0.00    -0.375 N 
HETATM   12  C   UNL     1     -43.284 -47.936  11.417  1.00  0.00     0.090 A 
ATOM     13  HN  UNL     1     -42.252 -46.867   9.976  1.00  0.00     0.164 HD
HETATM   14  C   UNL     1     -43.285 -48.957  12.351  1.00  0.00     0.047 A 
ENDBRANCH   1   7
BRANCH   4  15
HETATM   15  C   UNL     1     -42.684 -54.382  14.012  1.00  0.00     0.126 C 
BRANCH  15  16
HETATM   16  C   UNL     1     -43.917 -54.898  14.736  1.00  0.00     0.039 C 
BRANCH  16  17
HETATM   17  C   UNL     1     -45.176 -54.862  13.869  1.00  0.00     0.127 C 
BRANCH  17  18
HETATM   18  N   UNL     1     -45.942 -53.650  14.105  1.00  0.00    -0.352 N 
HETATM   19  C   UNL     1     -46.153 -53.127  15.430  1.00  0.00     0.126 C 
HETATM   20  C   UNL     1     -46.752 -51.749  15.220  1.00  0.00     0.029 C 
HETATM   21  C   UNL     1     -46.471 -51.393  13.766  1.00  0.00     0.104 C 
HETATM   22  C   UNL     1     -46.127 -52.702  13.113  1.00  0.00     0.219 C 
HETATM   23  O   UNL     1     -45.950 -52.868  11.916  1.00  0.00    -0.273 OA
ENDBRANCH  17  18
ENDBRANCH  16  17
ENDBRANCH  15  16
ENDBRANCH   4  15
TORSDOF 5
ENDMDL
MODEL 8
REMARK VINA RESULT:      -5.8      2.099      3.327
REMARK  5 active torsions:
REMARK  status: ('A' for Active; 'I' for Inactive)
REMARK    1  A    between atoms: C_8  and  N_9 
REMARK       I    between atoms: N_9  and  C_10 
REMARK       I    between atoms: C_10  and  N_12 
REMARK    2  A    between atoms: N_12  and  C_13 
REMARK    3  A    between atoms: C_13  and  C_14 
REMARK    4  A    between atoms: C_14  and  C_15 
REMARK    5  A    between atoms: C_15  and  N_16 
ROOT
HETATM    1  N   UNL     1     -42.518 -49.783  11.761  1.00  0.00    -0.308 N 
HETATM    2  C   UNL     1     -42.012 -50.993  12.200  1.00  0.00     0.320 C 
HETATM    3  O   UNL     1     -40.825 -51.273  12.346  1.00  0.00    -0.247 OA
HETATM    4  N   UNL     1     -42.980 -51.935  12.495  1.00  0.00    -0.343 N 
HETATM    5  H   UNL     1     -43.524 -49.661  11.801  1.00  0.00     0.170 HD
HETATM    6  H   UNL     1     -43.849 -51.876  11.986  1.00  0.00     0.164 HD
ENDROOT
BRANCH   1   7
HETATM    7  C   UNL     1     -41.725 -48.653  11.375  1.00  0.00     0.044 A 
HETATM    8  C   UNL     1     -42.272 -47.616  10.605  1.00  0.00    -0.020 A 
HETATM    9  C   UNL     1     -43.682 -47.581  10.097  1.00  0.00     0.052 C 
HETATM   10  C   UNL     1     -41.433 -46.544  10.276  1.00  0.00     0.096 A 
HETATM   11  N   UNL     1     -40.139 -46.428  10.642  1.00  0.00    -0.375 N 
HETATM   12  C   UNL     1     -39.647 -47.431  11.382  1.00  0.00     0.090 A 
ATOM     13  HN  UNL     1     -39.570 -45.626  10.371  1.00  0.00     0.164 HD
HETATM   14  C   UNL     1     -40.384 -48.540  11.758  1.00  0.00     0.047 A 
ENDBRANCH   1   7
BRANCH   4  15
HETATM   15  C   UNL     1     -42.480 -53.254  12.870  1.00  0.00     0.126 C 
BRANCH  15  16
HETATM   16  C   UNL     1     -43.143 -53.909  14.071  1.00  0.00     0.039 C 
BRANCH  16  17
HETATM   17  C   UNL     1     -44.535 -54.460  13.756  1.00  0.00     0.127 C 
BRANCH  17  18
HETATM   18  N   UNL     1     -45.571 -53.506  14.112  1.00  0.00    -0.352 N 
HETATM   19  C   UNL     1     -45.763 -53.057  15.467  1.00  0.00     0.126 C 
HETATM   20  C   UNL     1     -46.737 -51.899  15.366  1.00  0.00     0.029 C 
HETATM   21  C   UNL     1     -46.735 -51.484  13.901  1.00  0.00     0.104 C 
HETATM   22  C   UNL     1     -46.124 -52.649  13.175  1.00  0.00     0.219 C 
HETATM   23  O   UNL     1     -46.049 -52.764  11.961  1.00  0.00    -0.273 OA
ENDBRANCH  17  18
ENDBRANCH  16  17
ENDBRANCH  15  16
ENDBRANCH   4  15
TORSDOF 5
ENDMDL
MODEL 9
REMARK VINA RESULT:      -5.7      3.274      6.136
REMARK  5 active torsions:
REMARK  status: ('A' for Active; 'I' for Inactive)
REMARK    1  A    between atoms: C_8  and  N_9 
REMARK       I    between atoms: N_9  and  C_10 
REMARK       I    between atoms: C_10  and  N_12 
REMARK    2  A    between atoms: N_12  and  C_13 
REMARK    3  A    between atoms: C_13  and  C_14 
REMARK    4  A    between atoms: C_14  and  C_15 
REMARK    5  A    between atoms: C_15  and  N_16 
ROOT
HETATM    1  N   UNL     1     -43.591 -52.322  12.276  1.00  0.00    -0.308 N 
HETATM    2  C   UNL     1     -42.898 -51.259  12.823  1.00  0.00     0.320 C 
HETATM    3  O   UNL     1     -42.962 -50.873  13.988  1.00  0.00    -0.247 OA
HETATM    4  N   UNL     1     -42.061 -50.611  11.932  1.00  0.00    -0.343 N 
HETATM    5  H   UNL     1     -43.349 -52.593  11.329  1.00  0.00     0.170 HD
HETATM    6  H   UNL     1     -42.326 -50.628  10.959  1.00  0.00     0.164 HD
ENDROOT
BRANCH   1   7
HETATM    7  C   UNL     1     -44.532 -53.140  12.982  1.00  0.00     0.044 A 
HETATM    8  C   UNL     1     -45.848 -52.706  13.199  1.00  0.00    -0.020 A 
HETATM    9  C   UNL     1     -46.395 -51.381  12.757  1.00  0.00     0.052 C 
HETATM   10  C   UNL     1     -46.708 -53.568  13.891  1.00  0.00     0.096 A 
HETATM   11  N   UNL     1     -46.371 -54.785  14.367  1.00  0.00    -0.375 N 
HETATM   12  C   UNL     1     -45.109 -55.175  14.139  1.00  0.00     0.090 A 
ATOM     13  HN  UNL     1     -47.036 -55.373  14.869  1.00  0.00     0.164 HD
HETATM   14  C   UNL     1     -44.175 -54.402  13.473  1.00  0.00     0.047 A 
ENDBRANCH   1   7
BRANCH   4  15
HETATM   15  C   UNL     1     -41.385 -49.427  12.452  1.00  0.00     0.126 C 
BRANCH  15  16
HETATM   16  C   UNL     1     -40.001 -49.646  13.040  1.00  0.00     0.039 C 
BRANCH  16  17
HETATM   17  C   UNL     1     -39.321 -50.909  12.511  1.00  0.00     0.127 C 
BRANCH  17  18
HETATM   18  N   UNL     1     -39.276 -51.947  13.527  1.00  0.00    -0.352 N 
HETATM   19  C   UNL     1     -38.848 -51.676  14.875  1.00  0.00     0.126 C 
HETATM   20  C   UNL     1     -39.196 -52.928  15.658  1.00  0.00     0.029 C 
HETATM   21  C   UNL     1     -40.183 -53.698  14.791  1.00  0.00     0.104 C 
HETATM   22  C   UNL     1     -40.030 -53.103  13.420  1.00  0.00     0.219 C 
HETATM   23  O   UNL     1     -40.564 -53.523  12.405  1.00  0.00    -0.273 OA
ENDBRANCH  17  18
ENDBRANCH  16  17
ENDBRANCH  15  16
ENDBRANCH   4  15
TORSDOF 5
ENDMDL
