MODEL 1
REMARK VINA RESULT:      -5.9      0.000      0.000
REMARK  4 active torsions:
REMARK  status: ('A' for Active; 'I' for Inactive)
REMARK    1  A    between atoms: C_5  and  N_6 
REMARK       I    between atoms: N_6  and  C_7 
REMARK       I    between atoms: C_7  and  N_9 
REMARK    2  A    between atoms: N_9  and  C_10 
REMARK    3  A    between atoms: C_10  and  C_11 
REMARK    4  A    between atoms: C_10  and  C_16 
ROOT
HETATM    1  N   UNL     1     -43.562 -47.198  11.617  1.00  0.00    -0.294 N 
HETATM    2  C   UNL     1     -43.101 -48.078  12.564  1.00  0.00     0.322 C 
HETATM    3  O   UNL     1     -42.756 -47.699  13.678  1.00  0.00    -0.247 OA
HETATM    4  N   UNL     1     -43.154 -49.388  12.208  1.00  0.00    -0.329 N 
HETATM    5  H   UNL     1     -43.675 -46.247  11.934  1.00  0.00     0.172 HD
HETATM    6  H   UNL     1     -43.189 -49.514  11.196  1.00  0.00     0.165 HD
ENDROOT
BRANCH   4   7
HETATM    7  C   UNL     1     -42.730 -50.518  13.032  1.00  0.00     0.197 C 
BRANCH   7   8
HETATM    8  C   UNL     1     -43.977 -51.262  13.568  1.00  0.00     0.017 C 
HETATM    9  C   UNL     1     -45.227 -51.215  12.673  1.00  0.00     0.007 C 
HETATM   10  C   UNL     1     -46.429 -51.320  13.613  1.00  0.00     0.000 C 
HETATM   11  C   UNL     1     -45.873 -51.327  15.032  1.00  0.00     0.000 C 
HETATM   12  C   UNL     1     -44.487 -50.718  14.908  1.00  0.00     0.007 C 
ENDBRANCH   7   8
BRANCH   7  13
HETATM   13  C   UNL     1     -41.718 -51.454  12.324  1.00  0.00     0.407 C 
HETATM   14  F   UNL     1     -40.958 -50.798  11.414  1.00  0.00    -0.169 F 
HETATM   15  F   UNL     1     -40.876 -52.028  13.215  1.00  0.00    -0.169 F 
HETATM   16  F   UNL     1     -42.330 -52.465  11.662  1.00  0.00    -0.169 F 
ENDBRANCH   7  13
ENDBRANCH   4   7
BRANCH   1  17
HETATM   17  C   UNL     1     -43.938 -47.507  10.324  1.00  0.00     0.125 A 
HETATM   18  C   UNL     1     -43.117 -47.408   9.177  1.00  0.00     0.069 A 
HETATM   19  C   UNL     1     -43.922 -47.776   8.122  1.00  0.00     0.113 A 
HETATM   20  N   UNL     1     -45.121 -48.110   8.671  1.00  0.00    -0.306 N 
HETATM   21  C   UNL     1     -46.301 -48.598   7.998  1.00  0.00     0.177 C 
HETATM   22  N   UNL     1     -45.162 -47.941   9.998  1.00  0.00    -0.284 N 
ATOM     23  HN  UNL     1     -45.951 -48.107  10.624  1.00  0.00     0.188 HD
ENDBRANCH   1  17
TORSDOF 4
ENDMDL
MODEL 2
REMARK VINA RESULT:      -5.9      1.671      2.248
REMARK  4 active torsions:
REMARK  status: ('A' for Active; 'I' for Inactive)
REMARK    1  A    between atoms: C_5  and  N_6 
REMARK       I    between atoms: N_6  and  C_7 
REMARK       I    between atoms: C_7  and  N_9 
REMARK    2  A    between atoms: N_9  and  C_10 
REMARK    3  A    between atoms: C_10  and  C_11 
REMARK    4  A    between atoms: C_10  and  C_16 
ROOT
HETATM    1  N   UNL     1     -41.381 -48.532  11.762  1.00  0.00    -0.294 N 
HETATM    2  C   UNL     1     -41.452 -49.632  12.579  1.00  0.00     0.322 C 
HETATM    3  O   UNL     1     -40.539 -49.921  13.345  1.00  0.00    -0.247 OA
HETATM    4  N   UNL     1     -42.633 -50.302  12.543  1.00  0.00    -0.329 N 
HETATM    5  H   UNL     1     -40.574 -47.943  11.903  1.00  0.00     0.172 HD
HETATM    6  H   UNL     1     -43.156 -50.120  11.687  1.00  0.00     0.165 HD
ENDROOT
BRANCH   4   7
HETATM    7  C   UNL     1     -42.964 -51.498  13.316  1.00  0.00     0.197 C 
BRANCH   7   8
HETATM    8  C   UNL     1     -44.331 -51.297  14.015  1.00  0.00     0.017 C 
HETATM    9  C   UNL     1     -44.746 -52.393  15.011  1.00  0.00     0.007 C 
HETATM   10  C   UNL     1     -46.276 -52.418  15.006  1.00  0.00     0.000 C 
HETATM   11  C   UNL     1     -46.724 -51.418  13.948  1.00  0.00     0.000 C 
HETATM   12  C   UNL     1     -45.516 -51.244  13.042  1.00  0.00     0.007 C 
ENDBRANCH   7   8
BRANCH   7  13
HETATM   13  C   UNL     1     -42.886 -52.807  12.491  1.00  0.00     0.407 C 
HETATM   14  F   UNL     1     -44.072 -53.129  11.920  1.00  0.00    -0.169 F 
HETATM   15  F   UNL     1     -41.973 -52.706  11.497  1.00  0.00    -0.169 F 
HETATM   16  F   UNL     1     -42.519 -53.869  13.248  1.00  0.00    -0.169 F 
ENDBRANCH   7  13
ENDBRANCH   4   7
BRANCH   1  17
HETATM   17  C   UNL     1     -42.327 -48.136  10.836  1.00  0.00     0.125 A 
HETATM   18  C   UNL     1     -43.544 -47.479  11.125  1.00  0.00     0.069 A 
HETATM   19  C   UNL     1     -44.172 -47.325   9.908  1.00  0.00     0.113 A 
HETATM   20  N   UNL     1     -43.313 -47.832   8.983  1.00  0.00    -0.306 N 
HETATM   21  C   UNL     1     -43.477 -47.880   7.550  1.00  0.00     0.177 C 
HETATM   22  N   UNL     1     -42.197 -48.342   9.519  1.00  0.00    -0.284 N 
ATOM     23  HN  UNL     1     -41.420 -48.789   9.032  1.00  0.00     0.188 HD
ENDBRANCH   1  17
TORSDOF 4
ENDMDL
MODEL 3
REMARK VINA RESULT:      -5.8      5.025      6.639
REMARK  4 active torsions:
REMARK  status: ('A' for Active; 'I' for Inactive)
REMARK    1  A    between atoms: C_5  and  N_6 
REMARK       I    between atoms: N_6  and  C_7 
REMARK       I    between atoms: C_7  and  N_9 
REMARK    2  A    between atoms: N_9  and  C_10 
REMARK    3  A    between atoms: C_10  and  C_11 
REMARK    4  A    between atoms: C_10  and  C_16 
ROOT
HETATM    1  N   UNL     1     -44.086 -55.130  14.775  1.00  0.00    -0.294 N 
HETATM    2  C   UNL     1     -45.295 -54.557  14.469  1.00  0.00     0.322 C 
HETATM    3  O   UNL     1     -46.319 -55.228  14.387  1.00  0.00    -0.247 OA
HETATM    4  N   UNL     1     -45.284 -53.203  14.368  1.00  0.00    -0.329 N 
HETATM    5  H   UNL     1     -44.121 -56.110  15.009  1.00  0.00     0.172 HD
HETATM    6  H   UNL     1     -44.350 -52.836  14.183  1.00  0.00     0.165 HD
ENDROOT
BRANCH   4   7
HETATM    7  C   UNL     1     -46.434 -52.357  14.057  1.00  0.00     0.197 C 
BRANCH   7   8
HETATM    8  C   UNL     1     -46.593 -51.278  15.156  1.00  0.00     0.017 C 
HETATM    9  C   UNL     1     -45.318 -50.918  15.936  1.00  0.00     0.007 C 
HETATM   10  C   UNL     1     -45.778 -50.470  17.325  1.00  0.00     0.000 C 
HETATM   11  C   UNL     1     -47.288 -50.669  17.367  1.00  0.00     0.000 C 
HETATM   12  C   UNL     1     -47.579 -51.672  16.263  1.00  0.00     0.007 C 
ENDBRANCH   7   8
BRANCH   7  13
HETATM   13  C   UNL     1     -46.399 -51.768  12.624  1.00  0.00     0.407 C 
HETATM   14  F   UNL     1     -47.579 -51.207  12.267  1.00  0.00    -0.169 F 
HETATM   15  F   UNL     1     -45.447 -50.811  12.512  1.00  0.00    -0.169 F 
HETATM   16  F   UNL     1     -46.117 -52.707  11.690  1.00  0.00    -0.169 F 
ENDBRANCH   7  13
ENDBRANCH   4   7
BRANCH   1  17
HETATM   17  C   UNL     1     -42.868 -54.480  14.853  1.00  0.00     0.125 A 
HETATM   18  C   UNL     1     -42.239 -54.042  16.040  1.00  0.00     0.069 A 
HETATM   19  C   UNL     1     -41.081 -53.419  15.629  1.00  0.00     0.113 A 
HETATM   20  N   UNL     1     -41.051 -53.553  14.275  1.00  0.00    -0.306 N 
HETATM   21  C   UNL     1     -40.028 -53.105  13.361  1.00  0.00     0.177 C 
HETATM   22  N   UNL     1     -42.127 -54.177  13.780  1.00  0.00    -0.284 N 
ATOM     23  HN  UNL     1     -42.337 -54.377  12.802  1.00  0.00     0.188 HD
ENDBRANCH   1  17
TORSDOF 4
ENDMDL
MODEL 4
REMARK VINA RESULT:      -5.8      4.305      5.478
REMARK  4 active torsions:
REMARK  status: ('A' for Active; 'I' for Inactive)
REMARK    1  A    between atoms: C_5  and  N_6 
REMARK       I    between atoms: N_6  and  C_7 
REMARK       I    between atoms: C_7  and  N_9 
REMARK    2  A    between atoms: N_9  and  C_10 
REMARK    3  A    between atoms: C_10  and  C_11 
REMARK    4  A    between atoms: C_10  and  C_16 
ROOT
HETATM    1  N   UNL     1     -42.458 -53.726  12.305  1.00  0.00    -0.294 N 
HETATM    2  C   UNL     1     -43.728 -53.663  12.820  1.00  0.00     0.322 C 
HETATM    3  O   UNL     1     -44.560 -54.532  12.581  1.00  0.00    -0.247 OA
HETATM    4  N   UNL     1     -43.952 -52.635  13.679  1.00  0.00    -0.329 N 
HETATM    5  H   UNL     1     -42.241 -54.571  11.799  1.00  0.00     0.172 HD
HETATM    6  H   UNL     1     -43.286 -51.872  13.553  1.00  0.00     0.165 HD
ENDROOT
BRANCH   4   7
HETATM    7  C   UNL     1     -45.212 -52.348  14.363  1.00  0.00     0.197 C 
BRANCH   7   8
HETATM    8  C   UNL     1     -44.919 -51.634  15.705  1.00  0.00     0.017 C 
HETATM    9  C   UNL     1     -46.137 -51.357  16.601  1.00  0.00     0.007 C 
HETATM   10  C   UNL     1     -45.794 -50.106  17.413  1.00  0.00     0.000 C 
HETATM   11  C   UNL     1     -44.439 -49.621  16.913  1.00  0.00     0.000 C 
HETATM   12  C   UNL     1     -44.287 -50.247  15.537  1.00  0.00     0.007 C 
ENDBRANCH   7   8
BRANCH   7  13
HETATM   13  C   UNL     1     -46.236 -51.591  13.480  1.00  0.00     0.407 C 
HETATM   14  F   UNL     1     -47.179 -50.953  14.214  1.00  0.00    -0.169 F 
HETATM   15  F   UNL     1     -45.624 -50.659  12.711  1.00  0.00    -0.169 F 
HETATM   16  F   UNL     1     -46.896 -52.418  12.635  1.00  0.00    -0.169 F 
ENDBRANCH   7  13
ENDBRANCH   4   7
BRANCH   1  17
HETATM   17  C   UNL     1     -41.457 -52.788  12.473  1.00  0.00     0.125 A 
HETATM   18  C   UNL     1     -40.514 -52.764  13.526  1.00  0.00     0.069 A 
HETATM   19  C   UNL     1     -39.752 -51.637  13.305  1.00  0.00     0.113 A 
HETATM   20  N   UNL     1     -40.226 -51.092  12.152  1.00  0.00    -0.306 N 
HETATM   21  C   UNL     1     -39.747 -49.918  11.462  1.00  0.00     0.177 C 
HETATM   22  N   UNL     1     -41.266 -51.760  11.637  1.00  0.00    -0.284 N 
ATOM     23  HN  UNL     1     -41.795 -51.535  10.795  1.00  0.00     0.188 HD
ENDBRANCH   1  17
TORSDOF 4
ENDMDL
MODEL 5
REMARK VINA RESULT:      -5.7      4.381      5.830
REMARK  4 active torsions:
REMARK  status: ('A' for Active; 'I' for Inactive)
REMARK    1  A    between atoms: C_5  and  N_6 
REMARK       I    between atoms: N_6  and  C_7 
REMARK       I    between atoms: C_7  and  N_9 
REMARK    2  A    between atoms: N_9  and  C_10 
REMARK    3  A    between atoms: C_10  and  C_11 
REMARK    4  A    between atoms: C_10  and  C_16 
ROOT
HETATM    1  N   UNL     1     -43.235 -53.825  12.266  1.00  0.00    -0.294 N 
HETATM    2  C   UNL     1     -44.380 -53.816  13.024  1.00  0.00     0.322 C 
HETATM    3  O   UNL     1     -45.298 -54.599  12.806  1.00  0.00    -0.247 OA
HETATM    4  N   UNL     1     -44.370 -52.956  14.075  1.00  0.00    -0.329 N 
HETATM    5  H   UNL     1     -43.174 -54.569  11.589  1.00  0.00     0.172 HD
HETATM    6  H   UNL     1     -43.689 -52.205  13.956  1.00  0.00     0.165 HD
ENDROOT
BRANCH   4   7
HETATM    7  C   UNL     1     -45.457 -52.758  15.032  1.00  0.00     0.197 C 
BRANCH   7   8
HETATM    8  C   UNL     1     -44.939 -53.031  16.465  1.00  0.00     0.017 C 
HETATM    9  C   UNL     1     -43.541 -53.664  16.567  1.00  0.00     0.007 C 
HETATM   10  C   UNL     1     -43.534 -54.478  17.862  1.00  0.00     0.000 C 
HETATM   11  C   UNL     1     -44.941 -54.390  18.439  1.00  0.00     0.000 C 
HETATM   12  C   UNL     1     -45.820 -54.002  17.261  1.00  0.00     0.007 C 
ENDBRANCH   7   8
BRANCH   7  13
HETATM   13  C   UNL     1     -46.164 -51.387  14.889  1.00  0.00     0.407 C 
HETATM   14  F   UNL     1     -45.360 -50.353  15.233  1.00  0.00    -0.169 F 
HETATM   15  F   UNL     1     -46.571 -51.177  13.615  1.00  0.00    -0.169 F 
HETATM   16  F   UNL     1     -47.268 -51.295  15.669  1.00  0.00    -0.169 F 
ENDBRANCH   7  13
ENDBRANCH   4   7
BRANCH   1  17
HETATM   17  C   UNL     1     -42.160 -52.966  12.396  1.00  0.00     0.125 A 
HETATM   18  C   UNL     1     -41.012 -53.191  13.189  1.00  0.00     0.069 A 
HETATM   19  C   UNL     1     -40.241 -52.059  13.041  1.00  0.00     0.113 A 
HETATM   20  N   UNL     1     -40.915 -51.266  12.165  1.00  0.00    -0.306 N 
HETATM   21  C   UNL     1     -40.517 -49.979  11.645  1.00  0.00     0.177 C 
HETATM   22  N   UNL     1     -42.085 -51.784  11.771  1.00  0.00    -0.284 N 
ATOM     23  HN  UNL     1     -42.768 -51.370  11.137  1.00  0.00     0.188 HD
ENDBRANCH   1  17
TORSDOF 4
ENDMDL
MODEL 6
REMARK VINA RESULT:      -5.7      2.332      3.566
REMARK  4 active torsions:
REMARK  status: ('A' for Active; 'I' for Inactive)
REMARK    1  A    between atoms: C_5  and  N_6 
REMARK       I    between atoms: N_6  and  C_7 
REMARK       I    between atoms: C_7  and  N_9 
REMARK    2  A    between atoms: N_9  and  C_10 
REMARK    3  A    between atoms: C_10  and  C_11 
REMARK    4  A    between atoms: C_10  and  C_16 
ROOT
HETATM    1  N   UNL     1     -41.630 -50.245  13.015  1.00  0.00    -0.294 N 
HETATM    2  C   UNL     1     -42.347 -51.302  13.517  1.00  0.00     0.322 C 
HETATM    3  O   UNL     1     -41.795 -52.242  14.080  1.00  0.00    -0.247 OA
HETATM    4  N   UNL     1     -43.698 -51.176  13.431  1.00  0.00    -0.329 N 
HETATM    5  H   UNL     1     -40.643 -50.260  13.221  1.00  0.00     0.172 HD
HETATM    6  H   UNL     1     -43.980 -50.510  12.712  1.00  0.00     0.165 HD
ENDROOT
BRANCH   4   7
HETATM    7  C   UNL     1     -44.681 -52.154  13.892  1.00  0.00     0.197 C 
BRANCH   7   8
HETATM    8  C   UNL     1     -45.776 -51.434  14.716  1.00  0.00     0.017 C 
HETATM    9  C   UNL     1     -45.294 -50.692  15.974  1.00  0.00     0.007 C 
HETATM   10  C   UNL     1     -46.468 -50.708  16.955  1.00  0.00     0.000 C 
HETATM   11  C   UNL     1     -47.568 -51.535  16.304  1.00  0.00     0.000 C 
HETATM   12  C   UNL     1     -46.854 -52.379  15.261  1.00  0.00     0.007 C 
ENDBRANCH   7   8
BRANCH   7  13
HETATM   13  C   UNL     1     -45.254 -53.038  12.756  1.00  0.00     0.407 C 
HETATM   14  F   UNL     1     -46.291 -52.447  12.116  1.00  0.00    -0.169 F 
HETATM   15  F   UNL     1     -44.309 -53.312  11.826  1.00  0.00    -0.169 F 
HETATM   16  F   UNL     1     -45.707 -54.230  13.211  1.00  0.00    -0.169 F 
ENDBRANCH   7  13
ENDBRANCH   4   7
BRANCH   1  17
HETATM   17  C   UNL     1     -42.141 -49.159  12.331  1.00  0.00     0.125 A 
HETATM   18  C   UNL     1     -42.638 -47.972  12.914  1.00  0.00     0.069 A 
HETATM   19  C   UNL     1     -43.073 -47.202  11.858  1.00  0.00     0.113 A 
HETATM   20  N   UNL     1     -42.782 -47.916  10.737  1.00  0.00    -0.306 N 
HETATM   21  C   UNL     1     -43.002 -47.539   9.361  1.00  0.00     0.177 C 
HETATM   22  N   UNL     1     -42.232 -49.109  10.996  1.00  0.00    -0.284 N 
ATOM     23  HN  UNL     1     -41.946 -49.822  10.325  1.00  0.00     0.188 HD
ENDBRANCH   1  17
TORSDOF 4
ENDMDL
MODEL 7
REMARK VINA RESULT:      -5.6      4.390      6.440
REMARK  4 active torsions:
REMARK  status: ('A' for Active; 'I' for Inactive)
REMARK    1  A    between atoms: C_5  and  N_6 
REMARK       I    between atoms: N_6  and  C_7 
REMARK       I    between atoms: C_7  and  N_9 
REMARK    2  A    between atoms: N_9  and  C_10 
REMARK    3  A    between atoms: C_10  and  C_11 
REMARK    4  A    between atoms: C_10  and  C_16 
ROOT
HETATM    1  N   UNL     1     -41.491 -49.106  10.356  1.00  0.00    -0.294 N 
HETATM    2  C   UNL     1     -41.747 -47.759  10.325  1.00  0.00     0.322 C 
HETATM    3  O   UNL     1     -42.562 -47.279   9.543  1.00  0.00    -0.247 OA
HETATM    4  N   UNL     1     -41.113 -47.028  11.279  1.00  0.00    -0.329 N 
HETATM    5  H   UNL     1     -42.078 -49.669   9.760  1.00  0.00     0.172 HD
HETATM    6  H   UNL     1     -40.289 -47.502  11.647  1.00  0.00     0.165 HD
ENDROOT
BRANCH   4   7
HETATM    7  C   UNL     1     -41.219 -45.582  11.462  1.00  0.00     0.197 C 
BRANCH   7   8
HETATM    8  C   UNL     1     -41.617 -45.276  12.927  1.00  0.00     0.017 C 
HETATM    9  C   UNL     1     -42.565 -46.287  13.593  1.00  0.00     0.007 C 
HETATM   10  C   UNL     1     -43.365 -45.501  14.634  1.00  0.00     0.000 C 
HETATM   11  C   UNL     1     -42.948 -44.043  14.492  1.00  0.00     0.000 C 
HETATM   12  C   UNL     1     -42.355 -43.942  13.097  1.00  0.00     0.007 C 
ENDBRANCH   7   8
BRANCH   7  13
HETATM   13  C   UNL     1     -39.962 -44.806  10.996  1.00  0.00     0.407 C 
HETATM   14  F   UNL     1     -39.301 -45.444  10.001  1.00  0.00    -0.169 F 
HETATM   15  F   UNL     1     -40.288 -43.574  10.540  1.00  0.00    -0.169 F 
HETATM   16  F   UNL     1     -39.070 -44.624  11.999  1.00  0.00    -0.169 F 
ENDBRANCH   7  13
ENDBRANCH   4   7
BRANCH   1  17
HETATM   17  C   UNL     1     -40.569 -49.747  11.163  1.00  0.00     0.125 A 
HETATM   18  C   UNL     1     -40.855 -50.422  12.372  1.00  0.00     0.069 A 
HETATM   19  C   UNL     1     -39.635 -50.860  12.840  1.00  0.00     0.113 A 
HETATM   20  N   UNL     1     -38.724 -50.484  11.902  1.00  0.00    -0.306 N 
HETATM   21  C   UNL     1     -37.302 -50.734  11.896  1.00  0.00     0.177 C 
HETATM   22  N   UNL     1     -39.260 -49.797  10.886  1.00  0.00    -0.284 N 
ATOM     23  HN  UNL     1     -38.778 -49.399  10.080  1.00  0.00     0.188 HD
ENDBRANCH   1  17
TORSDOF 4
ENDMDL
MODEL 8
REMARK VINA RESULT:      -5.6      4.415      6.119
REMARK  4 active torsions:
REMARK  status: ('A' for Active; 'I' for Inactive)
REMARK    1  A    between atoms: C_5  and  N_6 
REMARK       I    between atoms: N_6  and  C_7 
REMARK       I    between atoms: C_7  and  N_9 
REMARK    2  A    between atoms: N_9  and  C_10 
REMARK    3  A    between atoms: C_10  and  C_11 
REMARK    4  A    between atoms: C_10  and  C_16 
ROOT
HETATM    1  N   UNL     1     -43.166 -53.017  11.837  1.00  0.00    -0.294 N 
HETATM    2  C   UNL     1     -43.752 -53.810  12.792  1.00  0.00     0.322 C 
HETATM    3  O   UNL     1     -44.732 -54.502  12.537  1.00  0.00    -0.247 OA
HETATM    4  N   UNL     1     -43.110 -53.842  13.989  1.00  0.00    -0.329 N 
HETATM    5  H   UNL     1     -43.543 -53.115  10.907  1.00  0.00     0.172 HD
HETATM    6  H   UNL     1     -42.510 -53.030  14.128  1.00  0.00     0.165 HD
ENDROOT
BRANCH   4   7
HETATM    7  C   UNL     1     -43.525 -54.607  15.163  1.00  0.00     0.197 C 
BRANCH   7   8
HETATM    8  C   UNL     1     -42.293 -54.880  16.061  1.00  0.00     0.017 C 
HETATM    9  C   UNL     1     -40.923 -54.569  15.438  1.00  0.00     0.007 C 
HETATM   10  C   UNL     1     -39.926 -55.522  16.100  1.00  0.00     0.000 C 
HETATM   11  C   UNL     1     -40.735 -56.431  17.015  1.00  0.00     0.000 C 
HETATM   12  C   UNL     1     -42.158 -56.347  16.486  1.00  0.00     0.007 C 
ENDBRANCH   7   8
BRANCH   7  13
HETATM   13  C   UNL     1     -44.710 -53.968  15.930  1.00  0.00     0.407 C 
HETATM   14  F   UNL     1     -44.761 -52.623  15.775  1.00  0.00    -0.169 F 
HETATM   15  F   UNL     1     -45.894 -54.469  15.506  1.00  0.00    -0.169 F 
HETATM   16  F   UNL     1     -44.645 -54.202  17.262  1.00  0.00    -0.169 F 
ENDBRANCH   7  13
ENDBRANCH   4   7
BRANCH   1  17
HETATM   17  C   UNL     1     -42.090 -52.171  12.022  1.00  0.00     0.125 A 
HETATM   18  C   UNL     1     -40.761 -52.568  12.294  1.00  0.00     0.069 A 
HETATM   19  C   UNL     1     -40.054 -51.395  12.441  1.00  0.00     0.113 A 
HETATM   20  N   UNL     1     -40.947 -50.395  12.212  1.00  0.00    -0.306 N 
HETATM   21  C   UNL     1     -40.705 -48.972  12.208  1.00  0.00     0.177 C 
HETATM   22  N   UNL     1     -42.187 -50.836  11.971  1.00  0.00    -0.284 N 
ATOM     23  HN  UNL     1     -43.023 -50.279  11.790  1.00  0.00     0.188 HD
ENDBRANCH   1  17
TORSDOF 4
ENDMDL
MODEL 9
REMARK VINA RESULT:      -5.3      4.291      6.085
REMARK  4 active torsions:
REMARK  status: ('A' for Active; 'I' for Inactive)
REMARK    1  A    between atoms: C_5  and  N_6 
REMARK       I    between atoms: N_6  and  C_7 
REMARK       I    between atoms: C_7  and  N_9 
REMARK    2  A    between atoms: N_9  and  C_10 
REMARK    3  A    between atoms: C_10  and  C_11 
REMARK    4  A    between atoms: C_10  and  C_16 
ROOT
HETATM    1  N   UNL     1     -42.118 -46.774   9.464  1.00  0.00    -0.294 N 
HETATM    2  C   UNL     1     -41.478 -46.332  10.595  1.00  0.00     0.322 C 
HETATM    3  O   UNL     1     -40.262 -46.427  10.721  1.00  0.00    -0.247 OA
HETATM    4  N   UNL     1     -42.273 -45.704  11.500  1.00  0.00    -0.329 N 
HETATM    5  H   UNL     1     -41.512 -47.093   8.725  1.00  0.00     0.172 HD
HETATM    6  H   UNL     1     -43.256 -45.952  11.391  1.00  0.00     0.165 HD
ENDROOT
BRANCH   4   7
HETATM    7  C   UNL     1     -41.839 -45.141  12.778  1.00  0.00     0.197 C 
BRANCH   7   8
HETATM    8  C   UNL     1     -41.791 -43.598  12.671  1.00  0.00     0.017 C 
HETATM    9  C   UNL     1     -42.715 -42.966  11.617  1.00  0.00     0.007 C 
HETATM   10  C   UNL     1     -42.035 -41.668  11.175  1.00  0.00     0.000 C 
HETATM   11  C   UNL     1     -40.694 -41.613  11.895  1.00  0.00     0.000 C 
HETATM   12  C   UNL     1     -40.408 -43.052  12.295  1.00  0.00     0.007 C 
ENDBRANCH   7   8
BRANCH   7  13
HETATM   13  C   UNL     1     -42.666 -45.645  13.987  1.00  0.00     0.407 C 
HETATM   14  F   UNL     1     -43.514 -46.647  13.652  1.00  0.00    -0.169 F 
HETATM   15  F   UNL     1     -41.860 -46.109  14.972  1.00  0.00    -0.169 F 
HETATM   16  F   UNL     1     -43.422 -44.664  14.536  1.00  0.00    -0.169 F 
ENDBRANCH   7  13
ENDBRANCH   4   7
BRANCH   1  17
HETATM   17  C   UNL     1     -43.480 -46.755   9.233  1.00  0.00     0.125 A 
HETATM   18  C   UNL     1     -44.255 -45.609   8.942  1.00  0.00     0.069 A 
HETATM   19  C   UNL     1     -45.551 -46.064   8.833  1.00  0.00     0.113 A 
HETATM   20  N   UNL     1     -45.484 -47.411   9.008  1.00  0.00    -0.306 N 
HETATM   21  C   UNL     1     -46.563 -48.369   8.952  1.00  0.00     0.177 C 
HETATM   22  N   UNL     1     -44.247 -47.852   9.266  1.00  0.00    -0.284 N 
ATOM     23  HN  UNL     1     -43.952 -48.812   9.449  1.00  0.00     0.188 HD
ENDBRANCH   1  17
TORSDOF 4
ENDMDL
