MODEL 1
REMARK VINA RESULT:      -5.1      0.000      0.000
REMARK  2 active torsions:
REMARK  status: ('A' for Active; 'I' for Inactive)
REMARK       I    between atoms: C_2  and  N_3 
REMARK       I    between atoms: C_2  and  N_10 
REMARK    1  A    between atoms: N_3  and  C_4 
REMARK    2  A    between atoms: N_10  and  C_11 
ROOT
HETATM    1  O   UNL     1     -43.098 -48.320  13.322  1.00  0.00    -0.247 OA
HETATM    2  C   UNL     1     -43.031 -49.192  12.469  1.00  0.00     0.321 C 
HETATM    3  N   UNL     1     -43.497 -50.477  12.647  1.00  0.00    -0.338 N 
HETATM    4  N   UNL     1     -42.564 -49.035  11.183  1.00  0.00    -0.301 N 
HETATM    5  H   UNL     1     -42.849 -51.169  12.279  1.00  0.00     0.164 HD
HETATM    6  H   UNL     1     -42.973 -49.640  10.487  1.00  0.00     0.171 HD
ENDROOT
BRANCH   3   7
HETATM    7  C   UNL     1     -44.251 -50.868  13.840  1.00  0.00     0.087 C 
HETATM    8  C   UNL     1     -43.478 -51.931  14.631  1.00  0.00     0.035 C 
HETATM    9  C   UNL     1     -43.280 -53.237  13.870  1.00  0.00     0.076 C 
HETATM   10  S   UNL     1     -44.857 -54.024  13.431  1.00  0.00    -0.169 SA
HETATM   11  C   UNL     1     -45.664 -52.619  12.613  1.00  0.00     0.076 C 
HETATM   12  C   UNL     1     -45.664 -51.371  13.489  1.00  0.00     0.035 C 
ENDBRANCH   3   7
BRANCH   4  13
HETATM   13  C   UNL     1     -42.082 -47.822  10.757  1.00  0.00     0.108 A 
HETATM   14  C   UNL     1     -40.872 -47.173  10.849  1.00  0.00     0.142 A 
HETATM   15  N   UNL     1     -40.853 -45.901  10.293  1.00  0.00    -0.301 N 
HETATM   16  N   UNL     1     -42.031 -45.572   9.783  1.00  0.00    -0.060 NA
ATOM     17  HN  UNL     1     -40.033 -45.295  10.278  1.00  0.00     0.182 HD
HETATM   18  S   UNL     1     -43.164 -46.800   9.925  1.00  0.00     0.019 SA
ENDBRANCH   4  13
TORSDOF 2
ENDMDL
MODEL 2
REMARK VINA RESULT:      -5.1      2.339      2.803
REMARK  2 active torsions:
REMARK  status: ('A' for Active; 'I' for Inactive)
REMARK       I    between atoms: C_2  and  N_3 
REMARK       I    between atoms: C_2  and  N_10 
REMARK    1  A    between atoms: N_3  and  C_4 
REMARK    2  A    between atoms: N_10  and  C_11 
ROOT
HETATM    1  O   UNL     1     -43.190 -47.770  12.484  1.00  0.00    -0.247 OA
HETATM    2  C   UNL     1     -42.826 -48.529  11.598  1.00  0.00     0.321 C 
HETATM    3  N   UNL     1     -42.229 -49.750  11.831  1.00  0.00    -0.338 N 
HETATM    4  N   UNL     1     -43.011 -48.347  10.246  1.00  0.00    -0.301 N 
HETATM    5  H   UNL     1     -41.441 -49.910  11.208  1.00  0.00     0.164 HD
HETATM    6  H   UNL     1     -43.099 -49.187   9.694  1.00  0.00     0.171 HD
ENDROOT
BRANCH   3   7
HETATM    7  C   UNL     1     -42.110 -50.308  13.180  1.00  0.00     0.087 C 
HETATM    8  C   UNL     1     -40.645 -50.640  13.489  1.00  0.00     0.035 C 
HETATM    9  C   UNL     1     -40.058 -51.719  12.586  1.00  0.00     0.076 C 
HETATM   10  S   UNL     1     -40.945 -53.297  12.732  1.00  0.00    -0.169 SA
HETATM   11  C   UNL     1     -42.637 -52.706  12.444  1.00  0.00     0.076 C 
HETATM   12  C   UNL     1     -43.002 -51.550  13.368  1.00  0.00     0.035 C 
ENDBRANCH   3   7
BRANCH   4  13
HETATM   13  C   UNL     1     -43.625 -47.214   9.770  1.00  0.00     0.108 A 
HETATM   14  C   UNL     1     -44.867 -46.931   9.248  1.00  0.00     0.142 A 
HETATM   15  N   UNL     1     -45.040 -45.614   8.846  1.00  0.00    -0.301 N 
HETATM   16  N   UNL     1     -43.948 -44.892   9.052  1.00  0.00    -0.060 NA
ATOM     17  HN  UNL     1     -45.902 -45.247   8.443  1.00  0.00     0.182 HD
HETATM   18  S   UNL     1     -42.715 -45.773   9.770  1.00  0.00     0.019 SA
ENDBRANCH   4  13
TORSDOF 2
ENDMDL
MODEL 3
REMARK VINA RESULT:      -4.7      2.504      6.670
REMARK  2 active torsions:
REMARK  status: ('A' for Active; 'I' for Inactive)
REMARK       I    between atoms: C_2  and  N_3 
REMARK       I    between atoms: C_2  and  N_10 
REMARK    1  A    between atoms: N_3  and  C_4 
REMARK    2  A    between atoms: N_10  and  C_11 
ROOT
HETATM    1  O   UNL     1     -43.878 -50.983  14.736  1.00  0.00    -0.247 OA
HETATM    2  C   UNL     1     -44.087 -50.892  13.535  1.00  0.00     0.321 C 
HETATM    3  N   UNL     1     -43.547 -49.906  12.735  1.00  0.00    -0.338 N 
HETATM    4  N   UNL     1     -44.813 -51.774  12.768  1.00  0.00    -0.301 N 
HETATM    5  H   UNL     1     -44.232 -49.532  12.083  1.00  0.00     0.164 HD
HETATM    6  H   UNL     1     -44.534 -51.854  11.802  1.00  0.00     0.171 HD
ENDROOT
BRANCH   3   7
HETATM    7  C   UNL     1     -42.550 -48.960  13.241  1.00  0.00     0.087 C 
HETATM    8  C   UNL     1     -43.008 -47.519  12.980  1.00  0.00     0.035 C 
HETATM    9  C   UNL     1     -43.133 -47.175  11.500  1.00  0.00     0.076 C 
HETATM   10  S   UNL     1     -41.553 -47.340  10.619  1.00  0.00    -0.169 SA
HETATM   11  C   UNL     1     -41.120 -49.031  11.115  1.00  0.00     0.076 C 
HETATM   12  C   UNL     1     -41.159 -49.209  12.629  1.00  0.00     0.035 C 
ENDBRANCH   3   7
BRANCH   4  13
HETATM   13  C   UNL     1     -45.417 -52.867  13.341  1.00  0.00     0.108 A 
HETATM   14  C   UNL     1     -46.598 -53.080  14.014  1.00  0.00     0.142 A 
HETATM   15  N   UNL     1     -46.781 -54.379  14.466  1.00  0.00    -0.301 N 
HETATM   16  N   UNL     1     -45.755 -55.156  14.151  1.00  0.00    -0.060 NA
ATOM     17  HN  UNL     1     -47.604 -54.697  14.978  1.00  0.00     0.182 HD
HETATM   18  S   UNL     1     -44.578 -54.349  13.270  1.00  0.00     0.019 SA
ENDBRANCH   4  13
TORSDOF 2
ENDMDL
MODEL 4
REMARK VINA RESULT:      -4.7      2.218      2.696
REMARK  2 active torsions:
REMARK  status: ('A' for Active; 'I' for Inactive)
REMARK       I    between atoms: C_2  and  N_3 
REMARK       I    between atoms: C_2  and  N_10 
REMARK    1  A    between atoms: N_3  and  C_4 
REMARK    2  A    between atoms: N_10  and  C_11 
ROOT
HETATM    1  O   UNL     1     -43.024 -49.173  12.702  1.00  0.00    -0.247 OA
HETATM    2  C   UNL     1     -42.165 -49.753  12.054  1.00  0.00     0.321 C 
HETATM    3  N   UNL     1     -41.690 -51.010  12.363  1.00  0.00    -0.338 N 
HETATM    4  N   UNL     1     -41.588 -49.305  10.887  1.00  0.00    -0.301 N 
HETATM    5  H   UNL     1     -40.678 -51.065  12.270  1.00  0.00     0.164 HD
HETATM    6  H   UNL     1     -41.281 -50.019  10.244  1.00  0.00     0.171 HD
ENDROOT
BRANCH   3   7
HETATM    7  C   UNL     1     -42.287 -51.824  13.424  1.00  0.00     0.087 C 
HETATM    8  C   UNL     1     -41.515 -51.633  14.736  1.00  0.00     0.035 C 
HETATM    9  C   UNL     1     -40.068 -52.110  14.670  1.00  0.00     0.076 C 
HETATM   10  S   UNL     1     -39.944 -53.882  14.297  1.00  0.00    -0.169 SA
HETATM   11  C   UNL     1     -40.978 -53.939  12.806  1.00  0.00     0.076 C 
HETATM   12  C   UNL     1     -42.349 -53.314  13.040  1.00  0.00     0.035 C 
ENDBRANCH   3   7
BRANCH   4  13
HETATM   13  C   UNL     1     -41.936 -48.087  10.357  1.00  0.00     0.108 A 
HETATM   14  C   UNL     1     -42.860 -47.662   9.430  1.00  0.00     0.142 A 
HETATM   15  N   UNL     1     -42.828 -46.300   9.164  1.00  0.00    -0.301 N 
HETATM   16  N   UNL     1     -41.891 -45.685   9.871  1.00  0.00    -0.060 NA
ATOM     17  HN  UNL     1     -43.449 -45.831   8.505  1.00  0.00     0.182 HD
HETATM   18  S   UNL     1     -41.067 -46.724  10.896  1.00  0.00     0.019 SA
ENDBRANCH   4  13
TORSDOF 2
ENDMDL
MODEL 5
REMARK VINA RESULT:      -4.6      2.487      3.001
REMARK  2 active torsions:
REMARK  status: ('A' for Active; 'I' for Inactive)
REMARK       I    between atoms: C_2  and  N_3 
REMARK       I    between atoms: C_2  and  N_10 
REMARK    1  A    between atoms: N_3  and  C_4 
REMARK    2  A    between atoms: N_10  and  C_11 
ROOT
HETATM    1  O   UNL     1     -39.874 -49.746  11.134  1.00  0.00    -0.247 OA
HETATM    2  C   UNL     1     -41.036 -50.030  11.384  1.00  0.00     0.321 C 
HETATM    3  N   UNL     1     -41.425 -51.209  11.985  1.00  0.00    -0.338 N 
HETATM    4  N   UNL     1     -42.130 -49.217  11.191  1.00  0.00    -0.301 N 
HETATM    5  H   UNL     1     -42.250 -51.604  11.541  1.00  0.00     0.164 HD
HETATM    6  H   UNL     1     -42.901 -49.355  11.827  1.00  0.00     0.171 HD
ENDROOT
BRANCH   3   7
HETATM    7  C   UNL     1     -40.450 -52.168  12.510  1.00  0.00     0.087 C 
HETATM    8  C   UNL     1     -41.041 -53.583  12.498  1.00  0.00     0.035 C 
HETATM    9  C   UNL     1     -42.254 -53.748  13.407  1.00  0.00     0.076 C 
HETATM   10  S   UNL     1     -41.860 -53.411  15.147  1.00  0.00    -0.169 SA
HETATM   11  C   UNL     1     -41.093 -51.777  14.959  1.00  0.00     0.076 C 
HETATM   12  C   UNL     1     -39.974 -51.788  13.924  1.00  0.00     0.035 C 
ENDBRANCH   3   7
BRANCH   4  13
HETATM   13  C   UNL     1     -41.985 -47.968  10.640  1.00  0.00     0.108 A 
HETATM   14  C   UNL     1     -41.088 -46.936  10.800  1.00  0.00     0.142 A 
HETATM   15  N   UNL     1     -41.364 -45.806  10.041  1.00  0.00    -0.301 N 
HETATM   16  N   UNL     1     -42.458 -45.963   9.311  1.00  0.00    -0.060 NA
ATOM     17  HN  UNL     1     -40.794 -44.960  10.046  1.00  0.00     0.182 HD
HETATM   18  S   UNL     1     -43.146 -47.481   9.490  1.00  0.00     0.019 SA
ENDBRANCH   4  13
TORSDOF 2
ENDMDL
MODEL 6
REMARK VINA RESULT:      -4.5      6.039      6.890
REMARK  2 active torsions:
REMARK  status: ('A' for Active; 'I' for Inactive)
REMARK       I    between atoms: C_2  and  N_3 
REMARK       I    between atoms: C_2  and  N_10 
REMARK    1  A    between atoms: N_3  and  C_4 
REMARK    2  A    between atoms: N_10  and  C_11 
ROOT
HETATM    1  O   UNL     1     -43.371 -55.476  14.980  1.00  0.00    -0.247 OA
HETATM    2  C   UNL     1     -43.291 -54.257  15.019  1.00  0.00     0.321 C 
HETATM    3  N   UNL     1     -44.365 -53.425  15.253  1.00  0.00    -0.338 N 
HETATM    4  N   UNL     1     -42.135 -53.516  14.920  1.00  0.00    -0.301 N 
HETATM    5  H   UNL     1     -44.359 -52.617  14.635  1.00  0.00     0.164 HD
HETATM    6  H   UNL     1     -42.131 -52.634  15.410  1.00  0.00     0.171 HD
ENDROOT
BRANCH   3   7
HETATM    7  C   UNL     1     -45.683 -53.947  15.621  1.00  0.00     0.087 C 
HETATM    8  C   UNL     1     -46.765 -53.335  14.722  1.00  0.00     0.035 C 
HETATM    9  C   UNL     1     -46.906 -51.825  14.876  1.00  0.00     0.076 C 
HETATM   10  S   UNL     1     -47.364 -51.345  16.566  1.00  0.00    -0.169 SA
HETATM   11  C   UNL     1     -46.064 -52.224  17.479  1.00  0.00     0.076 C 
HETATM   12  C   UNL     1     -46.005 -53.701  17.106  1.00  0.00     0.035 C 
ENDBRANCH   3   7
BRANCH   4  13
HETATM   13  C   UNL     1     -40.923 -54.133  14.725  1.00  0.00     0.108 A 
HETATM   14  C   UNL     1     -40.032 -54.210  13.678  1.00  0.00     0.142 A 
HETATM   15  N   UNL     1     -38.922 -55.008  13.921  1.00  0.00    -0.301 N 
HETATM   16  N   UNL     1     -38.958 -55.540  15.134  1.00  0.00    -0.060 NA
ATOM     17  HN  UNL     1     -38.172 -55.164  13.249  1.00  0.00     0.182 HD
HETATM   18  S   UNL     1     -40.300 -55.057  16.014  1.00  0.00     0.019 SA
ENDBRANCH   4  13
TORSDOF 2
ENDMDL
MODEL 7
REMARK VINA RESULT:      -4.5      2.016      2.542
REMARK  2 active torsions:
REMARK  status: ('A' for Active; 'I' for Inactive)
REMARK       I    between atoms: C_2  and  N_3 
REMARK       I    between atoms: C_2  and  N_10 
REMARK    1  A    between atoms: N_3  and  C_4 
REMARK    2  A    between atoms: N_10  and  C_11 
ROOT
HETATM    1  O   UNL     1     -41.170 -51.318  12.061  1.00  0.00    -0.247 OA
HETATM    2  C   UNL     1     -42.322 -50.966  12.269  1.00  0.00     0.321 C 
HETATM    3  N   UNL     1     -43.301 -51.799  12.767  1.00  0.00    -0.338 N 
HETATM    4  N   UNL     1     -42.820 -49.690  12.123  1.00  0.00    -0.301 N 
HETATM    5  H   UNL     1     -44.185 -51.677  12.280  1.00  0.00     0.164 HD
HETATM    6  H   UNL     1     -43.583 -49.442  12.733  1.00  0.00     0.171 HD
ENDROOT
BRANCH   3   7
HETATM    7  C   UNL     1     -43.000 -53.156  13.230  1.00  0.00     0.087 C 
HETATM    8  C   UNL     1     -44.114 -54.120  12.804  1.00  0.00     0.035 C 
HETATM    9  C   UNL     1     -45.468 -53.805  13.429  1.00  0.00     0.076 C 
HETATM   10  S   UNL     1     -45.427 -53.895  15.242  1.00  0.00    -0.169 SA
HETATM   11  C   UNL     1     -44.015 -52.798  15.555  1.00  0.00     0.076 C 
HETATM   12  C   UNL     1     -42.785 -53.209  14.754  1.00  0.00     0.035 C 
ENDBRANCH   3   7
BRANCH   4  13
HETATM   13  C   UNL     1     -42.014 -48.672  11.675  1.00  0.00     0.108 A 
HETATM   14  C   UNL     1     -41.699 -48.158  10.438  1.00  0.00     0.142 A 
HETATM   15  N   UNL     1     -40.776 -47.121  10.460  1.00  0.00    -0.301 N 
HETATM   16  N   UNL     1     -40.383 -46.842  11.694  1.00  0.00    -0.060 NA
ATOM     17  HN  UNL     1     -40.442 -46.634   9.628  1.00  0.00     0.182 HD
HETATM   18  S   UNL     1     -41.146 -47.790  12.847  1.00  0.00     0.019 SA
ENDBRANCH   4  13
TORSDOF 2
ENDMDL
MODEL 8
REMARK VINA RESULT:      -4.4      3.379      4.516
REMARK  2 active torsions:
REMARK  status: ('A' for Active; 'I' for Inactive)
REMARK       I    between atoms: C_2  and  N_3 
REMARK       I    between atoms: C_2  and  N_10 
REMARK    1  A    between atoms: N_3  and  C_4 
REMARK    2  A    between atoms: N_10  and  C_11 
ROOT
HETATM    1  O   UNL     1     -42.354 -46.540  11.755  1.00  0.00    -0.247 OA
HETATM    2  C   UNL     1     -41.891 -47.225  10.855  1.00  0.00     0.321 C 
HETATM    3  N   UNL     1     -40.704 -47.921  10.954  1.00  0.00    -0.338 N 
HETATM    4  N   UNL     1     -42.489 -47.486   9.643  1.00  0.00    -0.301 N 
HETATM    5  H   UNL     1     -40.144 -47.834  10.109  1.00  0.00     0.164 HD
HETATM    6  H   UNL     1     -42.261 -48.372   9.219  1.00  0.00     0.171 HD
ENDROOT
BRANCH   3   7
HETATM    7  C   UNL     1     -39.963 -48.011  12.214  1.00  0.00     0.087 C 
HETATM    8  C   UNL     1     -38.611 -48.698  11.986  1.00  0.00     0.035 C 
HETATM    9  C   UNL     1     -38.731 -50.145  11.519  1.00  0.00     0.076 C 
HETATM   10  S   UNL     1     -39.597 -51.188  12.725  1.00  0.00    -0.169 SA
HETATM   11  C   UNL     1     -41.096 -50.189  12.949  1.00  0.00     0.076 C 
HETATM   12  C   UNL     1     -40.769 -48.742  13.304  1.00  0.00     0.035 C 
ENDBRANCH   3   7
BRANCH   4  13
HETATM   13  C   UNL     1     -43.706 -46.932   9.330  1.00  0.00     0.108 A 
HETATM   14  C   UNL     1     -44.120 -45.717   8.834  1.00  0.00     0.142 A 
HETATM   15  N   UNL     1     -45.496 -45.579   8.715  1.00  0.00    -0.301 N 
HETATM   16  N   UNL     1     -46.134 -46.668   9.116  1.00  0.00    -0.060 NA
ATOM     17  HN  UNL     1     -45.959 -44.741   8.362  1.00  0.00     0.182 HD
HETATM   18  S   UNL     1     -45.091 -47.888   9.600  1.00  0.00     0.019 SA
ENDBRANCH   4  13
TORSDOF 2
ENDMDL
MODEL 9
REMARK VINA RESULT:      -4.4      3.014      6.132
REMARK  2 active torsions:
REMARK  status: ('A' for Active; 'I' for Inactive)
REMARK       I    between atoms: C_2  and  N_3 
REMARK       I    between atoms: C_2  and  N_10 
REMARK    1  A    between atoms: N_3  and  C_4 
REMARK    2  A    between atoms: N_10  and  C_11 
ROOT
HETATM    1  O   UNL     1     -42.431 -50.080  13.389  1.00  0.00    -0.247 OA
HETATM    2  C   UNL     1     -41.988 -50.014  12.251  1.00  0.00     0.321 C 
HETATM    3  N   UNL     1     -42.443 -49.124  11.302  1.00  0.00    -0.338 N 
HETATM    4  N   UNL     1     -40.932 -50.740  11.748  1.00  0.00    -0.301 N 
HETATM    5  H   UNL     1     -42.548 -49.564  10.391  1.00  0.00     0.164 HD
HETATM    6  H   UNL     1     -40.395 -50.293  11.021  1.00  0.00     0.171 HD
ENDROOT
BRANCH   3   7
HETATM    7  C   UNL     1     -43.409 -48.072  11.627  1.00  0.00     0.087 C 
HETATM    8  C   UNL     1     -43.943 -47.428  10.341  1.00  0.00     0.035 C 
HETATM    9  C   UNL     1     -42.874 -46.712   9.525  1.00  0.00     0.076 C 
HETATM   10  S   UNL     1     -42.095 -45.357  10.448  1.00  0.00    -0.169 SA
HETATM   11  C   UNL     1     -41.624 -46.262  11.950  1.00  0.00     0.076 C 
HETATM   12  C   UNL     1     -42.806 -47.006  12.561  1.00  0.00     0.035 C 
ENDBRANCH   3   7
BRANCH   4  13
HETATM   13  C   UNL     1     -40.287 -51.668  12.528  1.00  0.00     0.108 A 
HETATM   14  C   UNL     1     -39.196 -51.639  13.367  1.00  0.00     0.142 A 
HETATM   15  N   UNL     1     -38.866 -52.864  13.931  1.00  0.00    -0.301 N 
HETATM   16  N   UNL     1     -39.687 -53.824  13.530  1.00  0.00    -0.060 NA
ATOM     17  HN  UNL     1     -38.088 -53.007  14.575  1.00  0.00     0.182 HD
HETATM   18  S   UNL     1     -40.890 -53.262  12.506  1.00  0.00     0.019 SA
ENDBRANCH   4  13
TORSDOF 2
ENDMDL
