MODEL 1
REMARK VINA RESULT:      -6.3      0.000      0.000
REMARK  5 active torsions:
REMARK  status: ('A' for Active; 'I' for Inactive)
REMARK    1  A    between atoms: C_6  and  C_7 
REMARK    2  A    between atoms: C_7  and  C_8 
REMARK    3  A    between atoms: C_8  and  N_9 
REMARK       I    between atoms: N_9  and  C_10 
REMARK       I    between atoms: C_10  and  N_12 
REMARK    4  A    between atoms: N_12  and  C_13 
REMARK    5  A    between atoms: C_13  and  C_14 
ROOT
HETATM    1  N   UNL     1     -41.380 -51.223  11.343  1.00  0.00    -0.343 N 
HETATM    2  C   UNL     1     -41.991 -51.997  12.287  1.00  0.00     0.316 C 
HETATM    3  O   UNL     1     -41.596 -52.090  13.443  1.00  0.00    -0.247 OA
HETATM    4  N   UNL     1     -43.087 -52.651  11.798  1.00  0.00    -0.341 N 
HETATM    5  H   UNL     1     -41.857 -51.073  10.466  1.00  0.00     0.164 HD
HETATM    6  H   UNL     1     -43.142 -52.806  10.802  1.00  0.00     0.164 HD
ENDROOT
BRANCH   1   7
HETATM    7  C   UNL     1     -40.184 -50.454  11.643  1.00  0.00     0.132 C 
BRANCH   7   8
HETATM    8  C   UNL     1     -40.463 -48.965  11.832  1.00  0.00     0.106 C 
BRANCH   8   9
HETATM    9  C   UNL     1     -41.622 -48.520  11.027  1.00  0.00     0.149 A 
HETATM   10  O   UNL     1     -42.838 -48.511  11.647  1.00  0.00    -0.223 OA
HETATM   11  N   UNL     1     -43.761 -48.056  10.704  1.00  0.00    -0.248 N 
HETATM   12  C   UNL     1     -43.009 -47.846   9.616  1.00  0.00     0.100 A 
ATOM     13  HN  UNL     1     -44.765 -47.916  10.817  1.00  0.00     0.196 HD
HETATM   14  C   UNL     1     -43.574 -47.367   8.341  1.00  0.00     0.091 C 
HETATM   15  N   UNL     1     -41.672 -48.111   9.776  1.00  0.00    -0.327 N 
ATOM     16  HN  UNL     1     -40.914 -48.017   9.101  1.00  0.00     0.169 HD
ENDBRANCH   8   9
ENDBRANCH   7   8
ENDBRANCH   1   7
BRANCH   4  17
HETATM   17  C   UNL     1     -43.853 -53.564  12.631  1.00  0.00     0.156 C 
BRANCH  17  18
HETATM   18  C   UNL     1     -45.279 -53.090  12.938  1.00  0.00     0.139 C 
HETATM   19  C   UNL     1     -45.490 -51.593  13.125  1.00  0.00     0.035 C 
HETATM   20  C   UNL     1     -46.550 -51.489  14.204  1.00  0.00     0.029 C 
HETATM   21  C   UNL     1     -46.915 -52.922  14.524  1.00  0.00     0.168 C 
HETATM   22  O   UNL     1     -45.774 -53.700  14.146  1.00  0.00    -0.384 OA
ENDBRANCH  17  18
ENDBRANCH   4  17
TORSDOF 5
ENDMDL
MODEL 2
REMARK VINA RESULT:      -6.1      2.748      4.182
REMARK  5 active torsions:
REMARK  status: ('A' for Active; 'I' for Inactive)
REMARK    1  A    between atoms: C_6  and  C_7 
REMARK    2  A    between atoms: C_7  and  C_8 
REMARK    3  A    between atoms: C_8  and  N_9 
REMARK       I    between atoms: N_9  and  C_10 
REMARK       I    between atoms: C_10  and  N_12 
REMARK    4  A    between atoms: N_12  and  C_13 
REMARK    5  A    between atoms: C_13  and  C_14 
ROOT
HETATM    1  N   UNL     1     -41.527 -47.740  10.255  1.00  0.00    -0.343 N 
HETATM    2  C   UNL     1     -40.828 -48.476  11.168  1.00  0.00     0.316 C 
HETATM    3  O   UNL     1     -40.113 -47.980  12.030  1.00  0.00    -0.247 OA
HETATM    4  N   UNL     1     -41.015 -49.820  11.011  1.00  0.00    -0.341 N 
HETATM    5  H   UNL     1     -42.215 -48.212   9.687  1.00  0.00     0.164 HD
HETATM    6  H   UNL     1     -41.312 -50.156  10.106  1.00  0.00     0.164 HD
ENDROOT
BRANCH   1   7
HETATM    7  C   UNL     1     -41.458 -46.289  10.230  1.00  0.00     0.132 C 
BRANCH   7   8
HETATM    8  C   UNL     1     -42.818 -45.629  10.019  1.00  0.00     0.106 C 
BRANCH   8   9
HETATM    9  C   UNL     1     -43.780 -46.553   9.375  1.00  0.00     0.149 A 
HETATM   10  O   UNL     1     -43.403 -47.106   8.186  1.00  0.00    -0.223 OA
HETATM   11  N   UNL     1     -44.453 -47.932   7.783  1.00  0.00    -0.248 N 
HETATM   12  C   UNL     1     -45.353 -47.784   8.764  1.00  0.00     0.100 A 
ATOM     13  HN  UNL     1     -44.519 -48.509   6.945  1.00  0.00     0.196 HD
HETATM   14  C   UNL     1     -46.657 -48.471   8.755  1.00  0.00     0.091 C 
HETATM   15  N   UNL     1     -44.970 -46.944   9.779  1.00  0.00    -0.327 N 
ATOM     16  HN  UNL     1     -45.477 -46.689  10.626  1.00  0.00     0.169 HD
ENDBRANCH   8   9
ENDBRANCH   7   8
ENDBRANCH   1   7
BRANCH   4  17
HETATM   17  C   UNL     1     -40.322 -50.781  11.853  1.00  0.00     0.156 C 
BRANCH  17  18
HETATM   18  C   UNL     1     -40.964 -52.174  11.879  1.00  0.00     0.139 C 
HETATM   19  C   UNL     1     -42.377 -52.280  12.437  1.00  0.00     0.035 C 
HETATM   20  C   UNL     1     -42.403 -53.613  13.159  1.00  0.00     0.029 C 
HETATM   21  C   UNL     1     -41.032 -54.206  12.922  1.00  0.00     0.168 C 
HETATM   22  O   UNL     1     -40.173 -53.089  12.662  1.00  0.00    -0.384 OA
ENDBRANCH  17  18
ENDBRANCH   4  17
TORSDOF 5
ENDMDL
MODEL 3
REMARK VINA RESULT:      -6.1      1.911      2.561
REMARK  5 active torsions:
REMARK  status: ('A' for Active; 'I' for Inactive)
REMARK    1  A    between atoms: C_6  and  C_7 
REMARK    2  A    between atoms: C_7  and  C_8 
REMARK    3  A    between atoms: C_8  and  N_9 
REMARK       I    between atoms: N_9  and  C_10 
REMARK       I    between atoms: C_10  and  N_12 
REMARK    4  A    between atoms: N_12  and  C_13 
REMARK    5  A    between atoms: C_13  and  C_14 
ROOT
HETATM    1  N   UNL     1     -41.973 -49.116  10.912  1.00  0.00    -0.343 N 
HETATM    2  C   UNL     1     -42.018 -49.717  12.137  1.00  0.00     0.316 C 
HETATM    3  O   UNL     1     -41.547 -49.218  13.152  1.00  0.00    -0.247 OA
HETATM    4  N   UNL     1     -42.644 -50.931  12.102  1.00  0.00    -0.341 N 
HETATM    5  H   UNL     1     -42.522 -49.513  10.164  1.00  0.00     0.164 HD
HETATM    6  H   UNL     1     -42.685 -51.419  11.219  1.00  0.00     0.164 HD
ENDROOT
BRANCH   1   7
HETATM    7  C   UNL     1     -41.336 -47.824  10.718  1.00  0.00     0.132 C 
BRANCH   7   8
HETATM    8  C   UNL     1     -42.336 -46.686  10.539  1.00  0.00     0.106 C 
BRANCH   8   9
HETATM    9  C   UNL     1     -43.539 -47.126   9.798  1.00  0.00     0.149 A 
HETATM   10  O   UNL     1     -43.337 -47.685   8.569  1.00  0.00    -0.223 OA
HETATM   11  N   UNL     1     -44.598 -48.021   8.074  1.00  0.00    -0.248 N 
HETATM   12  C   UNL     1     -45.426 -47.622   9.049  1.00  0.00     0.100 A 
ATOM     13  HN  UNL     1     -44.832 -48.463   7.185  1.00  0.00     0.196 HD
HETATM   14  C   UNL     1     -46.890 -47.764   8.954  1.00  0.00     0.091 C 
HETATM   15  N   UNL     1     -44.808 -47.071  10.143  1.00  0.00    -0.327 N 
ATOM     16  HN  UNL     1     -45.225 -46.711  11.001  1.00  0.00     0.169 HD
ENDBRANCH   8   9
ENDBRANCH   7   8
ENDBRANCH   1   7
BRANCH   4  17
HETATM   17  C   UNL     1     -42.756 -51.756  13.294  1.00  0.00     0.156 C 
BRANCH  17  18
HETATM   18  C   UNL     1     -44.195 -52.143  13.659  1.00  0.00     0.139 C 
HETATM   19  C   UNL     1     -45.048 -52.765  12.562  1.00  0.00     0.035 C 
HETATM   20  C   UNL     1     -46.444 -52.229  12.813  1.00  0.00     0.029 C 
HETATM   21  C   UNL     1     -46.312 -51.385  14.062  1.00  0.00     0.168 C 
HETATM   22  O   UNL     1     -44.936 -50.994  14.114  1.00  0.00    -0.384 OA
ENDBRANCH  17  18
ENDBRANCH   4  17
TORSDOF 5
ENDMDL
MODEL 4
REMARK VINA RESULT:      -5.7      1.748      5.732
REMARK  5 active torsions:
REMARK  status: ('A' for Active; 'I' for Inactive)
REMARK    1  A    between atoms: C_6  and  C_7 
REMARK    2  A    between atoms: C_7  and  C_8 
REMARK    3  A    between atoms: C_8  and  N_9 
REMARK       I    between atoms: N_9  and  C_10 
REMARK       I    between atoms: C_10  and  N_12 
REMARK    4  A    between atoms: N_12  and  C_13 
REMARK    5  A    between atoms: C_13  and  C_14 
ROOT
HETATM    1  N   UNL     1     -41.855 -53.084  12.311  1.00  0.00    -0.343 N 
HETATM    2  C   UNL     1     -40.914 -52.109  12.149  1.00  0.00     0.316 C 
HETATM    3  O   UNL     1     -39.800 -52.155  12.657  1.00  0.00    -0.247 OA
HETATM    4  N   UNL     1     -41.352 -51.084  11.359  1.00  0.00    -0.341 N 
HETATM    5  H   UNL     1     -42.681 -53.053  11.732  1.00  0.00     0.164 HD
HETATM    6  H   UNL     1     -42.349 -50.943  11.274  1.00  0.00     0.164 HD
ENDROOT
BRANCH   1   7
HETATM    7  C   UNL     1     -41.605 -54.260  13.129  1.00  0.00     0.132 C 
BRANCH   7   8
HETATM    8  C   UNL     1     -42.756 -54.583  14.077  1.00  0.00     0.106 C 
BRANCH   8   9
HETATM    9  C   UNL     1     -43.969 -53.799  13.754  1.00  0.00     0.149 A 
HETATM   10  O   UNL     1     -44.620 -54.118  12.598  1.00  0.00    -0.223 OA
HETATM   11  N   UNL     1     -45.718 -53.261  12.513  1.00  0.00    -0.248 N 
HETATM   12  C   UNL     1     -45.609 -52.512  13.617  1.00  0.00     0.100 A 
ATOM     13  HN  UNL     1     -46.432 -53.216  11.785  1.00  0.00     0.196 HD
HETATM   14  C   UNL     1     -46.562 -51.435  13.944  1.00  0.00     0.091 C 
HETATM   15  N   UNL     1     -44.542 -52.820  14.422  1.00  0.00    -0.327 N 
ATOM     16  HN  UNL     1     -44.265 -52.400  15.309  1.00  0.00     0.169 HD
ENDBRANCH   8   9
ENDBRANCH   7   8
ENDBRANCH   1   7
BRANCH   4  17
HETATM   17  C   UNL     1     -40.517 -49.923  11.100  1.00  0.00     0.156 C 
BRANCH  17  18
HETATM   18  C   UNL     1     -41.258 -48.583  11.188  1.00  0.00     0.139 C 
HETATM   19  C   UNL     1     -42.428 -48.496  12.160  1.00  0.00     0.035 C 
HETATM   20  C   UNL     1     -43.432 -47.593  11.470  1.00  0.00     0.029 C 
HETATM   21  C   UNL     1     -42.755 -47.180  10.182  1.00  0.00     0.168 C 
HETATM   22  O   UNL     1     -41.798 -48.209   9.906  1.00  0.00    -0.384 OA
ENDBRANCH  17  18
ENDBRANCH   4  17
TORSDOF 5
ENDMDL
MODEL 5
REMARK VINA RESULT:      -5.4      1.484      2.020
REMARK  5 active torsions:
REMARK  status: ('A' for Active; 'I' for Inactive)
REMARK    1  A    between atoms: C_6  and  C_7 
REMARK    2  A    between atoms: C_7  and  C_8 
REMARK    3  A    between atoms: C_8  and  N_9 
REMARK       I    between atoms: N_9  and  C_10 
REMARK       I    between atoms: C_10  and  N_12 
REMARK    4  A    between atoms: N_12  and  C_13 
REMARK    5  A    between atoms: C_13  and  C_14 
ROOT
HETATM    1  N   UNL     1     -42.683 -52.608  11.864  1.00  0.00    -0.343 N 
HETATM    2  C   UNL     1     -43.181 -53.440  12.824  1.00  0.00     0.316 C 
HETATM    3  O   UNL     1     -42.499 -53.926  13.718  1.00  0.00    -0.247 OA
HETATM    4  N   UNL     1     -44.521 -53.667  12.675  1.00  0.00    -0.341 N 
HETATM    5  H   UNL     1     -43.334 -52.123  11.266  1.00  0.00     0.164 HD
HETATM    6  H   UNL     1     -44.926 -53.534  11.760  1.00  0.00     0.164 HD
ENDROOT
BRANCH   1   7
HETATM    7  C   UNL     1     -41.275 -52.246  11.823  1.00  0.00     0.132 C 
BRANCH   7   8
HETATM    8  C   UNL     1     -40.972 -50.942  12.556  1.00  0.00     0.106 C 
BRANCH   8   9
HETATM    9  C   UNL     1     -41.265 -49.760  11.714  1.00  0.00     0.149 A 
HETATM   10  O   UNL     1     -40.198 -49.018  11.299  1.00  0.00    -0.223 OA
HETATM   11  N   UNL     1     -40.715 -47.977  10.527  1.00  0.00    -0.248 N 
HETATM   12  C   UNL     1     -42.036 -48.196  10.564  1.00  0.00     0.100 A 
ATOM     13  HN  UNL     1     -40.210 -47.231  10.049  1.00  0.00     0.196 HD
HETATM   14  C   UNL     1     -43.006 -47.316   9.886  1.00  0.00     0.091 C 
HETATM   15  N   UNL     1     -42.420 -49.300  11.282  1.00  0.00    -0.327 N 
ATOM     16  HN  UNL     1     -43.358 -49.669  11.440  1.00  0.00     0.169 HD
ENDBRANCH   8   9
ENDBRANCH   7   8
ENDBRANCH   1   7
BRANCH   4  17
HETATM   17  C   UNL     1     -45.236 -54.564  13.567  1.00  0.00     0.156 C 
BRANCH  17  18
HETATM   18  C   UNL     1     -46.093 -53.853  14.621  1.00  0.00     0.139 C 
HETATM   19  C   UNL     1     -46.853 -52.609  14.177  1.00  0.00     0.035 C 
HETATM   20  C   UNL     1     -46.816 -51.688  15.381  1.00  0.00     0.029 C 
HETATM   21  C   UNL     1     -46.091 -52.479  16.448  1.00  0.00     0.168 C 
HETATM   22  O   UNL     1     -45.288 -53.430  15.738  1.00  0.00    -0.384 OA
ENDBRANCH  17  18
ENDBRANCH   4  17
TORSDOF 5
ENDMDL
MODEL 6
REMARK VINA RESULT:      -5.3      3.095      5.318
REMARK  5 active torsions:
REMARK  status: ('A' for Active; 'I' for Inactive)
REMARK    1  A    between atoms: C_6  and  C_7 
REMARK    2  A    between atoms: C_7  and  C_8 
REMARK    3  A    between atoms: C_8  and  N_9 
REMARK       I    between atoms: N_9  and  C_10 
REMARK       I    between atoms: C_10  and  N_12 
REMARK    4  A    between atoms: N_12  and  C_13 
REMARK    5  A    between atoms: C_13  and  C_14 
ROOT
HETATM    1  N   UNL     1     -42.275 -51.553  12.276  1.00  0.00    -0.343 N 
HETATM    2  C   UNL     1     -43.160 -52.557  12.545  1.00  0.00     0.316 C 
HETATM    3  O   UNL     1     -42.821 -53.706  12.801  1.00  0.00    -0.247 OA
HETATM    4  N   UNL     1     -44.459 -52.136  12.498  1.00  0.00    -0.341 N 
HETATM    5  H   UNL     1     -42.623 -50.607  12.238  1.00  0.00     0.164 HD
HETATM    6  H   UNL     1     -44.671 -51.310  11.957  1.00  0.00     0.164 HD
ENDROOT
BRANCH   1   7
HETATM    7  C   UNL     1     -40.841 -51.785  12.256  1.00  0.00     0.132 C 
BRANCH   7   8
HETATM    8  C   UNL     1     -40.197 -51.669  13.635  1.00  0.00     0.106 C 
BRANCH   8   9
HETATM    9  C   UNL     1     -39.640 -52.963  14.089  1.00  0.00     0.149 A 
HETATM   10  O   UNL     1     -39.387 -53.898  13.128  1.00  0.00    -0.223 OA
HETATM   11  N   UNL     1     -38.870 -55.014  13.787  1.00  0.00    -0.248 N 
HETATM   12  C   UNL     1     -38.874 -54.640  15.072  1.00  0.00     0.100 A 
ATOM     13  HN  UNL     1     -38.563 -55.901  13.386  1.00  0.00     0.196 HD
HETATM   14  C   UNL     1     -38.418 -55.526  16.159  1.00  0.00     0.091 C 
HETATM   15  N   UNL     1     -39.334 -53.368  15.303  1.00  0.00    -0.327 N 
ATOM     16  HN  UNL     1     -39.418 -52.867  16.188  1.00  0.00     0.169 HD
ENDBRANCH   8   9
ENDBRANCH   7   8
ENDBRANCH   1   7
BRANCH   4  17
HETATM   17  C   UNL     1     -45.560 -53.062  12.709  1.00  0.00     0.156 C 
BRANCH  17  18
HETATM   18  C   UNL     1     -46.329 -52.838  14.017  1.00  0.00     0.139 C 
HETATM   19  C   UNL     1     -46.728 -51.408  14.354  1.00  0.00     0.035 C 
HETATM   20  C   UNL     1     -46.599 -51.320  15.862  1.00  0.00     0.029 C 
HETATM   21  C   UNL     1     -46.191 -52.712  16.294  1.00  0.00     0.168 C 
HETATM   22  O   UNL     1     -45.565 -53.299  15.148  1.00  0.00    -0.384 OA
ENDBRANCH  17  18
ENDBRANCH   4  17
TORSDOF 5
ENDMDL
MODEL 7
REMARK VINA RESULT:      -5.2      2.639      6.957
REMARK  5 active torsions:
REMARK  status: ('A' for Active; 'I' for Inactive)
REMARK    1  A    between atoms: C_6  and  C_7 
REMARK    2  A    between atoms: C_7  and  C_8 
REMARK    3  A    between atoms: C_8  and  N_9 
REMARK       I    between atoms: N_9  and  C_10 
REMARK       I    between atoms: C_10  and  N_12 
REMARK    4  A    between atoms: N_12  and  C_13 
REMARK    5  A    between atoms: C_13  and  C_14 
ROOT
HETATM    1  N   UNL     1     -43.099 -53.444  12.172  1.00  0.00    -0.343 N 
HETATM    2  C   UNL     1     -42.836 -52.125  12.404  1.00  0.00     0.316 C 
HETATM    3  O   UNL     1     -43.559 -51.401  13.078  1.00  0.00    -0.247 OA
HETATM    4  N   UNL     1     -41.683 -51.707  11.802  1.00  0.00    -0.341 N 
HETATM    5  H   UNL     1     -42.378 -54.008  11.747  1.00  0.00     0.164 HD
HETATM    6  H   UNL     1     -41.345 -52.231  11.008  1.00  0.00     0.164 HD
ENDROOT
BRANCH   1   7
HETATM    7  C   UNL     1     -44.287 -54.092  12.704  1.00  0.00     0.132 C 
BRANCH   7   8
HETATM    8  C   UNL     1     -44.110 -54.577  14.140  1.00  0.00     0.106 C 
BRANCH   8   9
HETATM    9  C   UNL     1     -45.025 -53.878  15.070  1.00  0.00     0.149 A 
HETATM   10  O   UNL     1     -45.173 -54.420  16.314  1.00  0.00    -0.223 OA
HETATM   11  N   UNL     1     -46.066 -53.596  17.001  1.00  0.00    -0.248 N 
HETATM   12  C   UNL     1     -46.367 -52.652  16.101  1.00  0.00     0.100 A 
ATOM     13  HN  UNL     1     -46.406 -53.690  17.958  1.00  0.00     0.196 HD
HETATM   14  C   UNL     1     -47.309 -51.554  16.385  1.00  0.00     0.091 C 
HETATM   15  N   UNL     1     -45.733 -52.783  14.890  1.00  0.00    -0.327 N 
ATOM     16  HN  UNL     1     -45.795 -52.187  14.066  1.00  0.00     0.169 HD
ENDBRANCH   8   9
ENDBRANCH   7   8
ENDBRANCH   1   7
BRANCH   4  17
HETATM   17  C   UNL     1     -41.247 -50.323  11.887  1.00  0.00     0.156 C 
BRANCH  17  18
HETATM   18  C   UNL     1     -39.828 -50.142  12.440  1.00  0.00     0.139 C 
HETATM   19  C   UNL     1     -38.922 -49.151  11.721  1.00  0.00     0.035 C 
HETATM   20  C   UNL     1     -37.540 -49.770  11.799  1.00  0.00     0.029 C 
HETATM   21  C   UNL     1     -37.733 -51.040  12.600  1.00  0.00     0.168 C 
HETATM   22  O   UNL     1     -39.111 -51.391  12.431  1.00  0.00    -0.384 OA
ENDBRANCH  17  18
ENDBRANCH   4  17
TORSDOF 5
ENDMDL
MODEL 8
REMARK VINA RESULT:      -5.1      1.714      1.955
REMARK  5 active torsions:
REMARK  status: ('A' for Active; 'I' for Inactive)
REMARK    1  A    between atoms: C_6  and  C_7 
REMARK    2  A    between atoms: C_7  and  C_8 
REMARK    3  A    between atoms: C_8  and  N_9 
REMARK       I    between atoms: N_9  and  C_10 
REMARK       I    between atoms: C_10  and  N_12 
REMARK    4  A    between atoms: N_12  and  C_13 
REMARK    5  A    between atoms: C_13  and  C_14 
ROOT
HETATM    1  N   UNL     1     -41.600 -52.339  12.193  1.00  0.00    -0.343 N 
HETATM    2  C   UNL     1     -42.415 -53.119  12.962  1.00  0.00     0.316 C 
HETATM    3  O   UNL     1     -42.129 -53.481  14.097  1.00  0.00    -0.247 OA
HETATM    4  N   UNL     1     -43.580 -53.446  12.326  1.00  0.00    -0.341 N 
HETATM    5  H   UNL     1     -41.975 -51.951  11.340  1.00  0.00     0.164 HD
HETATM    6  H   UNL     1     -43.593 -53.418  11.317  1.00  0.00     0.164 HD
ENDROOT
BRANCH   1   7
HETATM    7  C   UNL     1     -40.302 -51.890  12.668  1.00  0.00     0.132 C 
BRANCH   7   8
HETATM    8  C   UNL     1     -40.351 -50.517  13.332  1.00  0.00     0.106 C 
BRANCH   8   9
HETATM    9  C   UNL     1     -40.554 -49.437  12.340  1.00  0.00     0.149 A 
HETATM   10  O   UNL     1     -41.107 -49.793  11.144  1.00  0.00    -0.223 OA
HETATM   11  N   UNL     1     -41.204 -48.623  10.389  1.00  0.00    -0.248 N 
HETATM   12  C   UNL     1     -40.694 -47.690  11.202  1.00  0.00     0.100 A 
ATOM     13  HN  UNL     1     -41.574 -48.507   9.446  1.00  0.00     0.196 HD
HETATM   14  C   UNL     1     -40.575 -46.274  10.810  1.00  0.00     0.091 C 
HETATM   15  N   UNL     1     -40.288 -48.151  12.429  1.00  0.00    -0.327 N 
ATOM     16  HN  UNL     1     -39.884 -47.631  13.209  1.00  0.00     0.169 HD
ENDBRANCH   8   9
ENDBRANCH   7   8
ENDBRANCH   1   7
BRANCH   4  17
HETATM   17  C   UNL     1     -44.565 -54.309  12.956  1.00  0.00     0.156 C 
BRANCH  17  18
HETATM   18  C   UNL     1     -45.792 -53.570  13.503  1.00  0.00     0.139 C 
HETATM   19  C   UNL     1     -46.126 -52.220  12.881  1.00  0.00     0.035 C 
HETATM   20  C   UNL     1     -46.653 -51.388  14.035  1.00  0.00     0.029 C 
HETATM   21  C   UNL     1     -46.640 -52.326  15.222  1.00  0.00     0.168 C 
HETATM   22  O   UNL     1     -45.653 -53.317  14.914  1.00  0.00    -0.384 OA
ENDBRANCH  17  18
ENDBRANCH   4  17
TORSDOF 5
ENDMDL
MODEL 9
REMARK VINA RESULT:      -5.1      3.004      6.285
REMARK  5 active torsions:
REMARK  status: ('A' for Active; 'I' for Inactive)
REMARK    1  A    between atoms: C_6  and  C_7 
REMARK    2  A    between atoms: C_7  and  C_8 
REMARK    3  A    between atoms: C_8  and  N_9 
REMARK       I    between atoms: N_9  and  C_10 
REMARK       I    between atoms: C_10  and  N_12 
REMARK    4  A    between atoms: N_12  and  C_13 
REMARK    5  A    between atoms: C_13  and  C_14 
ROOT
HETATM    1  N   UNL     1     -43.017 -52.846  14.268  1.00  0.00    -0.343 N 
HETATM    2  C   UNL     1     -42.103 -52.764  13.257  1.00  0.00     0.316 C 
HETATM    3  O   UNL     1     -41.563 -53.741  12.755  1.00  0.00    -0.247 OA
HETATM    4  N   UNL     1     -41.864 -51.475  12.872  1.00  0.00    -0.341 N 
HETATM    5  H   UNL     1     -43.535 -52.015  14.514  1.00  0.00     0.164 HD
HETATM    6  H   UNL     1     -42.060 -50.737  13.533  1.00  0.00     0.164 HD
ENDROOT
BRANCH   1   7
HETATM    7  C   UNL     1     -43.407 -54.122  14.844  1.00  0.00     0.132 C 
BRANCH   7   8
HETATM    8  C   UNL     1     -44.912 -54.368  14.788  1.00  0.00     0.106 C 
BRANCH   8   9
HETATM    9  C   UNL     1     -45.609 -53.320  14.010  1.00  0.00     0.149 A 
HETATM   10  O   UNL     1     -45.888 -52.152  14.658  1.00  0.00    -0.223 OA
HETATM   11  N   UNL     1     -46.532 -51.329  13.732  1.00  0.00    -0.248 N 
HETATM   12  C   UNL     1     -46.581 -52.088  12.630  1.00  0.00     0.100 A 
ATOM     13  HN  UNL     1     -46.880 -50.379  13.864  1.00  0.00     0.196 HD
HETATM   14  C   UNL     1     -47.203 -51.627  11.376  1.00  0.00     0.091 C 
HETATM   15  N   UNL     1     -46.009 -53.329  12.756  1.00  0.00    -0.327 N 
ATOM     16  HN  UNL     1     -45.918 -54.067  12.058  1.00  0.00     0.169 HD
ENDBRANCH   8   9
ENDBRANCH   7   8
ENDBRANCH   1   7
BRANCH   4  17
HETATM   17  C   UNL     1     -40.887 -51.166  11.840  1.00  0.00     0.156 C 
BRANCH  17  18
HETATM   18  C   UNL     1     -39.567 -50.596  12.373  1.00  0.00     0.139 C 
HETATM   19  C   UNL     1     -38.823 -49.611  11.481  1.00  0.00     0.035 C 
HETATM   20  C   UNL     1     -37.356 -49.912  11.720  1.00  0.00     0.029 C 
HETATM   21  C   UNL     1     -37.354 -51.004  12.768  1.00  0.00     0.168 C 
HETATM   22  O   UNL     1     -38.625 -51.651  12.647  1.00  0.00    -0.384 OA
ENDBRANCH  17  18
ENDBRANCH   4  17
TORSDOF 5
ENDMDL
