MODEL 1
REMARK VINA RESULT:      -6.3      0.000      0.000
REMARK  5 active torsions:
REMARK  status: ('A' for Active; 'I' for Inactive)
REMARK    1  A    between atoms: C_2  and  N_3 
REMARK    2  A    between atoms: C_7  and  N_9 
REMARK       I    between atoms: N_9  and  C_10 
REMARK       I    between atoms: C_10  and  N_12 
REMARK    3  A    between atoms: N_12  and  C_13 
REMARK    4  A    between atoms: C_13  and  C_14 
REMARK    5  A    between atoms: C_14  and  C_15 
ROOT
HETATM    1  N   UNL     1     -42.468 -52.343  11.849  1.00  0.00    -0.337 N 
HETATM    2  C   UNL     1     -41.563 -51.374  12.223  1.00  0.00     0.316 C 
HETATM    3  O   UNL     1     -41.343 -51.043  13.379  1.00  0.00    -0.247 OA
HETATM    4  N   UNL     1     -40.921 -50.836  11.145  1.00  0.00    -0.343 N 
HETATM    5  H   UNL     1     -42.891 -52.213  10.941  1.00  0.00     0.164 HD
HETATM    6  H   UNL     1     -40.760 -51.505  10.398  1.00  0.00     0.164 HD
ENDROOT
BRANCH   1   7
HETATM    7  C   UNL     1     -43.248 -52.978  12.897  1.00  0.00     0.114 C 
HETATM    8  C   UNL     1     -42.628 -54.274  13.422  1.00  0.00     0.029 C 
HETATM    9  C   UNL     1     -43.498 -54.845  14.548  1.00  0.00     0.032 C 
HETATM   10  C   UNL     1     -44.973 -54.956  14.142  1.00  0.00     0.272 C 
HETATM   11  N   UNL     1     -45.554 -53.720  13.596  1.00  0.00     0.090 N 
HETATM   12  C   UNL     1     -44.715 -53.238  12.476  1.00  0.00     0.297 C 
BRANCH  11  13
HETATM   13  C   UNL     1     -45.734 -52.632  14.577  1.00  0.00     0.268 C 
HETATM   14  C   UNL     1     -46.587 -51.463  14.110  1.00  0.00     0.037 C 
ENDBRANCH  11  13
ENDBRANCH   1   7
BRANCH   4  15
HETATM   15  C   UNL     1     -39.829 -49.899  11.363  1.00  0.00     0.131 C 
BRANCH  15  16
HETATM   16  C   UNL     1     -40.313 -48.502  11.767  1.00  0.00     0.084 C 
BRANCH  16  17
HETATM   17  C   UNL     1     -41.573 -48.139  11.035  1.00  0.00     0.052 A 
HETATM   18  N   UNL     1     -41.673 -48.095   9.720  1.00  0.00    -0.363 N 
HETATM   19  C   UNL     1     -42.955 -47.730   9.363  1.00  0.00     0.095 A 
ATOM     20  HN  UNL     1     -40.918 -48.301   9.066  1.00  0.00     0.165 HD
HETATM   21  C   UNL     1     -43.827 -47.523  10.408  1.00  0.00     0.068 A 
HETATM   22  S   UNL     1     -43.016 -47.775  11.896  1.00  0.00    -0.087 SA
ENDBRANCH  16  17
ENDBRANCH  15  16
ENDBRANCH   4  15
TORSDOF 5
ENDMDL
MODEL 2
REMARK VINA RESULT:      -6.1      1.552      1.765
REMARK  5 active torsions:
REMARK  status: ('A' for Active; 'I' for Inactive)
REMARK    1  A    between atoms: C_2  and  N_3 
REMARK    2  A    between atoms: C_7  and  N_9 
REMARK       I    between atoms: N_9  and  C_10 
REMARK       I    between atoms: C_10  and  N_12 
REMARK    3  A    between atoms: N_12  and  C_13 
REMARK    4  A    between atoms: C_13  and  C_14 
REMARK    5  A    between atoms: C_14  and  C_15 
ROOT
HETATM    1  N   UNL     1     -42.060 -52.393  11.981  1.00  0.00    -0.337 N 
HETATM    2  C   UNL     1     -41.841 -51.038  12.090  1.00  0.00     0.316 C 
HETATM    3  O   UNL     1     -42.313 -50.329  12.968  1.00  0.00    -0.247 OA
HETATM    4  N   UNL     1     -41.013 -50.576  11.107  1.00  0.00    -0.343 N 
HETATM    5  H   UNL     1     -42.031 -52.761  11.041  1.00  0.00     0.164 HD
HETATM    6  H   UNL     1     -40.299 -51.246  10.836  1.00  0.00     0.164 HD
ENDROOT
BRANCH   1   7
HETATM    7  C   UNL     1     -42.951 -53.012  12.946  1.00  0.00     0.114 C 
HETATM    8  C   UNL     1     -42.367 -54.262  13.606  1.00  0.00     0.029 C 
HETATM    9  C   UNL     1     -43.361 -54.818  14.633  1.00  0.00     0.032 C 
HETATM   10  C   UNL     1     -44.766 -54.998  14.044  1.00  0.00     0.272 C 
HETATM   11  N   UNL     1     -45.307 -53.807  13.372  1.00  0.00     0.090 N 
HETATM   12  C   UNL     1     -44.342 -53.341  12.350  1.00  0.00     0.297 C 
BRANCH  11  13
HETATM   13  C   UNL     1     -45.646 -52.686  14.271  1.00  0.00     0.268 C 
HETATM   14  C   UNL     1     -46.410 -51.539  13.628  1.00  0.00     0.037 C 
ENDBRANCH  11  13
ENDBRANCH   1   7
BRANCH   4  15
HETATM   15  C   UNL     1     -40.559 -49.194  11.152  1.00  0.00     0.131 C 
BRANCH  15  16
HETATM   16  C   UNL     1     -41.551 -48.219  10.509  1.00  0.00     0.084 C 
BRANCH  16  17
HETATM   17  C   UNL     1     -41.110 -46.797  10.709  1.00  0.00     0.052 A 
HETATM   18  N   UNL     1     -39.902 -46.354  10.418  1.00  0.00    -0.363 N 
HETATM   19  C   UNL     1     -39.815 -45.009  10.717  1.00  0.00     0.095 A 
ATOM     20  HN  UNL     1     -39.146 -46.919  10.031  1.00  0.00     0.165 HD
HETATM   21  C   UNL     1     -40.965 -44.434  11.208  1.00  0.00     0.068 A 
HETATM   22  S   UNL     1     -42.200 -45.616  11.321  1.00  0.00    -0.087 SA
ENDBRANCH  16  17
ENDBRANCH  15  16
ENDBRANCH   4  15
TORSDOF 5
ENDMDL
MODEL 3
REMARK VINA RESULT:      -6.0      2.254      3.483
REMARK  5 active torsions:
REMARK  status: ('A' for Active; 'I' for Inactive)
REMARK    1  A    between atoms: C_2  and  N_3 
REMARK    2  A    between atoms: C_7  and  N_9 
REMARK       I    between atoms: N_9  and  C_10 
REMARK       I    between atoms: C_10  and  N_12 
REMARK    3  A    between atoms: N_12  and  C_13 
REMARK    4  A    between atoms: C_13  and  C_14 
REMARK    5  A    between atoms: C_14  and  C_15 
ROOT
HETATM    1  N   UNL     1     -42.131 -52.428  11.835  1.00  0.00    -0.337 N 
HETATM    2  C   UNL     1     -41.477 -51.259  12.154  1.00  0.00     0.316 C 
HETATM    3  O   UNL     1     -41.544 -50.705  13.242  1.00  0.00    -0.247 OA
HETATM    4  N   UNL     1     -40.723 -50.798  11.113  1.00  0.00    -0.343 N 
HETATM    5  H   UNL     1     -42.380 -52.533  10.861  1.00  0.00     0.164 HD
HETATM    6  H   UNL     1     -40.317 -51.540  10.552  1.00  0.00     0.164 HD
ENDROOT
BRANCH   1   7
HETATM    7  C   UNL     1     -42.997 -53.015  12.843  1.00  0.00     0.114 C 
HETATM    8  C   UNL     1     -42.382 -54.222  13.552  1.00  0.00     0.029 C 
HETATM    9  C   UNL     1     -43.350 -54.743  14.620  1.00  0.00     0.032 C 
HETATM   10  C   UNL     1     -44.760 -54.974  14.064  1.00  0.00     0.272 C 
HETATM   11  N   UNL     1     -45.332 -53.826  13.344  1.00  0.00     0.090 N 
HETATM   12  C   UNL     1     -44.391 -53.394  12.285  1.00  0.00     0.297 C 
BRANCH  11  13
HETATM   13  C   UNL     1     -45.676 -52.669  14.193  1.00  0.00     0.268 C 
HETATM   14  C   UNL     1     -46.422 -51.543  13.495  1.00  0.00     0.037 C 
ENDBRANCH  11  13
ENDBRANCH   1   7
BRANCH   4  15
HETATM   15  C   UNL     1     -39.853 -49.650  11.321  1.00  0.00     0.131 C 
BRANCH  15  16
HETATM   16  C   UNL     1     -38.419 -50.046  11.688  1.00  0.00     0.084 C 
BRANCH  16  17
HETATM   17  C   UNL     1     -38.220 -50.018  13.177  1.00  0.00     0.052 A 
HETATM   18  N   UNL     1     -38.348 -51.075  13.956  1.00  0.00    -0.363 N 
HETATM   19  C   UNL     1     -38.102 -50.720  15.266  1.00  0.00     0.095 A 
ATOM     20  HN  UNL     1     -38.592 -52.013  13.638  1.00  0.00     0.165 HD
HETATM   21  C   UNL     1     -37.763 -49.401  15.471  1.00  0.00     0.068 A 
HETATM   22  S   UNL     1     -37.769 -48.564  13.976  1.00  0.00    -0.087 SA
ENDBRANCH  16  17
ENDBRANCH  15  16
ENDBRANCH   4  15
TORSDOF 5
ENDMDL
MODEL 4
REMARK VINA RESULT:      -5.5      2.263      3.438
REMARK  5 active torsions:
REMARK  status: ('A' for Active; 'I' for Inactive)
REMARK    1  A    between atoms: C_2  and  N_3 
REMARK    2  A    between atoms: C_7  and  N_9 
REMARK       I    between atoms: N_9  and  C_10 
REMARK       I    between atoms: C_10  and  N_12 
REMARK    3  A    between atoms: N_12  and  C_13 
REMARK    4  A    between atoms: C_13  and  C_14 
REMARK    5  A    between atoms: C_14  and  C_15 
ROOT
HETATM    1  N   UNL     1     -44.224 -51.459  12.577  1.00  0.00    -0.337 N 
HETATM    2  C   UNL     1     -43.125 -50.727  12.970  1.00  0.00     0.316 C 
HETATM    3  O   UNL     1     -42.527 -50.890  14.024  1.00  0.00    -0.247 OA
HETATM    4  N   UNL     1     -42.767 -49.803  12.030  1.00  0.00    -0.343 N 
HETATM    5  H   UNL     1     -44.876 -50.972  11.979  1.00  0.00     0.164 HD
HETATM    6  H   UNL     1     -42.929 -50.115  11.078  1.00  0.00     0.164 HD
ENDROOT
BRANCH   1   7
HETATM    7  C   UNL     1     -44.733 -52.458  13.499  1.00  0.00     0.114 C 
HETATM    8  C   UNL     1     -44.182 -53.862  13.246  1.00  0.00     0.029 C 
HETATM    9  C   UNL     1     -44.744 -54.835  14.289  1.00  0.00     0.032 C 
HETATM   10  C   UNL     1     -46.272 -54.753  14.396  1.00  0.00     0.272 C 
HETATM   11  N   UNL     1     -46.802 -53.396  14.594  1.00  0.00     0.090 N 
HETATM   12  C   UNL     1     -46.280 -52.506  13.532  1.00  0.00     0.297 C 
BRANCH  11  13
HETATM   13  C   UNL     1     -46.512 -52.803  15.915  1.00  0.00     0.268 C 
HETATM   14  C   UNL     1     -47.153 -51.449  16.180  1.00  0.00     0.037 C 
ENDBRANCH  11  13
ENDBRANCH   1   7
BRANCH   4  15
HETATM   15  C   UNL     1     -41.543 -49.038  12.216  1.00  0.00     0.131 C 
BRANCH  15  16
HETATM   16  C   UNL     1     -40.424 -49.460  11.258  1.00  0.00     0.084 C 
BRANCH  16  17
HETATM   17  C   UNL     1     -39.315 -50.149  12.000  1.00  0.00     0.052 A 
HETATM   18  N   UNL     1     -39.507 -50.953  13.028  1.00  0.00    -0.363 N 
HETATM   19  C   UNL     1     -38.293 -51.423  13.485  1.00  0.00     0.095 A 
ATOM     20  HN  UNL     1     -40.416 -51.191  13.426  1.00  0.00     0.165 HD
HETATM   21  C   UNL     1     -37.189 -50.994  12.784  1.00  0.00     0.068 A 
HETATM   22  S   UNL     1     -37.677 -49.949  11.518  1.00  0.00    -0.087 SA
ENDBRANCH  16  17
ENDBRANCH  15  16
ENDBRANCH   4  15
TORSDOF 5
ENDMDL
MODEL 5
REMARK VINA RESULT:      -5.5      1.621      2.034
REMARK  5 active torsions:
REMARK  status: ('A' for Active; 'I' for Inactive)
REMARK    1  A    between atoms: C_2  and  N_3 
REMARK    2  A    between atoms: C_7  and  N_9 
REMARK       I    between atoms: N_9  and  C_10 
REMARK       I    between atoms: C_10  and  N_12 
REMARK    3  A    between atoms: N_12  and  C_13 
REMARK    4  A    between atoms: C_13  and  C_14 
REMARK    5  A    between atoms: C_14  and  C_15 
ROOT
HETATM    1  N   UNL     1     -41.434 -53.322  13.263  1.00  0.00    -0.337 N 
HETATM    2  C   UNL     1     -40.735 -52.152  13.460  1.00  0.00     0.316 C 
HETATM    3  O   UNL     1     -41.199 -51.149  13.984  1.00  0.00    -0.247 OA
HETATM    4  N   UNL     1     -39.447 -52.248  13.015  1.00  0.00    -0.343 N 
HETATM    5  H   UNL     1     -41.146 -53.868  12.463  1.00  0.00     0.164 HD
HETATM    6  H   UNL     1     -39.048 -53.173  13.137  1.00  0.00     0.164 HD
ENDROOT
BRANCH   1   7
HETATM    7  C   UNL     1     -42.830 -53.349  13.661  1.00  0.00     0.114 C 
HETATM    8  C   UNL     1     -43.214 -54.594  14.462  1.00  0.00     0.029 C 
HETATM    9  C   UNL     1     -44.690 -54.513  14.869  1.00  0.00     0.032 C 
HETATM   10  C   UNL     1     -45.606 -54.206  13.678  1.00  0.00     0.272 C 
HETATM   11  N   UNL     1     -45.208 -53.033  12.883  1.00  0.00     0.090 N 
HETATM   12  C   UNL     1     -43.796 -53.183  12.463  1.00  0.00     0.297 C 
BRANCH  11  13
HETATM   13  C   UNL     1     -45.381 -51.735  13.564  1.00  0.00     0.268 C 
HETATM   14  C   UNL     1     -46.752 -51.492  14.174  1.00  0.00     0.037 C 
ENDBRANCH  11  13
ENDBRANCH   1   7
BRANCH   4  15
HETATM   15  C   UNL     1     -38.523 -51.153  13.273  1.00  0.00     0.131 C 
BRANCH  15  16
HETATM   16  C   UNL     1     -38.200 -50.336  12.017  1.00  0.00     0.084 C 
BRANCH  16  17
HETATM   17  C   UNL     1     -39.358 -49.459  11.636  1.00  0.00     0.052 A 
HETATM   18  N   UNL     1     -40.262 -49.785  10.732  1.00  0.00    -0.363 N 
HETATM   19  C   UNL     1     -41.189 -48.770  10.612  1.00  0.00     0.095 A 
ATOM     20  HN  UNL     1     -40.274 -50.656  10.201  1.00  0.00     0.165 HD
HETATM   21  C   UNL     1     -40.998 -47.691  11.445  1.00  0.00     0.068 A 
HETATM   22  S   UNL     1     -39.599 -47.939  12.402  1.00  0.00    -0.087 SA
ENDBRANCH  16  17
ENDBRANCH  15  16
ENDBRANCH   4  15
TORSDOF 5
ENDMDL
MODEL 6
REMARK VINA RESULT:      -5.3      2.130      6.616
REMARK  5 active torsions:
REMARK  status: ('A' for Active; 'I' for Inactive)
REMARK    1  A    between atoms: C_2  and  N_3 
REMARK    2  A    between atoms: C_7  and  N_9 
REMARK       I    between atoms: N_9  and  C_10 
REMARK       I    between atoms: C_10  and  N_12 
REMARK    3  A    between atoms: N_12  and  C_13 
REMARK    4  A    between atoms: C_13  and  C_14 
REMARK    5  A    between atoms: C_14  and  C_15 
ROOT
HETATM    1  N   UNL     1     -41.401 -49.931  11.131  1.00  0.00    -0.337 N 
HETATM    2  C   UNL     1     -41.861 -50.675  12.195  1.00  0.00     0.316 C 
HETATM    3  O   UNL     1     -42.316 -50.200  13.225  1.00  0.00    -0.247 OA
HETATM    4  N   UNL     1     -41.766 -52.016  11.955  1.00  0.00    -0.343 N 
HETATM    5  H   UNL     1     -40.668 -50.362  10.586  1.00  0.00     0.164 HD
HETATM    6  H   UNL     1     -41.921 -52.262  10.982  1.00  0.00     0.164 HD
ENDROOT
BRANCH   1   7
HETATM    7  C   UNL     1     -41.414 -48.485  11.264  1.00  0.00     0.114 C 
HETATM    8  C   UNL     1     -42.191 -47.774  10.154  1.00  0.00     0.029 C 
HETATM    9  C   UNL     1     -42.181 -46.261  10.403  1.00  0.00     0.032 C 
HETATM   10  C   UNL     1     -40.766 -45.721  10.645  1.00  0.00     0.272 C 
HETATM   11  N   UNL     1     -40.006 -46.435  11.682  1.00  0.00     0.090 N 
HETATM   12  C   UNL     1     -39.992 -47.882  11.370  1.00  0.00     0.297 C 
BRANCH  11  13
HETATM   13  C   UNL     1     -40.497 -46.236  13.060  1.00  0.00     0.268 C 
HETATM   14  C   UNL     1     -39.480 -45.681  14.044  1.00  0.00     0.037 C 
ENDBRANCH  11  13
ENDBRANCH   1   7
BRANCH   4  15
HETATM   15  C   UNL     1     -42.337 -52.951  12.913  1.00  0.00     0.131 C 
BRANCH  15  16
HETATM   16  C   UNL     1     -43.647 -53.581  12.426  1.00  0.00     0.084 C 
BRANCH  16  17
HETATM   17  C   UNL     1     -44.827 -52.750  12.838  1.00  0.00     0.052 A 
HETATM   18  N   UNL     1     -45.767 -52.344  12.007  1.00  0.00    -0.363 N 
HETATM   19  C   UNL     1     -46.707 -51.602  12.692  1.00  0.00     0.095 A 
ATOM     20  HN  UNL     1     -45.795 -52.547  11.007  1.00  0.00     0.165 HD
HETATM   21  C   UNL     1     -46.489 -51.472  14.045  1.00  0.00     0.068 A 
HETATM   22  S   UNL     1     -45.047 -52.288  14.480  1.00  0.00    -0.087 SA
ENDBRANCH  16  17
ENDBRANCH  15  16
ENDBRANCH   4  15
TORSDOF 5
ENDMDL
MODEL 7
REMARK VINA RESULT:      -5.3      2.031      6.421
REMARK  5 active torsions:
REMARK  status: ('A' for Active; 'I' for Inactive)
REMARK    1  A    between atoms: C_2  and  N_3 
REMARK    2  A    between atoms: C_7  and  N_9 
REMARK       I    between atoms: N_9  and  C_10 
REMARK       I    between atoms: C_10  and  N_12 
REMARK    3  A    between atoms: N_12  and  C_13 
REMARK    4  A    between atoms: C_13  and  C_14 
REMARK    5  A    between atoms: C_14  and  C_15 
ROOT
HETATM    1  N   UNL     1     -42.023 -50.943  11.720  1.00  0.00    -0.337 N 
HETATM    2  C   UNL     1     -42.121 -51.886  12.718  1.00  0.00     0.316 C 
HETATM    3  O   UNL     1     -41.746 -51.717  13.870  1.00  0.00    -0.247 OA
HETATM    4  N   UNL     1     -42.709 -53.036  12.274  1.00  0.00    -0.343 N 
HETATM    5  H   UNL     1     -41.919 -51.311  10.785  1.00  0.00     0.164 HD
HETATM    6  H   UNL     1     -43.425 -52.876  11.573  1.00  0.00     0.164 HD
ENDROOT
BRANCH   1   7
HETATM    7  C   UNL     1     -41.386 -49.679  12.047  1.00  0.00     0.114 C 
HETATM    8  C   UNL     1     -42.264 -48.459  11.767  1.00  0.00     0.029 C 
HETATM    9  C   UNL     1     -41.524 -47.182  12.179  1.00  0.00     0.032 C 
HETATM   10  C   UNL     1     -40.113 -47.109  11.581  1.00  0.00     0.272 C 
HETATM   11  N   UNL     1     -39.285 -48.303  11.814  1.00  0.00     0.090 N 
HETATM   12  C   UNL     1     -40.015 -49.503  11.348  1.00  0.00     0.297 C 
BRANCH  11  13
HETATM   13  C   UNL     1     -38.862 -48.501  13.215  1.00  0.00     0.268 C 
HETATM   14  C   UNL     1     -37.859 -49.621  13.443  1.00  0.00     0.037 C 
ENDBRANCH  11  13
ENDBRANCH   1   7
BRANCH   4  15
HETATM   15  C   UNL     1     -43.023 -54.088  13.230  1.00  0.00     0.131 C 
BRANCH  15  16
HETATM   16  C   UNL     1     -44.506 -54.475  13.228  1.00  0.00     0.084 C 
BRANCH  16  17
HETATM   17  C   UNL     1     -45.373 -53.272  13.464  1.00  0.00     0.052 A 
HETATM   18  N   UNL     1     -46.169 -52.749  12.550  1.00  0.00    -0.363 N 
HETATM   19  C   UNL     1     -46.827 -51.656  13.077  1.00  0.00     0.095 A 
ATOM     20  HN  UNL     1     -46.281 -53.099  11.599  1.00  0.00     0.165 HD
HETATM   21  C   UNL     1     -46.546 -51.372  14.394  1.00  0.00     0.068 A 
HETATM   22  S   UNL     1     -45.404 -52.497  14.998  1.00  0.00    -0.087 SA
ENDBRANCH  16  17
ENDBRANCH  15  16
ENDBRANCH   4  15
TORSDOF 5
ENDMDL
MODEL 8
REMARK VINA RESULT:      -5.1      2.413      6.591
REMARK  5 active torsions:
REMARK  status: ('A' for Active; 'I' for Inactive)
REMARK    1  A    between atoms: C_2  and  N_3 
REMARK    2  A    between atoms: C_7  and  N_9 
REMARK       I    between atoms: N_9  and  C_10 
REMARK       I    between atoms: C_10  and  N_12 
REMARK    3  A    between atoms: N_12  and  C_13 
REMARK    4  A    between atoms: C_13  and  C_14 
REMARK    5  A    between atoms: C_14  and  C_15 
ROOT
HETATM    1  N   UNL     1     -42.040 -49.373  12.576  1.00  0.00    -0.337 N 
HETATM    2  C   UNL     1     -41.206 -50.458  12.420  1.00  0.00     0.316 C 
HETATM    3  O   UNL     1     -40.393 -50.580  11.515  1.00  0.00    -0.247 OA
HETATM    4  N   UNL     1     -41.380 -51.379  13.412  1.00  0.00    -0.343 N 
HETATM    5  H   UNL     1     -42.924 -49.568  13.024  1.00  0.00     0.164 HD
HETATM    6  H   UNL     1     -41.608 -50.965  14.310  1.00  0.00     0.164 HD
ENDROOT
BRANCH   1   7
HETATM    7  C   UNL     1     -41.982 -48.327  11.570  1.00  0.00     0.114 C 
HETATM    8  C   UNL     1     -40.886 -47.292  11.824  1.00  0.00     0.029 C 
HETATM    9  C   UNL     1     -40.879 -46.257  10.692  1.00  0.00     0.032 C 
HETATM   10  C   UNL     1     -42.272 -45.669  10.434  1.00  0.00     0.272 C 
HETATM   11  N   UNL     1     -43.333 -46.668  10.234  1.00  0.00     0.090 N 
HETATM   12  C   UNL     1     -43.340 -47.609  11.377  1.00  0.00     0.297 C 
BRANCH  11  13
HETATM   13  C   UNL     1     -43.239 -47.431   8.974  1.00  0.00     0.268 C 
HETATM   14  C   UNL     1     -44.566 -47.788   8.324  1.00  0.00     0.037 C 
ENDBRANCH  11  13
ENDBRANCH   1   7
BRANCH   4  15
HETATM   15  C   UNL     1     -40.483 -52.523  13.485  1.00  0.00     0.131 C 
BRANCH  15  16
HETATM   16  C   UNL     1     -41.034 -53.762  12.771  1.00  0.00     0.084 C 
BRANCH  16  17
HETATM   17  C   UNL     1     -42.450 -54.036  13.190  1.00  0.00     0.052 A 
HETATM   18  N   UNL     1     -43.495 -53.870  12.402  1.00  0.00    -0.363 N 
HETATM   19  C   UNL     1     -44.648 -54.206  13.082  1.00  0.00     0.095 A 
ATOM     20  HN  UNL     1     -43.458 -53.543  11.437  1.00  0.00     0.165 HD
HETATM   21  C   UNL     1     -44.469 -54.650  14.372  1.00  0.00     0.068 A 
HETATM   22  S   UNL     1     -42.801 -54.631  14.764  1.00  0.00    -0.087 SA
ENDBRANCH  16  17
ENDBRANCH  15  16
ENDBRANCH   4  15
TORSDOF 5
ENDMDL
MODEL 9
REMARK VINA RESULT:      -5.1      2.387      7.042
REMARK  5 active torsions:
REMARK  status: ('A' for Active; 'I' for Inactive)
REMARK    1  A    between atoms: C_2  and  N_3 
REMARK    2  A    between atoms: C_7  and  N_9 
REMARK       I    between atoms: N_9  and  C_10 
REMARK       I    between atoms: C_10  and  N_12 
REMARK    3  A    between atoms: N_12  and  C_13 
REMARK    4  A    between atoms: C_13  and  C_14 
REMARK    5  A    between atoms: C_14  and  C_15 
ROOT
HETATM    1  N   UNL     1     -42.613 -49.260  11.551  1.00  0.00    -0.337 N 
HETATM    2  C   UNL     1     -41.795 -50.204  12.132  1.00  0.00     0.316 C 
HETATM    3  O   UNL     1     -40.768 -49.947  12.744  1.00  0.00    -0.247 OA
HETATM    4  N   UNL     1     -42.279 -51.470  11.961  1.00  0.00    -0.343 N 
HETATM    5  H   UNL     1     -43.120 -49.571  10.735  1.00  0.00     0.164 HD
HETATM    6  H   UNL     1     -43.293 -51.516  11.968  1.00  0.00     0.164 HD
ENDROOT
BRANCH   1   7
HETATM    7  C   UNL     1     -42.200 -47.870  11.630  1.00  0.00     0.114 C 
HETATM    8  C   UNL     1     -43.005 -47.048  12.638  1.00  0.00     0.029 C 
HETATM    9  C   UNL     1     -42.471 -45.611  12.678  1.00  0.00     0.032 C 
HETATM   10  C   UNL     1     -42.366 -44.991  11.279  1.00  0.00     0.272 C 
HETATM   11  N   UNL     1     -41.629 -45.805  10.300  1.00  0.00     0.090 N 
HETATM   12  C   UNL     1     -42.216 -47.164  10.252  1.00  0.00     0.297 C 
BRANCH  11  13
HETATM   13  C   UNL     1     -40.177 -45.907  10.545  1.00  0.00     0.268 C 
HETATM   14  C   UNL     1     -39.327 -44.820   9.906  1.00  0.00     0.037 C 
ENDBRANCH  11  13
ENDBRANCH   1   7
BRANCH   4  15
HETATM   15  C   UNL     1     -41.618 -52.580  12.631  1.00  0.00     0.131 C 
BRANCH  15  16
HETATM   16  C   UNL     1     -42.160 -52.835  14.041  1.00  0.00     0.084 C 
BRANCH  16  17
HETATM   17  C   UNL     1     -43.586 -53.303  13.991  1.00  0.00     0.052 A 
HETATM   18  N   UNL     1     -43.953 -54.496  13.564  1.00  0.00    -0.363 N 
HETATM   19  C   UNL     1     -45.326 -54.616  13.643  1.00  0.00     0.095 A 
ATOM     20  HN  UNL     1     -43.319 -55.221  13.227  1.00  0.00     0.165 HD
HETATM   21  C   UNL     1     -45.989 -53.523  14.153  1.00  0.00     0.068 A 
HETATM   22  S   UNL     1     -44.864 -52.289  14.533  1.00  0.00    -0.087 SA
ENDBRANCH  16  17
ENDBRANCH  15  16
ENDBRANCH   4  15
TORSDOF 5
ENDMDL
