MODEL 1
REMARK VINA RESULT:      -5.5      0.000      0.000
REMARK  8 active torsions:
REMARK  status: ('A' for Active; 'I' for Inactive)
REMARK    1  A    between atoms: O_2  and  C_3 
REMARK    2  A    between atoms: C_6  and  C_7 
REMARK    3  A    between atoms: C_7  and  O_8 
REMARK    4  A    between atoms: O_8  and  C_9 
REMARK    5  A    between atoms: C_9  and  C_10 
REMARK    6  A    between atoms: C_10  and  O_11 
REMARK    7  A    between atoms: C_10  and  C_12 
REMARK    8  A    between atoms: C_12  and  N_13 
ROOT
HETATM    1  C   UNL     1     -38.460 -50.858  13.171  1.00  0.00     0.160 C 
ENDROOT
BRANCH   1   2
HETATM    2  C   UNL     1     -38.767 -52.084  14.045  1.00  0.00     0.201 C 
BRANCH   2   3
HETATM    3  O   UNL     1     -39.534 -53.027  13.288  1.00  0.00    -0.384 OA
BRANCH   3   4
HETATM    4  C   UNL     1     -40.019 -54.094  14.105  1.00  0.00     0.206 C 
BRANCH   4   5
HETATM    5  C   UNL     1     -41.508 -54.221  13.907  1.00  0.00    -0.034 A 
HETATM    6  C   UNL     1     -42.300 -54.756  14.933  1.00  0.00     0.012 A 
HETATM    7  C   UNL     1     -43.688 -54.822  14.803  1.00  0.00     0.037 A 
HETATM    8  C   UNL     1     -44.306 -54.343  13.648  1.00  0.00     0.068 A 
HETATM    9  C   UNL     1     -43.521 -53.854  12.604  1.00  0.00     0.037 A 
HETATM   10  C   UNL     1     -42.130 -53.784  12.734  1.00  0.00     0.012 A 
BRANCH   8  11
HETATM   11  O   UNL     1     -45.659 -54.343  13.436  1.00  0.00    -0.356 OA
HETATM   12  C   UNL     1     -46.439 -54.638  14.593  1.00  0.00     0.210 C 
ENDBRANCH   8  11
ENDBRANCH   4   5
ENDBRANCH   3   4
ENDBRANCH   2   3
ENDBRANCH   1   2
BRANCH   1  13
HETATM   13  O   UNL     1     -38.554 -51.231  11.791  1.00  0.00    -0.392 OA
HETATM   14  H   UNL     1     -39.495 -51.363  11.577  1.00  0.00     0.210 HD
ENDBRANCH   1  13
BRANCH   1  15
HETATM   15  C   UNL     1     -39.415 -49.705  13.512  1.00  0.00     0.164 C 
BRANCH  15  16
HETATM   16  N   UNL     1     -40.771 -49.909  13.039  1.00  0.00    -0.339 N 
HETATM   17  C   UNL     1     -41.223 -49.586  11.790  1.00  0.00     0.184 A 
HETATM   18  N   UNL     1     -42.526 -49.718  11.695  1.00  0.00    -0.350 N 
HETATM   19  C   UNL     1     -42.936 -50.149  12.934  1.00  0.00     0.060 A 
ATOM     20  HN  UNL     1     -43.110 -49.539  10.878  1.00  0.00     0.166 HD
HETATM   21  C   UNL     1     -44.230 -50.420  13.401  1.00  0.00     0.032 A 
HETATM   22  C   UNL     1     -41.850 -50.303  13.795  1.00  0.00     0.062 A 
HETATM   23  C   UNL     1     -44.392 -50.856  14.721  1.00  0.00     0.002 A 
HETATM   24  C   UNL     1     -43.290 -51.025  15.558  1.00  0.00     0.002 A 
HETATM   25  C   UNL     1     -41.990 -50.749  15.115  1.00  0.00     0.032 A 
ENDBRANCH  15  16
ENDBRANCH   1  15
TORSDOF 8
ENDMDL
MODEL 2
REMARK VINA RESULT:      -5.4      2.824      5.859
REMARK  8 active torsions:
REMARK  status: ('A' for Active; 'I' for Inactive)
REMARK    1  A    between atoms: O_2  and  C_3 
REMARK    2  A    between atoms: C_6  and  C_7 
REMARK    3  A    between atoms: C_7  and  O_8 
REMARK    4  A    between atoms: O_8  and  C_9 
REMARK    5  A    between atoms: C_9  and  C_10 
REMARK    6  A    between atoms: C_10  and  O_11 
REMARK    7  A    between atoms: C_10  and  C_12 
REMARK    8  A    between atoms: C_12  and  N_13 
ROOT
HETATM    1  C   UNL     1     -39.107 -51.397  13.136  1.00  0.00     0.160 C 
ENDROOT
BRANCH   1   2
HETATM    2  C   UNL     1     -39.292 -50.210  14.095  1.00  0.00     0.201 C 
BRANCH   2   3
HETATM    3  O   UNL     1     -40.046 -49.183  13.441  1.00  0.00    -0.384 OA
BRANCH   3   4
HETATM    4  C   UNL     1     -39.271 -48.504  12.451  1.00  0.00     0.206 C 
BRANCH   4   5
HETATM    5  C   UNL     1     -40.202 -47.741  11.542  1.00  0.00    -0.034 A 
HETATM    6  C   UNL     1     -41.292 -48.400  10.957  1.00  0.00     0.012 A 
HETATM    7  C   UNL     1     -42.207 -47.703  10.167  1.00  0.00     0.037 A 
HETATM    8  C   UNL     1     -42.051 -46.332   9.960  1.00  0.00     0.068 A 
HETATM    9  C   UNL     1     -40.943 -45.680  10.500  1.00  0.00     0.037 A 
HETATM   10  C   UNL     1     -40.027 -46.378  11.295  1.00  0.00     0.012 A 
BRANCH   8  11
HETATM   11  O   UNL     1     -42.906 -45.558   9.222  1.00  0.00    -0.356 OA
HETATM   12  C   UNL     1     -44.185 -46.145   8.988  1.00  0.00     0.210 C 
ENDBRANCH   8  11
ENDBRANCH   4   5
ENDBRANCH   3   4
ENDBRANCH   2   3
ENDBRANCH   1   2
BRANCH   1  13
HETATM   13  O   UNL     1     -37.707 -51.620  12.933  1.00  0.00    -0.392 OA
HETATM   14  H   UNL     1     -37.333 -50.828  12.506  1.00  0.00     0.210 HD
ENDBRANCH   1  13
BRANCH   1  15
HETATM   15  C   UNL     1     -39.805 -52.647  13.690  1.00  0.00     0.164 C 
BRANCH  15  16
HETATM   16  N   UNL     1     -41.094 -52.916  13.082  1.00  0.00    -0.339 N 
HETATM   17  C   UNL     1     -41.574 -52.301  11.958  1.00  0.00     0.184 A 
HETATM   18  N   UNL     1     -42.831 -52.610  11.734  1.00  0.00    -0.350 N 
HETATM   19  C   UNL     1     -43.179 -53.466  12.752  1.00  0.00     0.060 A 
ATOM     20  HN  UNL     1     -43.422 -52.286  10.968  1.00  0.00     0.166 HD
HETATM   21  C   UNL     1     -44.411 -54.078  13.020  1.00  0.00     0.032 A 
HETATM   22  C   UNL     1     -42.098 -53.697  13.602  1.00  0.00     0.062 A 
HETATM   23  C   UNL     1     -44.517 -54.921  14.132  1.00  0.00     0.002 A 
HETATM   24  C   UNL     1     -43.417 -55.157  14.956  1.00  0.00     0.002 A 
HETATM   25  C   UNL     1     -42.180 -54.547  14.713  1.00  0.00     0.032 A 
ENDBRANCH  15  16
ENDBRANCH   1  15
TORSDOF 8
ENDMDL
MODEL 3
REMARK VINA RESULT:      -5.4      1.787      3.534
REMARK  8 active torsions:
REMARK  status: ('A' for Active; 'I' for Inactive)
REMARK    1  A    between atoms: O_2  and  C_3 
REMARK    2  A    between atoms: C_6  and  C_7 
REMARK    3  A    between atoms: C_7  and  O_8 
REMARK    4  A    between atoms: O_8  and  C_9 
REMARK    5  A    between atoms: C_9  and  C_10 
REMARK    6  A    between atoms: C_10  and  O_11 
REMARK    7  A    between atoms: C_10  and  C_12 
REMARK    8  A    between atoms: C_12  and  N_13 
ROOT
HETATM    1  C   UNL     1     -39.043 -51.671  13.633  1.00  0.00     0.160 C 
ENDROOT
BRANCH   1   2
HETATM    2  C   UNL     1     -38.952 -51.023  15.023  1.00  0.00     0.201 C 
BRANCH   2   3
HETATM    3  O   UNL     1     -40.157 -50.298  15.290  1.00  0.00    -0.384 OA
BRANCH   3   4
HETATM    4  C   UNL     1     -40.925 -50.909  16.328  1.00  0.00     0.206 C 
BRANCH   4   5
HETATM    5  C   UNL     1     -42.373 -50.942  15.909  1.00  0.00    -0.034 A 
HETATM    6  C   UNL     1     -42.759 -50.329  14.708  1.00  0.00     0.012 A 
HETATM    7  C   UNL     1     -44.080 -50.403  14.263  1.00  0.00     0.037 A 
HETATM    8  C   UNL     1     -45.032 -51.101  15.006  1.00  0.00     0.068 A 
HETATM    9  C   UNL     1     -44.665 -51.672  16.225  1.00  0.00     0.037 A 
HETATM   10  C   UNL     1     -43.340 -51.602  16.671  1.00  0.00     0.012 A 
BRANCH   8  11
HETATM   11  O   UNL     1     -46.344 -51.248  14.642  1.00  0.00    -0.356 OA
HETATM   12  C   UNL     1     -47.210 -51.654  15.700  1.00  0.00     0.210 C 
ENDBRANCH   8  11
ENDBRANCH   4   5
ENDBRANCH   3   4
ENDBRANCH   2   3
ENDBRANCH   1   2
BRANCH   1  13
HETATM   13  O   UNL     1     -37.732 -51.739  13.061  1.00  0.00    -0.392 OA
HETATM   14  H   UNL     1     -37.787 -51.425  12.140  1.00  0.00     0.210 HD
ENDBRANCH   1  13
BRANCH   1  15
HETATM   15  C   UNL     1     -39.690 -53.060  13.731  1.00  0.00     0.164 C 
BRANCH  15  16
HETATM   16  N   UNL     1     -40.978 -53.154  13.069  1.00  0.00    -0.339 N 
HETATM   17  C   UNL     1     -41.328 -52.475  11.935  1.00  0.00     0.184 A 
HETATM   18  N   UNL     1     -42.604 -52.615  11.658  1.00  0.00    -0.350 N 
HETATM   19  C   UNL     1     -43.102 -53.424  12.652  1.00  0.00     0.060 A 
ATOM     20  HN  UNL     1     -43.116 -52.212  10.874  1.00  0.00     0.166 HD
HETATM   21  C   UNL     1     -44.413 -53.871  12.865  1.00  0.00     0.032 A 
HETATM   22  C   UNL     1     -42.096 -53.801  13.541  1.00  0.00     0.062 A 
HETATM   23  C   UNL     1     -44.673 -54.700  13.962  1.00  0.00     0.002 A 
HETATM   24  C   UNL     1     -43.647 -55.083  14.826  1.00  0.00     0.002 A 
HETATM   25  C   UNL     1     -42.333 -54.638  14.638  1.00  0.00     0.032 A 
ENDBRANCH  15  16
ENDBRANCH   1  15
TORSDOF 8
ENDMDL
MODEL 4
REMARK VINA RESULT:      -5.4      3.544      5.897
REMARK  8 active torsions:
REMARK  status: ('A' for Active; 'I' for Inactive)
REMARK    1  A    between atoms: O_2  and  C_3 
REMARK    2  A    between atoms: C_6  and  C_7 
REMARK    3  A    between atoms: C_7  and  O_8 
REMARK    4  A    between atoms: O_8  and  C_9 
REMARK    5  A    between atoms: C_9  and  C_10 
REMARK    6  A    between atoms: C_10  and  O_11 
REMARK    7  A    between atoms: C_10  and  C_12 
REMARK    8  A    between atoms: C_12  and  N_13 
ROOT
HETATM    1  C   UNL     1     -40.613 -49.473  11.483  1.00  0.00     0.160 C 
ENDROOT
BRANCH   1   2
HETATM    2  C   UNL     1     -39.852 -48.153  11.681  1.00  0.00     0.201 C 
BRANCH   2   3
HETATM    3  O   UNL     1     -40.788 -47.095  11.912  1.00  0.00    -0.384 OA
BRANCH   3   4
HETATM    4  C   UNL     1     -41.093 -46.384  10.711  1.00  0.00     0.206 C 
BRANCH   4   5
HETATM    5  C   UNL     1     -42.516 -46.687  10.314  1.00  0.00    -0.034 A 
HETATM    6  C   UNL     1     -43.043 -46.121   9.145  1.00  0.00     0.012 A 
HETATM    7  C   UNL     1     -44.333 -46.438   8.718  1.00  0.00     0.037 A 
HETATM    8  C   UNL     1     -45.112 -47.336   9.448  1.00  0.00     0.068 A 
HETATM    9  C   UNL     1     -44.611 -47.866  10.637  1.00  0.00     0.037 A 
HETATM   10  C   UNL     1     -43.316 -47.551  11.065  1.00  0.00     0.012 A 
BRANCH   8  11
HETATM   11  O   UNL     1     -46.377 -47.727   9.099  1.00  0.00    -0.356 OA
HETATM   12  C   UNL     1     -46.429 -48.716   8.073  1.00  0.00     0.210 C 
ENDBRANCH   8  11
ENDBRANCH   4   5
ENDBRANCH   3   4
ENDBRANCH   2   3
ENDBRANCH   1   2
BRANCH   1  13
HETATM   13  O   UNL     1     -40.183 -50.083  10.260  1.00  0.00    -0.392 OA
HETATM   14  H   UNL     1     -40.213 -51.049  10.377  1.00  0.00     0.210 HD
ENDBRANCH   1  13
BRANCH   1  15
HETATM   15  C   UNL     1     -40.394 -50.402  12.686  1.00  0.00     0.164 C 
BRANCH  15  16
HETATM   16  N   UNL     1     -41.243 -51.579  12.678  1.00  0.00    -0.339 N 
HETATM   17  C   UNL     1     -40.838 -52.835  12.317  1.00  0.00     0.184 A 
HETATM   18  N   UNL     1     -41.851 -53.668  12.237  1.00  0.00    -0.350 N 
HETATM   19  C   UNL     1     -42.958 -52.922  12.564  1.00  0.00     0.060 A 
ATOM     20  HN  UNL     1     -41.822 -54.656  11.987  1.00  0.00     0.166 HD
HETATM   21  C   UNL     1     -44.307 -53.300  12.609  1.00  0.00     0.032 A 
HETATM   22  C   UNL     1     -42.603 -51.608  12.872  1.00  0.00     0.062 A 
HETATM   23  C   UNL     1     -45.262 -52.347  12.979  1.00  0.00     0.002 A 
HETATM   24  C   UNL     1     -44.883 -51.045  13.305  1.00  0.00     0.002 A 
HETATM   25  C   UNL     1     -43.543 -50.643  13.255  1.00  0.00     0.032 A 
ENDBRANCH  15  16
ENDBRANCH   1  15
TORSDOF 8
ENDMDL
MODEL 5
REMARK VINA RESULT:      -5.3      3.080      6.218
REMARK  8 active torsions:
REMARK  status: ('A' for Active; 'I' for Inactive)
REMARK    1  A    between atoms: O_2  and  C_3 
REMARK    2  A    between atoms: C_6  and  C_7 
REMARK    3  A    between atoms: C_7  and  O_8 
REMARK    4  A    between atoms: O_8  and  C_9 
REMARK    5  A    between atoms: C_9  and  C_10 
REMARK    6  A    between atoms: C_10  and  O_11 
REMARK    7  A    between atoms: C_10  and  C_12 
REMARK    8  A    between atoms: C_12  and  N_13 
ROOT
HETATM    1  C   UNL     1     -41.024 -52.301  12.348  1.00  0.00     0.160 C 
ENDROOT
BRANCH   1   2
HETATM    2  C   UNL     1     -39.849 -51.400  12.758  1.00  0.00     0.201 C 
BRANCH   2   3
HETATM    3  O   UNL     1     -39.805 -50.256  11.899  1.00  0.00    -0.384 OA
BRANCH   3   4
HETATM    4  C   UNL     1     -41.113 -49.822  11.525  1.00  0.00     0.206 C 
BRANCH   4   5
HETATM    5  C   UNL     1     -41.052 -48.365  11.140  1.00  0.00    -0.034 A 
HETATM    6  C   UNL     1     -42.123 -47.787  10.443  1.00  0.00     0.012 A 
HETATM    7  C   UNL     1     -42.122 -46.426  10.135  1.00  0.00     0.037 A 
HETATM    8  C   UNL     1     -41.054 -45.620  10.528  1.00  0.00     0.068 A 
HETATM    9  C   UNL     1     -39.964 -46.197  11.179  1.00  0.00     0.037 A 
HETATM   10  C   UNL     1     -39.965 -47.561  11.492  1.00  0.00     0.012 A 
BRANCH   8  11
HETATM   11  O   UNL     1     -40.972 -44.273  10.292  1.00  0.00    -0.356 OA
HETATM   12  C   UNL     1     -40.446 -43.513  11.378  1.00  0.00     0.210 C 
ENDBRANCH   8  11
ENDBRANCH   4   5
ENDBRANCH   3   4
ENDBRANCH   2   3
ENDBRANCH   1   2
BRANCH   1  13
HETATM   13  O   UNL     1     -40.518 -53.434  11.632  1.00  0.00    -0.392 OA
HETATM   14  H   UNL     1     -40.839 -54.239  12.075  1.00  0.00     0.210 HD
ENDBRANCH   1  13
BRANCH   1  15
HETATM   15  C   UNL     1     -41.830 -52.727  13.584  1.00  0.00     0.164 C 
BRANCH  15  16
HETATM   16  N   UNL     1     -43.266 -52.709  13.381  1.00  0.00    -0.339 N 
HETATM   17  C   UNL     1     -43.898 -53.055  12.218  1.00  0.00     0.184 A 
HETATM   18  N   UNL     1     -45.182 -52.780  12.262  1.00  0.00    -0.350 N 
HETATM   19  C   UNL     1     -45.392 -52.238  13.508  1.00  0.00     0.060 A 
ATOM     20  HN  UNL     1     -45.874 -52.936  11.530  1.00  0.00     0.166 HD
HETATM   21  C   UNL     1     -46.573 -51.739  14.075  1.00  0.00     0.032 A 
HETATM   22  C   UNL     1     -44.209 -52.204  14.245  1.00  0.00     0.062 A 
HETATM   23  C   UNL     1     -46.532 -51.234  15.379  1.00  0.00     0.002 A 
HETATM   24  C   UNL     1     -45.343 -51.231  16.107  1.00  0.00     0.002 A 
HETATM   25  C   UNL     1     -44.150 -51.712  15.555  1.00  0.00     0.032 A 
ENDBRANCH  15  16
ENDBRANCH   1  15
TORSDOF 8
ENDMDL
MODEL 6
REMARK VINA RESULT:      -5.3      2.099      3.720
REMARK  8 active torsions:
REMARK  status: ('A' for Active; 'I' for Inactive)
REMARK    1  A    between atoms: O_2  and  C_3 
REMARK    2  A    between atoms: C_6  and  C_7 
REMARK    3  A    between atoms: C_7  and  O_8 
REMARK    4  A    between atoms: O_8  and  C_9 
REMARK    5  A    between atoms: C_9  and  C_10 
REMARK    6  A    between atoms: C_10  and  O_11 
REMARK    7  A    between atoms: C_10  and  C_12 
REMARK    8  A    between atoms: C_12  and  N_13 
ROOT
HETATM    1  C   UNL     1     -40.652 -53.415  12.964  1.00  0.00     0.160 C 
ENDROOT
BRANCH   1   2
HETATM    2  C   UNL     1     -42.069 -53.748  13.457  1.00  0.00     0.201 C 
BRANCH   2   3
HETATM    3  O   UNL     1     -43.030 -53.174  12.565  1.00  0.00    -0.384 OA
BRANCH   3   4
HETATM    4  C   UNL     1     -44.259 -53.903  12.568  1.00  0.00     0.206 C 
BRANCH   4   5
HETATM    5  C   UNL     1     -45.189 -53.286  13.581  1.00  0.00    -0.034 A 
HETATM    6  C   UNL     1     -45.718 -52.008  13.347  1.00  0.00     0.012 A 
HETATM    7  C   UNL     1     -46.634 -51.442  14.234  1.00  0.00     0.037 A 
HETATM    8  C   UNL     1     -47.044 -52.150  15.364  1.00  0.00     0.068 A 
HETATM    9  C   UNL     1     -46.486 -53.401  15.628  1.00  0.00     0.037 A 
HETATM   10  C   UNL     1     -45.570 -53.971  14.737  1.00  0.00     0.012 A 
BRANCH   8  11
HETATM   11  O   UNL     1     -47.953 -51.690  16.279  1.00  0.00    -0.356 OA
HETATM   12  C   UNL     1     -47.388 -50.928  17.344  1.00  0.00     0.210 C 
ENDBRANCH   8  11
ENDBRANCH   4   5
ENDBRANCH   3   4
ENDBRANCH   2   3
ENDBRANCH   1   2
BRANCH   1  13
HETATM   13  O   UNL     1     -40.628 -53.472  11.533  1.00  0.00    -0.392 OA
HETATM   14  H   UNL     1     -40.754 -52.569  11.192  1.00  0.00     0.210 HD
ENDBRANCH   1  13
BRANCH   1  15
HETATM   15  C   UNL     1     -40.215 -52.037  13.482  1.00  0.00     0.164 C 
BRANCH  15  16
HETATM   16  N   UNL     1     -40.206 -51.004  12.464  1.00  0.00    -0.339 N 
HETATM   17  C   UNL     1     -39.124 -50.668  11.697  1.00  0.00     0.184 A 
HETATM   18  N   UNL     1     -39.350 -49.589  10.983  1.00  0.00    -0.350 N 
HETATM   19  C   UNL     1     -40.635 -49.212  11.297  1.00  0.00     0.060 A 
ATOM     20  HN  UNL     1     -38.711 -49.129  10.336  1.00  0.00     0.166 HD
HETATM   21  C   UNL     1     -41.376 -48.111  10.847  1.00  0.00     0.032 A 
HETATM   22  C   UNL     1     -41.209 -50.099  12.207  1.00  0.00     0.062 A 
HETATM   23  C   UNL     1     -42.683 -47.941  11.315  1.00  0.00     0.002 A 
HETATM   24  C   UNL     1     -43.246 -48.853  12.208  1.00  0.00     0.002 A 
HETATM   25  C   UNL     1     -42.519 -49.954  12.679  1.00  0.00     0.032 A 
ENDBRANCH  15  16
ENDBRANCH   1  15
TORSDOF 8
ENDMDL
MODEL 7
REMARK VINA RESULT:      -5.3      2.964      4.206
REMARK  8 active torsions:
REMARK  status: ('A' for Active; 'I' for Inactive)
REMARK    1  A    between atoms: O_2  and  C_3 
REMARK    2  A    between atoms: C_6  and  C_7 
REMARK    3  A    between atoms: C_7  and  O_8 
REMARK    4  A    between atoms: O_8  and  C_9 
REMARK    5  A    between atoms: C_9  and  C_10 
REMARK    6  A    between atoms: C_10  and  O_11 
REMARK    7  A    between atoms: C_10  and  C_12 
REMARK    8  A    between atoms: C_12  and  N_13 
ROOT
HETATM    1  C   UNL     1     -40.739 -49.368  11.460  1.00  0.00     0.160 C 
ENDROOT
BRANCH   1   2
HETATM    2  C   UNL     1     -40.911 -50.533  12.448  1.00  0.00     0.201 C 
BRANCH   2   3
HETATM    3  O   UNL     1     -41.318 -51.706  11.734  1.00  0.00    -0.384 OA
BRANCH   3   4
HETATM    4  C   UNL     1     -40.921 -52.901  12.407  1.00  0.00     0.206 C 
BRANCH   4   5
HETATM    5  C   UNL     1     -42.143 -53.550  13.009  1.00  0.00    -0.034 A 
HETATM    6  C   UNL     1     -42.009 -54.348  14.154  1.00  0.00     0.012 A 
HETATM    7  C   UNL     1     -43.131 -54.904  14.770  1.00  0.00     0.037 A 
HETATM    8  C   UNL     1     -44.405 -54.660  14.258  1.00  0.00     0.068 A 
HETATM    9  C   UNL     1     -44.541 -53.905  13.092  1.00  0.00     0.037 A 
HETATM   10  C   UNL     1     -43.417 -53.345  12.475  1.00  0.00     0.012 A 
BRANCH   8  11
HETATM   11  O   UNL     1     -45.565 -55.141  14.804  1.00  0.00    -0.356 OA
HETATM   12  C   UNL     1     -46.655 -54.222  14.781  1.00  0.00     0.210 C 
ENDBRANCH   8  11
ENDBRANCH   4   5
ENDBRANCH   3   4
ENDBRANCH   2   3
ENDBRANCH   1   2
BRANCH   1  13
HETATM   13  O   UNL     1     -40.210 -49.873  10.228  1.00  0.00    -0.392 OA
HETATM   14  H   UNL     1     -40.296 -50.843  10.238  1.00  0.00     0.210 HD
ENDBRANCH   1  13
BRANCH   1  15
HETATM   15  C   UNL     1     -42.076 -48.644  11.248  1.00  0.00     0.164 C 
BRANCH  15  16
HETATM   16  N   UNL     1     -42.119 -47.315  11.828  1.00  0.00    -0.339 N 
HETATM   17  C   UNL     1     -43.061 -46.878  12.719  1.00  0.00     0.184 A 
HETATM   18  N   UNL     1     -42.959 -45.588  12.941  1.00  0.00    -0.350 N 
HETATM   19  C   UNL     1     -41.904 -45.170  12.165  1.00  0.00     0.060 A 
ATOM     20  HN  UNL     1     -43.538 -45.017  13.557  1.00  0.00     0.166 HD
HETATM   21  C   UNL     1     -41.377 -43.883  11.995  1.00  0.00     0.032 A 
HETATM   22  C   UNL     1     -41.338 -46.241  11.473  1.00  0.00     0.062 A 
HETATM   23  C   UNL     1     -40.282 -43.711  11.140  1.00  0.00     0.002 A 
HETATM   24  C   UNL     1     -39.717 -44.798  10.475  1.00  0.00     0.002 A 
HETATM   25  C   UNL     1     -40.235 -46.091  10.622  1.00  0.00     0.032 A 
ENDBRANCH  15  16
ENDBRANCH   1  15
TORSDOF 8
ENDMDL
MODEL 8
REMARK VINA RESULT:      -5.3      2.616      3.802
REMARK  8 active torsions:
REMARK  status: ('A' for Active; 'I' for Inactive)
REMARK    1  A    between atoms: O_2  and  C_3 
REMARK    2  A    between atoms: C_6  and  C_7 
REMARK    3  A    between atoms: C_7  and  O_8 
REMARK    4  A    between atoms: O_8  and  C_9 
REMARK    5  A    between atoms: C_9  and  C_10 
REMARK    6  A    between atoms: C_10  and  O_11 
REMARK    7  A    between atoms: C_10  and  C_12 
REMARK    8  A    between atoms: C_12  and  N_13 
ROOT
HETATM    1  C   UNL     1     -38.895 -49.780  12.065  1.00  0.00     0.160 C 
ENDROOT
BRANCH   1   2
HETATM    2  C   UNL     1     -38.617 -51.047  12.889  1.00  0.00     0.201 C 
BRANCH   2   3
HETATM    3  O   UNL     1     -39.614 -52.032  12.597  1.00  0.00    -0.384 OA
BRANCH   3   4
HETATM    4  C   UNL     1     -40.003 -52.755  13.766  1.00  0.00     0.206 C 
BRANCH   4   5
HETATM    5  C   UNL     1     -41.436 -53.199  13.610  1.00  0.00    -0.034 A 
HETATM    6  C   UNL     1     -42.243 -52.601  12.631  1.00  0.00     0.012 A 
HETATM    7  C   UNL     1     -43.551 -53.040  12.419  1.00  0.00     0.037 A 
HETATM    8  C   UNL     1     -44.068 -54.091  13.177  1.00  0.00     0.068 A 
HETATM    9  C   UNL     1     -43.288 -54.658  14.184  1.00  0.00     0.037 A 
HETATM   10  C   UNL     1     -41.975 -54.221  14.395  1.00  0.00     0.012 A 
BRANCH   8  11
HETATM   11  O   UNL     1     -45.329 -54.605  13.028  1.00  0.00    -0.356 OA
HETATM   12  C   UNL     1     -46.030 -54.816  14.252  1.00  0.00     0.210 C 
ENDBRANCH   8  11
ENDBRANCH   4   5
ENDBRANCH   3   4
ENDBRANCH   2   3
ENDBRANCH   1   2
BRANCH   1  13
HETATM   13  O   UNL     1     -38.711 -50.074  10.676  1.00  0.00    -0.392 OA
HETATM   14  H   UNL     1     -39.587 -50.237  10.283  1.00  0.00     0.210 HD
ENDBRANCH   1  13
BRANCH   1  15
HETATM   15  C   UNL     1     -40.310 -49.256  12.350  1.00  0.00     0.164 C 
BRANCH  15  16
HETATM   16  N   UNL     1     -40.557 -47.925  11.830  1.00  0.00    -0.339 N 
HETATM   17  C   UNL     1     -41.231 -47.648  10.672  1.00  0.00     0.184 A 
HETATM   18  N   UNL     1     -41.154 -46.375  10.358  1.00  0.00    -0.350 N 
HETATM   19  C   UNL     1     -40.404 -45.801  11.357  1.00  0.00     0.060 A 
ATOM     20  HN  UNL     1     -41.564 -45.911   9.547  1.00  0.00     0.166 HD
HETATM   21  C   UNL     1     -39.987 -44.471  11.507  1.00  0.00     0.032 A 
HETATM   22  C   UNL     1     -40.036 -46.748  12.312  1.00  0.00     0.062 A 
HETATM   23  C   UNL     1     -39.222 -44.128  12.627  1.00  0.00     0.002 A 
HETATM   24  C   UNL     1     -38.884 -45.086  13.583  1.00  0.00     0.002 A 
HETATM   25  C   UNL     1     -39.280 -46.422  13.445  1.00  0.00     0.032 A 
ENDBRANCH  15  16
ENDBRANCH   1  15
TORSDOF 8
ENDMDL
MODEL 9
REMARK VINA RESULT:      -5.3      2.233      4.040
REMARK  8 active torsions:
REMARK  status: ('A' for Active; 'I' for Inactive)
REMARK    1  A    between atoms: O_2  and  C_3 
REMARK    2  A    between atoms: C_6  and  C_7 
REMARK    3  A    between atoms: C_7  and  O_8 
REMARK    4  A    between atoms: O_8  and  C_9 
REMARK    5  A    between atoms: C_9  and  C_10 
REMARK    6  A    between atoms: C_10  and  O_11 
REMARK    7  A    between atoms: C_10  and  C_12 
REMARK    8  A    between atoms: C_12  and  N_13 
ROOT
HETATM    1  C   UNL     1     -41.130 -51.106  12.102  1.00  0.00     0.160 C 
ENDROOT
BRANCH   1   2
HETATM    2  C   UNL     1     -40.532 -50.388  13.321  1.00  0.00     0.201 C 
BRANCH   2   3
HETATM    3  O   UNL     1     -41.585 -49.794  14.088  1.00  0.00    -0.384 OA
BRANCH   3   4
HETATM    4  C   UNL     1     -41.722 -50.412  15.369  1.00  0.00     0.206 C 
BRANCH   4   5
HETATM    5  C   UNL     1     -43.132 -50.926  15.513  1.00  0.00    -0.034 A 
HETATM    6  C   UNL     1     -43.459 -51.753  16.597  1.00  0.00     0.012 A 
HETATM    7  C   UNL     1     -44.771 -52.188  16.792  1.00  0.00     0.037 A 
HETATM    8  C   UNL     1     -45.778 -51.792  15.913  1.00  0.00     0.068 A 
HETATM    9  C   UNL     1     -45.451 -51.008  14.806  1.00  0.00     0.037 A 
HETATM   10  C   UNL     1     -44.137 -50.569  14.611  1.00  0.00     0.012 A 
BRANCH   8  11
HETATM   11  O   UNL     1     -47.095 -52.146  16.033  1.00  0.00    -0.356 OA
HETATM   12  C   UNL     1     -47.868 -51.281  16.862  1.00  0.00     0.210 C 
ENDBRANCH   8  11
ENDBRANCH   4   5
ENDBRANCH   3   4
ENDBRANCH   2   3
ENDBRANCH   1   2
BRANCH   1  13
HETATM   13  O   UNL     1     -40.655 -50.475  10.907  1.00  0.00    -0.392 OA
HETATM   14  H   UNL     1     -41.309 -49.805  10.639  1.00  0.00     0.210 HD
ENDBRANCH   1  13
BRANCH   1  15
HETATM   15  C   UNL     1     -40.774 -52.600  12.132  1.00  0.00     0.164 C 
BRANCH  15  16
HETATM   16  N   UNL     1     -41.384 -53.324  13.232  1.00  0.00    -0.339 N 
HETATM   17  C   UNL     1     -40.706 -53.851  14.296  1.00  0.00     0.184 A 
HETATM   18  N   UNL     1     -41.483 -54.599  15.045  1.00  0.00    -0.350 N 
HETATM   19  C   UNL     1     -42.719 -54.551  14.445  1.00  0.00     0.060 A 
ATOM     20  HN  UNL     1     -41.225 -55.107  15.892  1.00  0.00     0.166 HD
HETATM   21  C   UNL     1     -43.911 -55.192  14.806  1.00  0.00     0.032 A 
HETATM   22  C   UNL     1     -42.694 -53.734  13.315  1.00  0.00     0.062 A 
HETATM   23  C   UNL     1     -45.053 -54.981  14.026  1.00  0.00     0.002 A 
HETATM   24  C   UNL     1     -45.012 -54.142  12.913  1.00  0.00     0.002 A 
HETATM   25  C   UNL     1     -43.828 -53.501  12.527  1.00  0.00     0.032 A 
ENDBRANCH  15  16
ENDBRANCH   1  15
TORSDOF 8
ENDMDL
