MODEL 1
REMARK VINA RESULT:      -6.4      0.000      0.000
REMARK  5 active torsions:
REMARK  status: ('A' for Active; 'I' for Inactive)
REMARK    1  A    between atoms: N_2  and  C_3 
REMARK    2  A    between atoms: N_13  and  C_14 
REMARK    3  A    between atoms: C_14  and  C_15 
REMARK    4  A    between atoms: C_15  and  O_16 
REMARK    5  A    between atoms: C_15  and  C_17 
ROOT
HETATM    1  C   UNL     1     -39.701 -50.046  11.365  1.00  0.00     0.112 A 
HETATM    2  N   UNL     1     -38.493 -49.757  10.840  1.00  0.00    -0.341 N 
ATOM      3  HN  UNL     1     -38.418 -49.206   9.984  1.00  0.00     0.167 HD
HETATM    4  C   UNL     1     -37.386 -50.207  11.466  1.00  0.00     0.183 A 
HETATM    5  N   UNL     1     -37.309 -50.945  12.578  1.00  0.00    -0.337 N 
ATOM      6  HN  UNL     1     -36.431 -51.264  12.987  1.00  0.00     0.168 HD
HETATM    7  C   UNL     1     -38.517 -51.221  13.097  1.00  0.00     0.137 A 
HETATM    8  N   UNL     1     -38.740 -51.950  14.232  1.00  0.00    -0.336 N 
ATOM      9  HN  UNL     1     -38.044 -52.400  14.827  1.00  0.00     0.168 HD
HETATM   10  C   UNL     1     -40.047 -51.945  14.390  1.00  0.00     0.185 A 
HETATM   11  N   UNL     1     -40.678 -51.250  13.399  1.00  0.00    -0.335 N 
HETATM   12  C   UNL     1     -39.707 -50.783  12.542  1.00  0.00     0.118 A 
ENDROOT
BRANCH  11  13
HETATM   13  C   UNL     1     -42.097 -50.967  13.251  1.00  0.00     0.167 C 
BRANCH  13  14
HETATM   14  C   UNL     1     -42.923 -51.897  12.340  1.00  0.00     0.171 C 
BRANCH  14  15
HETATM   15  O   UNL     1     -42.089 -52.592  11.413  1.00  0.00    -0.389 OA
HETATM   16  H   UNL     1     -41.294 -52.052  11.254  1.00  0.00     0.210 HD
ENDBRANCH  14  15
BRANCH  14  17
HETATM   17  C   UNL     1     -43.770 -52.891  13.121  1.00  0.00    -0.006 A 
HETATM   18  C   UNL     1     -43.123 -54.005  13.696  1.00  0.00     0.011 A 
HETATM   19  C   UNL     1     -43.835 -54.979  14.402  1.00  0.00     0.001 A 
HETATM   20  C   UNL     1     -45.215 -54.867  14.544  1.00  0.00     0.002 A 
HETATM   21  C   UNL     1     -45.875 -53.768  14.002  1.00  0.00     0.024 A 
HETATM   22  C   UNL     1     -45.162 -52.781  13.311  1.00  0.00     0.043 A 
HETATM   23 CL   UNL     1     -46.071 -51.419  12.756  1.00  0.00    -0.084 Cl
ENDBRANCH  14  17
ENDBRANCH  13  14
ENDBRANCH  11  13
BRANCH   1  24
HETATM   24  N   UNL     1     -40.886 -49.577  10.776  1.00  0.00    -0.281 NA
HETATM   25  C   UNL     1     -41.097 -48.151  11.000  1.00  0.00     0.114 C 
HETATM   26  H   UNL     1     -41.642 -50.092  11.226  1.00  0.00     0.128 HD
ENDBRANCH   1  24
TORSDOF 5
ENDMDL
MODEL 2
REMARK VINA RESULT:      -6.4      2.145      3.426
REMARK  5 active torsions:
REMARK  status: ('A' for Active; 'I' for Inactive)
REMARK    1  A    between atoms: N_2  and  C_3 
REMARK    2  A    between atoms: N_13  and  C_14 
REMARK    3  A    between atoms: C_14  and  C_15 
REMARK    4  A    between atoms: C_15  and  O_16 
REMARK    5  A    between atoms: C_15  and  C_17 
ROOT
HETATM    1  C   UNL     1     -42.376 -48.962  11.857  1.00  0.00     0.112 A 
HETATM    2  N   UNL     1     -42.728 -47.753  11.375  1.00  0.00    -0.341 N 
ATOM      3  HN  UNL     1     -43.700 -47.445  11.408  1.00  0.00     0.167 HD
HETATM    4  C   UNL     1     -41.774 -46.958  10.847  1.00  0.00     0.183 A 
HETATM    5  N   UNL     1     -40.468 -47.213  10.715  1.00  0.00    -0.337 N 
ATOM      6  HN  UNL     1     -39.805 -46.566  10.289  1.00  0.00     0.168 HD
HETATM    7  C   UNL     1     -40.126 -48.415  11.207  1.00  0.00     0.137 A 
HETATM    8  N   UNL     1     -38.861 -48.934  11.213  1.00  0.00    -0.336 N 
ATOM      9  HN  UNL     1     -38.014 -48.508  10.837  1.00  0.00     0.168 HD
HETATM   10  C   UNL     1     -38.974 -50.101  11.810  1.00  0.00     0.185 A 
HETATM   11  N   UNL     1     -40.261 -50.363  12.182  1.00  0.00    -0.335 N 
HETATM   12  C   UNL     1     -41.028 -49.289  11.789  1.00  0.00     0.118 A 
ENDROOT
BRANCH  11  13
HETATM   13  C   UNL     1     -40.780 -51.509  12.911  1.00  0.00     0.167 C 
BRANCH  13  14
HETATM   14  C   UNL     1     -41.449 -52.634  12.097  1.00  0.00     0.171 C 
BRANCH  14  15
HETATM   15  O   UNL     1     -40.477 -53.481  11.483  1.00  0.00    -0.389 OA
HETATM   16  H   UNL     1     -40.229 -53.088  10.627  1.00  0.00     0.210 HD
ENDBRANCH  14  15
BRANCH  14  17
HETATM   17  C   UNL     1     -42.414 -53.470  12.925  1.00  0.00    -0.006 A 
HETATM   18  C   UNL     1     -43.774 -53.476  12.550  1.00  0.00     0.011 A 
HETATM   19  C   UNL     1     -44.730 -54.192  13.277  1.00  0.00     0.001 A 
HETATM   20  C   UNL     1     -44.349 -54.915  14.404  1.00  0.00     0.002 A 
HETATM   21  C   UNL     1     -43.011 -54.940  14.785  1.00  0.00     0.024 A 
HETATM   22  C   UNL     1     -42.049 -54.239  14.047  1.00  0.00     0.043 A 
HETATM   23 CL   UNL     1     -40.407 -54.412  14.561  1.00  0.00    -0.084 Cl
ENDBRANCH  14  17
ENDBRANCH  13  14
ENDBRANCH  11  13
BRANCH   1  24
HETATM   24  N   UNL     1     -43.319 -49.817  12.447  1.00  0.00    -0.281 NA
HETATM   25  C   UNL     1     -43.461 -49.592  13.882  1.00  0.00     0.114 C 
HETATM   26  H   UNL     1     -42.967 -50.763  12.300  1.00  0.00     0.128 HD
ENDBRANCH   1  24
TORSDOF 5
ENDMDL
MODEL 3
REMARK VINA RESULT:      -6.3      2.152      3.230
REMARK  5 active torsions:
REMARK  status: ('A' for Active; 'I' for Inactive)
REMARK    1  A    between atoms: N_2  and  C_3 
REMARK    2  A    between atoms: N_13  and  C_14 
REMARK    3  A    between atoms: C_14  and  C_15 
REMARK    4  A    between atoms: C_15  and  O_16 
REMARK    5  A    between atoms: C_15  and  C_17 
ROOT
HETATM    1  C   UNL     1     -39.757 -48.955  11.525  1.00  0.00     0.112 A 
HETATM    2  N   UNL     1     -39.683 -47.701  11.035  1.00  0.00    -0.341 N 
ATOM      3  HN  UNL     1     -39.014 -47.469  10.300  1.00  0.00     0.167 HD
HETATM    4  C   UNL     1     -40.509 -46.757  11.534  1.00  0.00     0.183 A 
HETATM    5  N   UNL     1     -41.425 -46.889  12.498  1.00  0.00    -0.337 N 
ATOM      6  HN  UNL     1     -42.006 -46.121  12.836  1.00  0.00     0.168 HD
HETATM    7  C   UNL     1     -41.496 -48.143  12.973  1.00  0.00     0.137 A 
HETATM    8  N   UNL     1     -42.346 -48.567  13.956  1.00  0.00    -0.336 N 
ATOM      9  HN  UNL     1     -43.021 -48.007  14.477  1.00  0.00     0.168 HD
HETATM   10  C   UNL     1     -42.106 -49.855  14.083  1.00  0.00     0.185 A 
HETATM   11  N   UNL     1     -41.129 -50.279  13.229  1.00  0.00    -0.335 N 
HETATM   12  C   UNL     1     -40.709 -49.183  12.509  1.00  0.00     0.118 A 
ENDROOT
BRANCH  11  13
HETATM   13  C   UNL     1     -40.624 -51.628  13.025  1.00  0.00     0.167 C 
BRANCH  13  14
HETATM   14  C   UNL     1     -41.449 -52.574  12.131  1.00  0.00     0.171 C 
BRANCH  14  15
HETATM   15  O   UNL     1     -40.606 -53.429  11.359  1.00  0.00    -0.389 OA
HETATM   16  H   UNL     1     -40.126 -52.880  10.713  1.00  0.00     0.210 HD
ENDBRANCH  14  15
BRANCH  14  17
HETATM   17  C   UNL     1     -42.451 -53.407  12.917  1.00  0.00    -0.006 A 
HETATM   18  C   UNL     1     -43.806 -53.354  12.528  1.00  0.00     0.011 A 
HETATM   19  C   UNL     1     -44.793 -54.065  13.218  1.00  0.00     0.001 A 
HETATM   20  C   UNL     1     -44.449 -54.842  14.321  1.00  0.00     0.002 A 
HETATM   21  C   UNL     1     -43.116 -54.925  14.714  1.00  0.00     0.024 A 
HETATM   22  C   UNL     1     -42.123 -54.230  14.012  1.00  0.00     0.043 A 
HETATM   23 CL   UNL     1     -40.494 -54.476  14.536  1.00  0.00    -0.084 Cl
ENDBRANCH  14  17
ENDBRANCH  13  14
ENDBRANCH  11  13
BRANCH   1  24
HETATM   24  N   UNL     1     -38.946 -49.985  11.022  1.00  0.00    -0.281 NA
HETATM   25  C   UNL     1     -37.547 -49.835  11.405  1.00  0.00     0.114 C 
HETATM   26  H   UNL     1     -39.015 -49.922  10.007  1.00  0.00     0.128 HD
ENDBRANCH   1  24
TORSDOF 5
ENDMDL
MODEL 4
REMARK VINA RESULT:      -6.2      2.085      2.366
REMARK  5 active torsions:
REMARK  status: ('A' for Active; 'I' for Inactive)
REMARK    1  A    between atoms: N_2  and  C_3 
REMARK    2  A    between atoms: N_13  and  C_14 
REMARK    3  A    between atoms: C_14  and  C_15 
REMARK    4  A    between atoms: C_15  and  O_16 
REMARK    5  A    between atoms: C_15  and  C_17 
ROOT
HETATM    1  C   UNL     1     -39.832 -50.110  11.317  1.00  0.00     0.112 A 
HETATM    2  N   UNL     1     -38.585 -49.655  11.077  1.00  0.00    -0.341 N 
ATOM      3  HN  UNL     1     -38.409 -48.998  10.317  1.00  0.00     0.167 HD
HETATM    4  C   UNL     1     -37.573 -50.084  11.861  1.00  0.00     0.183 A 
HETATM    5  N   UNL     1     -37.628 -50.946  12.881  1.00  0.00    -0.337 N 
ATOM      6  HN  UNL     1     -36.814 -51.237  13.422  1.00  0.00     0.168 HD
HETATM    7  C   UNL     1     -38.876 -51.386  13.117  1.00  0.00     0.137 A 
HETATM    8  N   UNL     1     -39.229 -52.266  14.101  1.00  0.00    -0.336 N 
ATOM      9  HN  UNL     1     -38.613 -52.726  14.772  1.00  0.00     0.168 HD
HETATM   10  C   UNL     1     -40.535 -52.392  13.994  1.00  0.00     0.185 A 
HETATM   11  N   UNL     1     -41.039 -51.635  12.976  1.00  0.00    -0.335 N 
HETATM   12  C   UNL     1     -39.980 -50.985  12.384  1.00  0.00     0.118 A 
ENDROOT
BRANCH  11  13
HETATM   13  C   UNL     1     -42.427 -51.458  12.579  1.00  0.00     0.167 C 
BRANCH  13  14
HETATM   14  C   UNL     1     -43.203 -50.277  13.195  1.00  0.00     0.171 C 
BRANCH  14  15
HETATM   15  O   UNL     1     -43.594 -49.333  12.198  1.00  0.00    -0.389 OA
HETATM   16  H   UNL     1     -42.842 -49.204  11.591  1.00  0.00     0.210 HD
ENDBRANCH  14  15
BRANCH  14  17
HETATM   17  C   UNL     1     -44.421 -50.722  13.992  1.00  0.00    -0.006 A 
HETATM   18  C   UNL     1     -45.532 -51.223  13.280  1.00  0.00     0.011 A 
HETATM   19  C   UNL     1     -46.700 -51.622  13.936  1.00  0.00     0.001 A 
HETATM   20  C   UNL     1     -46.790 -51.524  15.322  1.00  0.00     0.002 A 
HETATM   21  C   UNL     1     -45.701 -51.051  16.049  1.00  0.00     0.024 A 
HETATM   22  C   UNL     1     -44.523 -50.668  15.396  1.00  0.00     0.043 A 
HETATM   23 CL   UNL     1     -43.207 -50.178  16.405  1.00  0.00    -0.084 Cl
ENDBRANCH  14  17
ENDBRANCH  13  14
ENDBRANCH  11  13
BRANCH   1  24
HETATM   24  N   UNL     1     -40.928 -49.673  10.556  1.00  0.00    -0.281 NA
HETATM   25  C   UNL     1     -41.141 -48.233  10.655  1.00  0.00     0.114 C 
HETATM   26  H   UNL     1     -41.741 -50.150  10.943  1.00  0.00     0.128 HD
ENDBRANCH   1  24
TORSDOF 5
ENDMDL
MODEL 5
REMARK VINA RESULT:      -6.2      3.345      5.299
REMARK  5 active torsions:
REMARK  status: ('A' for Active; 'I' for Inactive)
REMARK    1  A    between atoms: N_2  and  C_3 
REMARK    2  A    between atoms: N_13  and  C_14 
REMARK    3  A    between atoms: C_14  and  C_15 
REMARK    4  A    between atoms: C_15  and  O_16 
REMARK    5  A    between atoms: C_15  and  C_17 
ROOT
HETATM    1  C   UNL     1     -42.204 -54.801  14.925  1.00  0.00     0.112 A 
HETATM    2  N   UNL     1     -40.896 -54.512  15.075  1.00  0.00    -0.341 N 
ATOM      3  HN  UNL     1     -40.354 -54.934  15.829  1.00  0.00     0.167 HD
HETATM    4  C   UNL     1     -40.315 -53.655  14.209  1.00  0.00     0.183 A 
HETATM    5  N   UNL     1     -40.878 -53.011  13.183  1.00  0.00    -0.337 N 
ATOM      6  HN  UNL     1     -40.376 -52.362  12.577  1.00  0.00     0.168 HD
HETATM    7  C   UNL     1     -42.179 -53.312  13.037  1.00  0.00     0.137 A 
HETATM    8  N   UNL     1     -43.002 -52.807  12.070  1.00  0.00    -0.336 N 
ATOM      9  HN  UNL     1     -42.766 -52.128  11.346  1.00  0.00     0.168 HD
HETATM   10  C   UNL     1     -44.166 -53.387  12.275  1.00  0.00     0.185 A 
HETATM   11  N   UNL     1     -44.131 -54.239  13.341  1.00  0.00    -0.335 N 
HETATM   12  C   UNL     1     -42.856 -54.197  13.859  1.00  0.00     0.118 A 
ENDROOT
BRANCH  11  13
HETATM   13  C   UNL     1     -45.186 -55.103  13.846  1.00  0.00     0.167 C 
BRANCH  13  14
HETATM   14  C   UNL     1     -46.486 -54.436  14.337  1.00  0.00     0.171 C 
BRANCH  14  15
HETATM   15  O   UNL     1     -47.429 -55.406  14.792  1.00  0.00    -0.389 OA
HETATM   16  H   UNL     1     -47.025 -55.904  15.525  1.00  0.00     0.210 HD
ENDBRANCH  14  15
BRANCH  14  17
HETATM   17  C   UNL     1     -46.244 -53.399  15.425  1.00  0.00    -0.006 A 
HETATM   18  C   UNL     1     -45.852 -53.856  16.700  1.00  0.00     0.011 A 
HETATM   19  C   UNL     1     -45.641 -52.970  17.761  1.00  0.00     0.001 A 
HETATM   20  C   UNL     1     -45.825 -51.603  17.574  1.00  0.00     0.002 A 
HETATM   21  C   UNL     1     -46.194 -51.124  16.319  1.00  0.00     0.024 A 
HETATM   22  C   UNL     1     -46.387 -52.009  15.250  1.00  0.00     0.043 A 
HETATM   23 CL   UNL     1     -46.759 -51.297  13.719  1.00  0.00    -0.084 Cl
ENDBRANCH  14  17
ENDBRANCH  13  14
ENDBRANCH  11  13
BRANCH   1  24
HETATM   24  N   UNL     1     -42.854 -55.710  15.775  1.00  0.00    -0.281 NA
HETATM   25  C   UNL     1     -42.279 -55.735  17.115  1.00  0.00     0.114 C 
HETATM   26  H   UNL     1     -42.728 -56.628  15.349  1.00  0.00     0.128 HD
ENDBRANCH   1  24
TORSDOF 5
ENDMDL
MODEL 6
REMARK VINA RESULT:      -6.1      2.418      3.512
REMARK  5 active torsions:
REMARK  status: ('A' for Active; 'I' for Inactive)
REMARK    1  A    between atoms: N_2  and  C_3 
REMARK    2  A    between atoms: N_13  and  C_14 
REMARK    3  A    between atoms: C_14  and  C_15 
REMARK    4  A    between atoms: C_15  and  O_16 
REMARK    5  A    between atoms: C_15  and  C_17 
ROOT
HETATM    1  C   UNL     1     -41.844 -50.752  13.820  1.00  0.00     0.112 A 
HETATM    2  N   UNL     1     -41.490 -49.708  13.042  1.00  0.00    -0.341 N 
ATOM      3  HN  UNL     1     -41.656 -48.750  13.352  1.00  0.00     0.167 HD
HETATM    4  C   UNL     1     -40.912 -49.952  11.847  1.00  0.00     0.183 A 
HETATM    5  N   UNL     1     -40.639 -51.136  11.290  1.00  0.00    -0.337 N 
ATOM      6  HN  UNL     1     -40.212 -51.244  10.370  1.00  0.00     0.168 HD
HETATM    7  C   UNL     1     -40.988 -52.168  12.075  1.00  0.00     0.137 A 
HETATM    8  N   UNL     1     -40.818 -53.489  11.764  1.00  0.00    -0.336 N 
ATOM      9  HN  UNL     1     -40.433 -53.879  10.904  1.00  0.00     0.168 HD
HETATM   10  C   UNL     1     -41.261 -54.146  12.815  1.00  0.00     0.185 A 
HETATM   11  N   UNL     1     -41.717 -53.306  13.789  1.00  0.00    -0.335 N 
HETATM   12  C   UNL     1     -41.563 -52.018  13.326  1.00  0.00     0.118 A 
ENDROOT
BRANCH  11  13
HETATM   13  C   UNL     1     -42.225 -53.639  15.110  1.00  0.00     0.167 C 
BRANCH  13  14
HETATM   14  C   UNL     1     -43.632 -54.261  15.202  1.00  0.00     0.171 C 
BRANCH  14  15
HETATM   15  O   UNL     1     -43.782 -55.038  16.390  1.00  0.00    -0.389 OA
HETATM   16  H   UNL     1     -44.733 -55.191  16.536  1.00  0.00     0.210 HD
ENDBRANCH  14  15
BRANCH  14  17
HETATM   17  C   UNL     1     -44.744 -53.225  15.117  1.00  0.00    -0.006 A 
HETATM   18  C   UNL     1     -45.228 -52.673  16.322  1.00  0.00     0.011 A 
HETATM   19  C   UNL     1     -46.268 -51.740  16.331  1.00  0.00     0.001 A 
HETATM   20  C   UNL     1     -46.857 -51.341  15.135  1.00  0.00     0.002 A 
HETATM   21  C   UNL     1     -46.386 -51.857  13.931  1.00  0.00     0.024 A 
HETATM   22  C   UNL     1     -45.331 -52.777  13.917  1.00  0.00     0.043 A 
HETATM   23 CL   UNL     1     -44.771 -53.285  12.362  1.00  0.00    -0.084 Cl
ENDBRANCH  14  17
ENDBRANCH  13  14
ENDBRANCH  11  13
BRANCH   1  24
HETATM   24  N   UNL     1     -42.418 -50.559  15.086  1.00  0.00    -0.281 NA
HETATM   25  C   UNL     1     -43.471 -49.549  15.076  1.00  0.00     0.114 C 
HETATM   26  H   UNL     1     -41.662 -50.235  15.687  1.00  0.00     0.128 HD
ENDBRANCH   1  24
TORSDOF 5
ENDMDL
MODEL 7
REMARK VINA RESULT:      -6.1      1.761      3.126
REMARK  5 active torsions:
REMARK  status: ('A' for Active; 'I' for Inactive)
REMARK    1  A    between atoms: N_2  and  C_3 
REMARK    2  A    between atoms: N_13  and  C_14 
REMARK    3  A    between atoms: C_14  and  C_15 
REMARK    4  A    between atoms: C_15  and  O_16 
REMARK    5  A    between atoms: C_15  and  C_17 
ROOT
HETATM    1  C   UNL     1     -39.115 -51.143  13.269  1.00  0.00     0.112 A 
HETATM    2  N   UNL     1     -37.830 -51.211  12.864  1.00  0.00    -0.341 N 
ATOM      3  HN  UNL     1     -37.150 -51.763  13.387  1.00  0.00     0.167 HD
HETATM    4  C   UNL     1     -37.460 -50.536  11.756  1.00  0.00     0.183 A 
HETATM    5  N   UNL     1     -38.216 -49.763  10.970  1.00  0.00    -0.337 N 
ATOM      6  HN  UNL     1     -37.861 -49.268  10.152  1.00  0.00     0.168 HD
HETATM    7  C   UNL     1     -39.495 -49.709  11.377  1.00  0.00     0.137 A 
HETATM    8  N   UNL     1     -40.490 -49.002  10.761  1.00  0.00    -0.336 N 
ATOM      9  HN  UNL     1     -40.409 -48.408   9.936  1.00  0.00     0.168 HD
HETATM   10  C   UNL     1     -41.573 -49.254  11.464  1.00  0.00     0.185 A 
HETATM   11  N   UNL     1     -41.319 -50.088  12.514  1.00  0.00    -0.335 N 
HETATM   12  C   UNL     1     -39.974 -50.385  12.486  1.00  0.00     0.118 A 
ENDROOT
BRANCH  11  13
HETATM   13  C   UNL     1     -42.254 -50.644  13.479  1.00  0.00     0.167 C 
BRANCH  13  14
HETATM   14  C   UNL     1     -43.630 -51.106  12.961  1.00  0.00     0.171 C 
BRANCH  14  15
HETATM   15  O   UNL     1     -43.549 -52.391  12.345  1.00  0.00    -0.389 OA
HETATM   16  H   UNL     1     -43.521 -53.065  13.048  1.00  0.00     0.210 HD
ENDBRANCH  14  15
BRANCH  14  17
HETATM   17  C   UNL     1     -44.697 -51.117  14.045  1.00  0.00    -0.006 A 
HETATM   18  C   UNL     1     -44.299 -50.836  15.369  1.00  0.00     0.011 A 
HETATM   19  C   UNL     1     -45.213 -50.857  16.427  1.00  0.00     0.001 A 
HETATM   20  C   UNL     1     -46.548 -51.169  16.188  1.00  0.00     0.002 A 
HETATM   21  C   UNL     1     -46.971 -51.432  14.887  1.00  0.00     0.024 A 
HETATM   22  C   UNL     1     -46.061 -51.393  13.823  1.00  0.00     0.043 A 
HETATM   23 CL   UNL     1     -46.712 -51.651  12.243  1.00  0.00    -0.084 Cl
ENDBRANCH  14  17
ENDBRANCH  13  14
ENDBRANCH  11  13
BRANCH   1  24
HETATM   24  N   UNL     1     -39.565 -51.850  14.395  1.00  0.00    -0.281 NA
HETATM   25  C   UNL     1     -39.138 -53.245  14.389  1.00  0.00     0.114 C 
HETATM   26  H   UNL     1     -40.583 -51.821  14.353  1.00  0.00     0.128 HD
ENDBRANCH   1  24
TORSDOF 5
ENDMDL
MODEL 8
REMARK VINA RESULT:      -6.1      2.895      4.320
REMARK  5 active torsions:
REMARK  status: ('A' for Active; 'I' for Inactive)
REMARK    1  A    between atoms: N_2  and  C_3 
REMARK    2  A    between atoms: N_13  and  C_14 
REMARK    3  A    between atoms: C_14  and  C_15 
REMARK    4  A    between atoms: C_15  and  O_16 
REMARK    5  A    between atoms: C_15  and  C_17 
ROOT
HETATM    1  C   UNL     1     -41.636 -53.107  12.803  1.00  0.00     0.112 A 
HETATM    2  N   UNL     1     -40.352 -53.240  13.192  1.00  0.00    -0.341 N 
ATOM      3  HN  UNL     1     -39.602 -52.781  12.675  1.00  0.00     0.167 HD
HETATM    4  C   UNL     1     -40.076 -53.992  14.279  1.00  0.00     0.183 A 
HETATM    5  N   UNL     1     -40.930 -54.667  15.054  1.00  0.00    -0.337 N 
ATOM      6  HN  UNL     1     -40.645 -55.231  15.855  1.00  0.00     0.168 HD
HETATM    7  C   UNL     1     -42.207 -54.521  14.662  1.00  0.00     0.137 A 
HETATM    8  N   UNL     1     -43.289 -55.090  15.273  1.00  0.00    -0.336 N 
ATOM      9  HN  UNL     1     -43.289 -55.712  16.081  1.00  0.00     0.168 HD
HETATM   10  C   UNL     1     -44.330 -54.662  14.591  1.00  0.00     0.185 A 
HETATM   11  N   UNL     1     -43.965 -53.846  13.559  1.00  0.00    -0.335 N 
HETATM   12  C   UNL     1     -42.591 -53.751  13.577  1.00  0.00     0.118 A 
ENDROOT
BRANCH  11  13
HETATM   13  C   UNL     1     -44.816 -53.133  12.620  1.00  0.00     0.167 C 
BRANCH  13  14
HETATM   14  C   UNL     1     -45.103 -51.645  12.901  1.00  0.00     0.171 C 
BRANCH  14  15
HETATM   15  O   UNL     1     -46.082 -51.124  12.003  1.00  0.00    -0.389 OA
HETATM   16  H   UNL     1     -46.681 -51.851  11.751  1.00  0.00     0.210 HD
ENDBRANCH  14  15
BRANCH  14  17
HETATM   17  C   UNL     1     -45.529 -51.385  14.339  1.00  0.00    -0.006 A 
HETATM   18  C   UNL     1     -46.859 -51.688  14.700  1.00  0.00     0.011 A 
HETATM   19  C   UNL     1     -47.337 -51.449  15.992  1.00  0.00     0.001 A 
HETATM   20  C   UNL     1     -46.498 -50.894  16.954  1.00  0.00     0.002 A 
HETATM   21  C   UNL     1     -45.176 -50.603  16.628  1.00  0.00     0.024 A 
HETATM   22  C   UNL     1     -44.689 -50.859  15.340  1.00  0.00     0.043 A 
HETATM   23 CL   UNL     1     -43.011 -50.540  15.073  1.00  0.00    -0.084 Cl
ENDBRANCH  14  17
ENDBRANCH  13  14
ENDBRANCH  11  13
BRANCH   1  24
HETATM   24  N   UNL     1     -41.987 -52.311  11.701  1.00  0.00    -0.281 NA
HETATM   25  C   UNL     1     -41.417 -50.970  11.773  1.00  0.00     0.114 C 
HETATM   26  H   UNL     1     -43.003 -52.234  11.726  1.00  0.00     0.128 HD
ENDBRANCH   1  24
TORSDOF 5
ENDMDL
MODEL 9
REMARK VINA RESULT:      -5.8      2.812      3.953
REMARK  5 active torsions:
REMARK  status: ('A' for Active; 'I' for Inactive)
REMARK    1  A    between atoms: N_2  and  C_3 
REMARK    2  A    between atoms: N_13  and  C_14 
REMARK    3  A    between atoms: C_14  and  C_15 
REMARK    4  A    between atoms: C_15  and  O_16 
REMARK    5  A    between atoms: C_15  and  C_17 
ROOT
HETATM    1  C   UNL     1     -41.595 -47.327  10.538  1.00  0.00     0.112 A 
HETATM    2  N   UNL     1     -41.260 -46.165   9.940  1.00  0.00    -0.341 N 
ATOM      3  HN  UNL     1     -41.659 -45.912   9.036  1.00  0.00     0.167 HD
HETATM    4  C   UNL     1     -40.387 -45.342  10.559  1.00  0.00     0.183 A 
HETATM    5  N   UNL     1     -39.767 -45.526  11.729  1.00  0.00    -0.337 N 
ATOM      6  HN  UNL     1     -39.103 -44.863  12.129  1.00  0.00     0.168 HD
HETATM    7  C   UNL     1     -40.114 -46.682  12.319  1.00  0.00     0.137 A 
HETATM    8  N   UNL     1     -39.642 -47.125  13.523  1.00  0.00    -0.336 N 
ATOM      9  HN  UNL     1     -38.959 -46.669  14.128  1.00  0.00     0.168 HD
HETATM   10  C   UNL     1     -40.261 -48.268  13.733  1.00  0.00     0.185 A 
HETATM   11  N   UNL     1     -41.107 -48.585  12.710  1.00  0.00    -0.335 N 
HETATM   12  C   UNL     1     -41.018 -47.578  11.775  1.00  0.00     0.118 A 
ENDROOT
BRANCH  11  13
HETATM   13  C   UNL     1     -42.006 -49.723  12.595  1.00  0.00     0.167 C 
BRANCH  13  14
HETATM   14  C   UNL     1     -41.501 -50.960  11.825  1.00  0.00     0.171 C 
BRANCH  14  15
HETATM   15  O   UNL     1     -40.433 -50.623  10.941  1.00  0.00    -0.389 OA
HETATM   16  H   UNL     1     -39.592 -50.761  11.414  1.00  0.00     0.210 HD
ENDBRANCH  14  15
BRANCH  14  17
HETATM   17  C   UNL     1     -41.075 -52.096  12.744  1.00  0.00    -0.006 A 
HETATM   18  C   UNL     1     -39.784 -52.039  13.311  1.00  0.00     0.011 A 
HETATM   19  C   UNL     1     -39.306 -53.058  14.140  1.00  0.00     0.001 A 
HETATM   20  C   UNL     1     -40.104 -54.164  14.417  1.00  0.00     0.002 A 
HETATM   21  C   UNL     1     -41.389 -54.235  13.885  1.00  0.00     0.024 A 
HETATM   22  C   UNL     1     -41.878 -53.206  13.070  1.00  0.00     0.043 A 
HETATM   23 CL   UNL     1     -43.515 -53.358  12.536  1.00  0.00    -0.084 Cl
ENDBRANCH  14  17
ENDBRANCH  13  14
ENDBRANCH  11  13
BRANCH   1  24
HETATM   24  N   UNL     1     -42.522 -48.206   9.958  1.00  0.00    -0.281 NA
HETATM   25  C   UNL     1     -43.452 -47.529   9.060  1.00  0.00     0.114 C 
HETATM   26  H   UNL     1     -43.050 -48.604  10.733  1.00  0.00     0.128 HD
ENDBRANCH   1  24
TORSDOF 5
ENDMDL
