MODEL 1
REMARK VINA RESULT:      -5.9      0.000      0.000
REMARK  3 active torsions:
REMARK  status: ('A' for Active; 'I' for Inactive)
REMARK    1  A    between atoms: C_2  and  N_3 
REMARK    2  A    between atoms: C_2  and  C_14 
REMARK       I    between atoms: N_3  and  C_4 
REMARK       I    between atoms: C_4  and  N_6 
REMARK    3  A    between atoms: N_6  and  C_7 
REMARK       I    between atoms: C_14  and  N_16 
ROOT
HETATM    1  N   UNL     1     -40.605 -47.284  11.110  1.00  0.00    -0.330 N 
HETATM    2  C   UNL     1     -41.294 -48.279  10.491  1.00  0.00     0.322 C 
HETATM    3  O   UNL     1     -42.313 -48.082   9.831  1.00  0.00    -0.247 OA
HETATM    4  N   UNL     1     -40.828 -49.548  10.647  1.00  0.00    -0.295 N 
HETATM    5  H   UNL     1     -39.708 -47.552  11.510  1.00  0.00     0.165 HD
HETATM    6  H   UNL     1     -41.401 -50.237  10.184  1.00  0.00     0.172 HD
ENDROOT
BRANCH   1   7
HETATM    7  C   UNL     1     -40.895 -45.872  10.922  1.00  0.00     0.174 C 
HETATM    8  C   UNL     1     -39.662 -45.146  10.384  1.00  0.00     0.042 C 
BRANCH   7   9
HETATM    9  C   UNL     1     -41.414 -45.182  12.209  1.00  0.00     0.242 C 
HETATM   10  O   UNL     1     -40.972 -45.486  13.322  1.00  0.00    -0.271 OA
HETATM   11  N   UNL     1     -42.279 -44.116  12.073  1.00  0.00    -0.350 N 
HETATM   12  C   UNL     1     -42.562 -43.249  13.200  1.00  0.00     0.126 C 
HETATM   13  C   UNL     1     -42.990 -43.673  10.890  1.00  0.00     0.126 C 
HETATM   14  C   UNL     1     -43.208 -42.001  12.607  1.00  0.00     0.021 C 
HETATM   15  C   UNL     1     -43.106 -42.174  11.093  1.00  0.00     0.021 C 
ENDBRANCH   7   9
ENDBRANCH   1   7
BRANCH   4  16
HETATM   16  C   UNL     1     -39.681 -49.977  11.320  1.00  0.00     0.108 A 
HETATM   17  C   UNL     1     -39.831 -50.532  12.585  1.00  0.00     0.049 A 
HETATM   18  C   UNL     1     -38.695 -50.959  13.272  1.00  0.00     0.005 A 
HETATM   19  C   UNL     1     -37.447 -50.834  12.675  1.00  0.00     0.017 A 
HETATM   20  C   UNL     1     -37.387 -50.278  11.410  1.00  0.00     0.089 A 
HETATM   21  N   UNL     1     -38.472 -49.850  10.729  1.00  0.00    -0.352 N 
ATOM     22  HN  UNL     1     -38.382 -49.442   9.798  1.00  0.00     0.166 HD
ENDBRANCH   4  16
TORSDOF 3
ENDMDL
MODEL 2
REMARK VINA RESULT:      -5.6      2.948      4.155
REMARK  3 active torsions:
REMARK  status: ('A' for Active; 'I' for Inactive)
REMARK    1  A    between atoms: C_2  and  N_3 
REMARK    2  A    between atoms: C_2  and  C_14 
REMARK       I    between atoms: N_3  and  C_4 
REMARK       I    between atoms: C_4  and  N_6 
REMARK    3  A    between atoms: N_6  and  C_7 
REMARK       I    between atoms: C_14  and  N_16 
ROOT
HETATM    1  N   UNL     1     -41.178 -49.877  12.791  1.00  0.00    -0.330 N 
HETATM    2  C   UNL     1     -40.551 -50.465  11.737  1.00  0.00     0.322 C 
HETATM    3  O   UNL     1     -39.727 -49.883  11.035  1.00  0.00    -0.247 OA
HETATM    4  N   UNL     1     -40.890 -51.752  11.451  1.00  0.00    -0.295 N 
HETATM    5  H   UNL     1     -41.734 -50.499  13.375  1.00  0.00     0.165 HD
HETATM    6  H   UNL     1     -40.408 -52.115  10.643  1.00  0.00     0.172 HD
ENDROOT
BRANCH   1   7
HETATM    7  C   UNL     1     -40.821 -48.565  13.305  1.00  0.00     0.174 C 
HETATM    8  C   UNL     1     -40.670 -48.616  14.825  1.00  0.00     0.042 C 
BRANCH   7   9
HETATM    9  C   UNL     1     -41.825 -47.459  12.894  1.00  0.00     0.242 C 
HETATM   10  O   UNL     1     -42.931 -47.363  13.436  1.00  0.00    -0.271 OA
HETATM   11  N   UNL     1     -41.401 -46.490  12.007  1.00  0.00    -0.350 N 
HETATM   12  C   UNL     1     -42.173 -45.278  11.816  1.00  0.00     0.126 C 
HETATM   13  C   UNL     1     -40.204 -46.475  11.189  1.00  0.00     0.126 C 
HETATM   14  C   UNL     1     -41.239 -44.303  11.105  1.00  0.00     0.021 C 
HETATM   15  C   UNL     1     -39.879 -44.996  11.075  1.00  0.00     0.021 C 
ENDBRANCH   7   9
ENDBRANCH   1   7
BRANCH   4  16
HETATM   16  C   UNL     1     -41.769 -52.593  12.138  1.00  0.00     0.108 A 
HETATM   17  C   UNL     1     -41.257 -53.388  13.156  1.00  0.00     0.049 A 
HETATM   18  C   UNL     1     -42.121 -54.238  13.846  1.00  0.00     0.005 A 
HETATM   19  C   UNL     1     -43.469 -54.262  13.512  1.00  0.00     0.017 A 
HETATM   20  C   UNL     1     -43.898 -53.433  12.491  1.00  0.00     0.089 A 
HETATM   21  N   UNL     1     -43.079 -52.608  11.803  1.00  0.00    -0.352 N 
ATOM     22  HN  UNL     1     -43.437 -52.016  11.054  1.00  0.00     0.166 HD
ENDBRANCH   4  16
TORSDOF 3
ENDMDL
MODEL 3
REMARK VINA RESULT:      -5.6      4.292      7.026
REMARK  3 active torsions:
REMARK  status: ('A' for Active; 'I' for Inactive)
REMARK    1  A    between atoms: C_2  and  N_3 
REMARK    2  A    between atoms: C_2  and  C_14 
REMARK       I    between atoms: N_3  and  C_4 
REMARK       I    between atoms: C_4  and  N_6 
REMARK    3  A    between atoms: N_6  and  C_7 
REMARK       I    between atoms: C_14  and  N_16 
ROOT
HETATM    1  N   UNL     1     -41.424 -51.256  13.257  1.00  0.00    -0.330 N 
HETATM    2  C   UNL     1     -40.756 -51.761  12.186  1.00  0.00     0.322 C 
HETATM    3  O   UNL     1     -40.475 -52.952  12.070  1.00  0.00    -0.247 OA
HETATM    4  N   UNL     1     -40.370 -50.880  11.223  1.00  0.00    -0.295 N 
HETATM    5  H   UNL     1     -41.717 -50.284  13.176  1.00  0.00     0.165 HD
HETATM    6  H   UNL     1     -39.857 -51.318  10.473  1.00  0.00     0.172 HD
ENDROOT
BRANCH   1   7
HETATM    7  C   UNL     1     -42.024 -52.084  14.291  1.00  0.00     0.174 C 
HETATM    8  C   UNL     1     -40.951 -52.919  14.988  1.00  0.00     0.042 C 
BRANCH   7   9
HETATM    9  C   UNL     1     -43.159 -52.993  13.756  1.00  0.00     0.242 C 
HETATM   10  O   UNL     1     -42.948 -54.172  13.451  1.00  0.00    -0.271 OA
HETATM   11  N   UNL     1     -44.448 -52.500  13.765  1.00  0.00    -0.350 N 
HETATM   12  C   UNL     1     -45.578 -53.386  13.567  1.00  0.00     0.126 C 
HETATM   13  C   UNL     1     -44.893 -51.136  13.979  1.00  0.00     0.126 C 
HETATM   14  C   UNL     1     -46.803 -52.601  14.024  1.00  0.00     0.021 C 
HETATM   15  C   UNL     1     -46.253 -51.312  14.630  1.00  0.00     0.021 C 
ENDBRANCH   7   9
ENDBRANCH   1   7
BRANCH   4  16
HETATM   16  C   UNL     1     -40.618 -49.507  11.149  1.00  0.00     0.108 A 
HETATM   17  C   UNL     1     -39.679 -48.639  11.692  1.00  0.00     0.049 A 
HETATM   18  C   UNL     1     -39.916 -47.266  11.631  1.00  0.00     0.005 A 
HETATM   19  C   UNL     1     -41.073 -46.799  11.022  1.00  0.00     0.017 A 
HETATM   20  C   UNL     1     -41.953 -47.730  10.500  1.00  0.00     0.089 A 
HETATM   21  N   UNL     1     -41.749 -49.064  10.554  1.00  0.00    -0.352 N 
ATOM     22  HN  UNL     1     -42.426 -49.716  10.159  1.00  0.00     0.166 HD
ENDBRANCH   4  16
TORSDOF 3
ENDMDL
MODEL 4
REMARK VINA RESULT:      -5.4      2.798      3.960
REMARK  3 active torsions:
REMARK  status: ('A' for Active; 'I' for Inactive)
REMARK    1  A    between atoms: C_2  and  N_3 
REMARK    2  A    between atoms: C_2  and  C_14 
REMARK       I    between atoms: N_3  and  C_4 
REMARK       I    between atoms: C_4  and  N_6 
REMARK    3  A    between atoms: N_6  and  C_7 
REMARK       I    between atoms: C_14  and  N_16 
ROOT
HETATM    1  N   UNL     1     -40.152 -49.843  12.325  1.00  0.00    -0.330 N 
HETATM    2  C   UNL     1     -41.357 -49.820  11.697  1.00  0.00     0.322 C 
HETATM    3  O   UNL     1     -41.723 -48.894  10.977  1.00  0.00    -0.247 OA
HETATM    4  N   UNL     1     -42.190 -50.875  11.913  1.00  0.00    -0.295 N 
HETATM    5  H   UNL     1     -39.908 -50.721  12.781  1.00  0.00     0.165 HD
HETATM    6  H   UNL     1     -43.075 -50.781  11.438  1.00  0.00     0.172 HD
ENDROOT
BRANCH   1   7
HETATM    7  C   UNL     1     -39.103 -48.865  12.082  1.00  0.00     0.174 C 
HETATM    8  C   UNL     1     -37.771 -49.570  11.832  1.00  0.00     0.042 C 
BRANCH   7   9
HETATM    9  C   UNL     1     -38.965 -47.828  13.225  1.00  0.00     0.242 C 
HETATM   10  O   UNL     1     -38.409 -48.118  14.290  1.00  0.00    -0.271 OA
HETATM   11  N   UNL     1     -39.348 -46.526  12.975  1.00  0.00    -0.350 N 
HETATM   12  C   UNL     1     -38.971 -45.460  13.881  1.00  0.00     0.126 C 
HETATM   13  C   UNL     1     -40.105 -46.007  11.853  1.00  0.00     0.126 C 
HETATM   14  C   UNL     1     -39.205 -44.164  13.112  1.00  0.00     0.021 C 
HETATM   15  C   UNL     1     -39.568 -44.596  11.694  1.00  0.00     0.021 C 
ENDBRANCH   7   9
ENDBRANCH   1   7
BRANCH   4  16
HETATM   16  C   UNL     1     -41.954 -52.032  12.660  1.00  0.00     0.108 A 
HETATM   17  C   UNL     1     -42.437 -52.085  13.961  1.00  0.00     0.049 A 
HETATM   18  C   UNL     1     -42.204 -53.230  14.721  1.00  0.00     0.005 A 
HETATM   19  C   UNL     1     -41.508 -54.293  14.160  1.00  0.00     0.017 A 
HETATM   20  C   UNL     1     -41.068 -54.163  12.855  1.00  0.00     0.089 A 
HETATM   21  N   UNL     1     -41.274 -53.060  12.103  1.00  0.00    -0.352 N 
ATOM     22  HN  UNL     1     -40.929 -53.005  11.144  1.00  0.00     0.166 HD
ENDBRANCH   4  16
TORSDOF 3
ENDMDL
MODEL 5
REMARK VINA RESULT:      -5.4      5.204      7.414
REMARK  3 active torsions:
REMARK  status: ('A' for Active; 'I' for Inactive)
REMARK    1  A    between atoms: C_2  and  N_3 
REMARK    2  A    between atoms: C_2  and  C_14 
REMARK       I    between atoms: N_3  and  C_4 
REMARK       I    between atoms: C_4  and  N_6 
REMARK    3  A    between atoms: N_6  and  C_7 
REMARK       I    between atoms: C_14  and  N_16 
ROOT
HETATM    1  N   UNL     1     -41.962 -52.445  13.720  1.00  0.00    -0.330 N 
HETATM    2  C   UNL     1     -42.261 -52.636  12.407  1.00  0.00     0.322 C 
HETATM    3  O   UNL     1     -41.409 -52.682  11.523  1.00  0.00    -0.247 OA
HETATM    4  N   UNL     1     -43.578 -52.754  12.081  1.00  0.00    -0.295 N 
HETATM    5  H   UNL     1     -42.737 -52.562  14.370  1.00  0.00     0.165 HD
HETATM    6  H   UNL     1     -43.729 -52.867  11.090  1.00  0.00     0.172 HD
ENDROOT
BRANCH   1   7
HETATM    7  C   UNL     1     -40.604 -52.445  14.239  1.00  0.00     0.174 C 
HETATM    8  C   UNL     1     -40.421 -53.583  15.243  1.00  0.00     0.042 C 
BRANCH   7   9
HETATM    9  C   UNL     1     -40.198 -51.090  14.873  1.00  0.00     0.242 C 
HETATM   10  O   UNL     1     -40.413 -50.850  16.065  1.00  0.00    -0.271 OA
HETATM   11  N   UNL     1     -39.457 -50.210  14.110  1.00  0.00    -0.350 N 
HETATM   12  C   UNL     1     -38.797 -49.077  14.727  1.00  0.00     0.126 C 
HETATM   13  C   UNL     1     -39.191 -50.250  12.685  1.00  0.00     0.126 C 
HETATM   14  C   UNL     1     -37.785 -48.580  13.699  1.00  0.00     0.021 C 
HETATM   15  C   UNL     1     -37.822 -49.605  12.568  1.00  0.00     0.021 C 
ENDBRANCH   7   9
ENDBRANCH   1   7
BRANCH   4  16
HETATM   16  C   UNL     1     -44.687 -52.765  12.930  1.00  0.00     0.108 A 
HETATM   17  C   UNL     1     -45.371 -51.573  13.133  1.00  0.00     0.049 A 
HETATM   18  C   UNL     1     -46.477 -51.566  13.983  1.00  0.00     0.005 A 
HETATM   19  C   UNL     1     -46.875 -52.748  14.595  1.00  0.00     0.017 A 
HETATM   20  C   UNL     1     -46.144 -53.892  14.333  1.00  0.00     0.089 A 
HETATM   21  N   UNL     1     -45.066 -53.921  13.521  1.00  0.00    -0.352 N 
ATOM     22  HN  UNL     1     -44.552 -54.787  13.358  1.00  0.00     0.166 HD
ENDBRANCH   4  16
TORSDOF 3
ENDMDL
MODEL 6
REMARK VINA RESULT:      -5.4      1.512      2.298
REMARK  3 active torsions:
REMARK  status: ('A' for Active; 'I' for Inactive)
REMARK    1  A    between atoms: C_2  and  N_3 
REMARK    2  A    between atoms: C_2  and  C_14 
REMARK       I    between atoms: N_3  and  C_4 
REMARK       I    between atoms: C_4  and  N_6 
REMARK    3  A    between atoms: N_6  and  C_7 
REMARK       I    between atoms: C_14  and  N_16 
ROOT
HETATM    1  N   UNL     1     -40.574 -47.085  10.963  1.00  0.00    -0.330 N 
HETATM    2  C   UNL     1     -41.328 -48.109  10.483  1.00  0.00     0.322 C 
HETATM    3  O   UNL     1     -42.371 -47.939   9.855  1.00  0.00    -0.247 OA
HETATM    4  N   UNL     1     -40.900 -49.374  10.748  1.00  0.00    -0.295 N 
HETATM    5  H   UNL     1     -39.667 -47.347  11.346  1.00  0.00     0.165 HD
HETATM    6  H   UNL     1     -41.520 -50.083  10.386  1.00  0.00     0.172 HD
ENDROOT
BRANCH   1   7
HETATM    7  C   UNL     1     -40.822 -45.689  10.643  1.00  0.00     0.174 C 
HETATM    8  C   UNL     1     -39.553 -45.038  10.096  1.00  0.00     0.042 C 
BRANCH   7   9
HETATM    9  C   UNL     1     -41.374 -44.880  11.843  1.00  0.00     0.242 C 
HETATM   10  O   UNL     1     -42.528 -44.437  11.842  1.00  0.00    -0.271 OA
HETATM   11  N   UNL     1     -40.597 -44.788  12.980  1.00  0.00    -0.350 N 
HETATM   12  C   UNL     1     -41.167 -44.313  14.226  1.00  0.00     0.126 C 
HETATM   13  C   UNL     1     -39.201 -45.138  13.152  1.00  0.00     0.126 C 
HETATM   14  C   UNL     1     -40.173 -44.712  15.312  1.00  0.00     0.021 C 
HETATM   15  C   UNL     1     -39.125 -45.569  14.605  1.00  0.00     0.021 C 
ENDBRANCH   7   9
ENDBRANCH   1   7
BRANCH   4  16
HETATM   16  C   UNL     1     -39.736 -49.778  11.408  1.00  0.00     0.108 A 
HETATM   17  C   UNL     1     -39.826 -50.114  12.753  1.00  0.00     0.049 A 
HETATM   18  C   UNL     1     -38.673 -50.513  13.426  1.00  0.00     0.005 A 
HETATM   19  C   UNL     1     -37.468 -50.579  12.739  1.00  0.00     0.017 A 
HETATM   20  C   UNL     1     -37.466 -50.235  11.399  1.00  0.00     0.089 A 
HETATM   21  N   UNL     1     -38.569 -49.838  10.728  1.00  0.00    -0.352 N 
ATOM     22  HN  UNL     1     -38.523 -49.590   9.740  1.00  0.00     0.166 HD
ENDBRANCH   4  16
TORSDOF 3
ENDMDL
MODEL 7
REMARK VINA RESULT:      -5.3      4.831      6.932
REMARK  3 active torsions:
REMARK  status: ('A' for Active; 'I' for Inactive)
REMARK    1  A    between atoms: C_2  and  N_3 
REMARK    2  A    between atoms: C_2  and  C_14 
REMARK       I    between atoms: N_3  and  C_4 
REMARK       I    between atoms: C_4  and  N_6 
REMARK    3  A    between atoms: N_6  and  C_7 
REMARK       I    between atoms: C_14  and  N_16 
ROOT
HETATM    1  N   UNL     1     -41.201 -51.936  14.250  1.00  0.00    -0.330 N 
HETATM    2  C   UNL     1     -40.514 -51.467  15.325  1.00  0.00     0.322 C 
HETATM    3  O   UNL     1     -40.847 -51.691  16.487  1.00  0.00    -0.247 OA
HETATM    4  N   UNL     1     -39.423 -50.692  15.075  1.00  0.00    -0.295 N 
HETATM    5  H   UNL     1     -40.753 -51.799  13.346  1.00  0.00     0.165 HD
HETATM    6  H   UNL     1     -38.977 -50.357  15.916  1.00  0.00     0.172 HD
ENDROOT
BRANCH   1   7
HETATM    7  C   UNL     1     -42.296 -52.887  14.353  1.00  0.00     0.174 C 
HETATM    8  C   UNL     1     -41.780 -54.311  14.151  1.00  0.00     0.042 C 
BRANCH   7   9
HETATM    9  C   UNL     1     -43.456 -52.585  13.372  1.00  0.00     0.242 C 
HETATM   10  O   UNL     1     -43.469 -53.056  12.229  1.00  0.00    -0.271 OA
HETATM   11  N   UNL     1     -44.551 -51.894  13.849  1.00  0.00    -0.350 N 
HETATM   12  C   UNL     1     -45.780 -51.841  13.084  1.00  0.00     0.126 C 
HETATM   13  C   UNL     1     -44.691 -51.176  15.101  1.00  0.00     0.126 C 
HETATM   14  C   UNL     1     -46.852 -51.361  14.057  1.00  0.00     0.021 C 
HETATM   15  C   UNL     1     -46.168 -51.318  15.422  1.00  0.00     0.021 C 
ENDBRANCH   7   9
ENDBRANCH   1   7
BRANCH   4  16
HETATM   16  C   UNL     1     -38.862 -50.351  13.842  1.00  0.00     0.108 A 
HETATM   17  C   UNL     1     -37.856 -51.160  13.330  1.00  0.00     0.049 A 
HETATM   18  C   UNL     1     -37.282 -50.828  12.103  1.00  0.00     0.005 A 
HETATM   19  C   UNL     1     -37.736 -49.709  11.417  1.00  0.00     0.017 A 
HETATM   20  C   UNL     1     -38.747 -48.962  11.992  1.00  0.00     0.089 A 
HETATM   21  N   UNL     1     -39.312 -49.258  13.183  1.00  0.00    -0.352 N 
ATOM     22  HN  UNL     1     -40.053 -48.677  13.573  1.00  0.00     0.166 HD
ENDBRANCH   4  16
TORSDOF 3
ENDMDL
MODEL 8
REMARK VINA RESULT:      -5.3      7.123      8.105
REMARK  3 active torsions:
REMARK  status: ('A' for Active; 'I' for Inactive)
REMARK    1  A    between atoms: C_2  and  N_3 
REMARK    2  A    between atoms: C_2  and  C_14 
REMARK       I    between atoms: N_3  and  C_4 
REMARK       I    between atoms: C_4  and  N_6 
REMARK    3  A    between atoms: N_6  and  C_7 
REMARK       I    between atoms: C_14  and  N_16 
ROOT
HETATM    1  N   UNL     1     -44.846 -52.911  15.189  1.00  0.00    -0.330 N 
HETATM    2  C   UNL     1     -45.081 -54.225  14.931  1.00  0.00     0.322 C 
HETATM    3  O   UNL     1     -46.174 -54.760  15.105  1.00  0.00    -0.247 OA
HETATM    4  N   UNL     1     -44.032 -54.968  14.484  1.00  0.00    -0.295 N 
HETATM    5  H   UNL     1     -43.944 -52.556  14.877  1.00  0.00     0.165 HD
HETATM    6  H   UNL     1     -44.270 -55.938  14.338  1.00  0.00     0.172 HD
ENDROOT
BRANCH   1   7
HETATM    7  C   UNL     1     -45.893 -51.963  15.532  1.00  0.00     0.174 C 
HETATM    8  C   UNL     1     -46.546 -51.414  14.265  1.00  0.00     0.042 C 
BRANCH   7   9
HETATM    9  C   UNL     1     -45.391 -50.805  16.431  1.00  0.00     0.242 C 
HETATM   10  O   UNL     1     -44.334 -50.213  16.185  1.00  0.00    -0.271 OA
HETATM   11  N   UNL     1     -46.223 -50.350  17.434  1.00  0.00    -0.350 N 
HETATM   12  C   UNL     1     -45.949 -49.095  18.105  1.00  0.00     0.126 C 
HETATM   13  C   UNL     1     -47.433 -50.959  17.950  1.00  0.00     0.126 C 
HETATM   14  C   UNL     1     -47.238 -48.729  18.835  1.00  0.00     0.021 C 
HETATM   15  C   UNL     1     -48.265 -49.766  18.386  1.00  0.00     0.021 C 
ENDBRANCH   7   9
ENDBRANCH   1   7
BRANCH   4  16
HETATM   16  C   UNL     1     -42.731 -54.549  14.190  1.00  0.00     0.108 A 
HETATM   17  C   UNL     1     -41.762 -54.672  15.178  1.00  0.00     0.049 A 
HETATM   18  C   UNL     1     -40.461 -54.253  14.902  1.00  0.00     0.005 A 
HETATM   19  C   UNL     1     -40.161 -53.736  13.648  1.00  0.00     0.017 A 
HETATM   20  C   UNL     1     -41.183 -53.655  12.719  1.00  0.00     0.089 A 
HETATM   21  N   UNL     1     -42.451 -54.047  12.966  1.00  0.00    -0.352 N 
ATOM     22  HN  UNL     1     -43.176 -53.967  12.252  1.00  0.00     0.166 HD
ENDBRANCH   4  16
TORSDOF 3
ENDMDL
MODEL 9
REMARK VINA RESULT:      -5.2      5.692      7.776
REMARK  3 active torsions:
REMARK  status: ('A' for Active; 'I' for Inactive)
REMARK    1  A    between atoms: C_2  and  N_3 
REMARK    2  A    between atoms: C_2  and  C_14 
REMARK       I    between atoms: N_3  and  C_4 
REMARK       I    between atoms: C_4  and  N_6 
REMARK    3  A    between atoms: N_6  and  C_7 
REMARK       I    between atoms: C_14  and  N_16 
ROOT
HETATM    1  N   UNL     1     -42.898 -53.233  14.016  1.00  0.00    -0.330 N 
HETATM    2  C   UNL     1     -43.286 -53.316  12.715  1.00  0.00     0.322 C 
HETATM    3  O   UNL     1     -44.140 -54.105  12.317  1.00  0.00    -0.247 OA
HETATM    4  N   UNL     1     -42.665 -52.492  11.828  1.00  0.00    -0.295 N 
HETATM    5  H   UNL     1     -42.286 -52.452  14.244  1.00  0.00     0.165 HD
HETATM    6  H   UNL     1     -42.982 -52.625  10.879  1.00  0.00     0.172 HD
ENDROOT
BRANCH   1   7
HETATM    7  C   UNL     1     -43.564 -53.941  15.097  1.00  0.00     0.174 C 
HETATM    8  C   UNL     1     -43.110 -55.399  15.133  1.00  0.00     0.042 C 
BRANCH   7   9
HETATM    9  C   UNL     1     -45.109 -53.854  15.017  1.00  0.00     0.242 C 
HETATM   10  O   UNL     1     -45.797 -54.854  14.786  1.00  0.00    -0.271 OA
HETATM   11  N   UNL     1     -45.713 -52.660  15.354  1.00  0.00    -0.350 N 
HETATM   12  C   UNL     1     -47.142 -52.598  15.590  1.00  0.00     0.126 C 
HETATM   13  C   UNL     1     -45.101 -51.360  15.548  1.00  0.00     0.126 C 
HETATM   14  C   UNL     1     -47.384 -51.272  16.304  1.00  0.00     0.021 C 
HETATM   15  C   UNL     1     -45.995 -50.705  16.585  1.00  0.00     0.021 C 
ENDBRANCH   7   9
ENDBRANCH   1   7
BRANCH   4  16
HETATM   16  C   UNL     1     -41.703 -51.509  12.078  1.00  0.00     0.108 A 
HETATM   17  C   UNL     1     -42.139 -50.233  12.414  1.00  0.00     0.049 A 
HETATM   18  C   UNL     1     -41.191 -49.241  12.661  1.00  0.00     0.005 A 
HETATM   19  C   UNL     1     -39.840 -49.550  12.578  1.00  0.00     0.017 A 
HETATM   20  C   UNL     1     -39.491 -50.847  12.245  1.00  0.00     0.089 A 
HETATM   21  N   UNL     1     -40.390 -51.822  11.994  1.00  0.00    -0.352 N 
ATOM     22  HN  UNL     1     -40.089 -52.765  11.749  1.00  0.00     0.166 HD
ENDBRANCH   4  16
TORSDOF 3
ENDMDL
