MODEL 1
REMARK VINA RESULT:      -8.1      0.000      0.000
REMARK  8 active torsions:
REMARK  status: ('A' for Active; 'I' for Inactive)
REMARK    1  A    between atoms: N_1  and  C_2 
REMARK    2  A    between atoms: C_7  and  O_27 
REMARK    3  A    between atoms: C_10  and  N_12 
REMARK       I    between atoms: N_12  and  C_14 
REMARK    4  A    between atoms: C_13  and  C_22 
REMARK    5  A    between atoms: C_14  and  C_24 
REMARK    6  A    between atoms: C_19  and  O_21 
REMARK    7  A    between atoms: C_19  and  C_26 
REMARK    8  A    between atoms: O_21  and  C_22 
ROOT
HETATM    1  N   UNL     1     -41.913 -49.372  13.109  1.00  0.00    -0.297 N 
HETATM    2  C   UNL     1     -41.975 -48.588  11.984  1.00  0.00     0.142 A 
HETATM    3  C   UNL     1     -41.737 -47.291  12.436  1.00  0.00     0.122 A 
HETATM    4  N   UNL     1     -41.546 -47.270  13.799  1.00  0.00    -0.346 N 
ATOM      5  HN  UNL     1     -41.366 -46.460  14.392  1.00  0.00     0.167 HD
HETATM    6  C   UNL     1     -41.647 -48.529  14.166  1.00  0.00     0.188 A 
HETATM    7  C   UNL     1     -41.709 -46.265  11.471  1.00  0.00     0.140 A 
HETATM    8  N   UNL     1     -42.177 -48.968  10.711  1.00  0.00    -0.336 N 
ATOM      9  HN  UNL     1     -42.326 -49.931  10.411  1.00  0.00     0.168 HD
HETATM   10  N   UNL     1     -41.940 -46.603  10.183  1.00  0.00    -0.337 N 
ATOM     11  HN  UNL     1     -41.951 -45.890   9.453  1.00  0.00     0.168 HD
HETATM   12  C   UNL     1     -42.157 -47.899   9.881  1.00  0.00     0.183 A 
ENDROOT
BRANCH   1  13
HETATM   13  C   UNL     1     -41.902 -50.823  13.237  1.00  0.00     0.262 C 
HETATM   14  C   UNL     1     -40.530 -51.477  13.153  1.00  0.00     0.204 C 
HETATM   15  C   UNL     1     -40.818 -52.853  12.569  1.00  0.00     0.234 C 
HETATM   16  F   UNL     1     -40.477 -53.797  13.486  1.00  0.00    -0.244 F 
HETATM   17  C   UNL     1     -42.316 -52.869  12.255  1.00  0.00     0.185 C 
HETATM   18  O   UNL     1     -42.743 -51.480  12.273  1.00  0.00    -0.353 OA
BRANCH  14  19
HETATM   19  O   UNL     1     -39.942 -51.560  14.458  1.00  0.00    -0.388 OA
HETATM   20  H   UNL     1     -40.632 -51.896  15.067  1.00  0.00     0.210 HD
ENDBRANCH  14  19
BRANCH  17  21
HETATM   21  C   UNL     1     -43.125 -53.703  13.273  1.00  0.00     0.214 C 
BRANCH  21  22
HETATM   22  O   UNL     1     -44.351 -54.221  12.719  1.00  0.00    -0.315 OA
BRANCH  22  23
HETATM   23  C   UNL     1     -45.274 -54.641  13.623  1.00  0.00     0.293 C 
HETATM   24  O   UNL     1     -45.562 -55.803  13.840  1.00  0.00    -0.259 OA
BRANCH  23  25
HETATM   25  C   UNL     1     -45.919 -53.497  14.324  1.00  0.00     0.039 A 
HETATM   26  C   UNL     1     -46.352 -52.345  13.657  1.00  0.00     0.017 A 
HETATM   27  C   UNL     1     -46.887 -51.277  14.387  1.00  0.00     0.001 A 
HETATM   28  C   UNL     1     -47.000 -51.360  15.776  1.00  0.00     0.000 A 
HETATM   29  C   UNL     1     -46.585 -52.511  16.442  1.00  0.00     0.001 A 
HETATM   30  C   UNL     1     -46.042 -53.576  15.719  1.00  0.00     0.017 A 
ENDBRANCH  23  25
ENDBRANCH  22  23
ENDBRANCH  21  22
ENDBRANCH  17  21
ENDBRANCH   1  13
BRANCH   7  31
HETATM   31  N   UNL     1     -41.440 -44.940  11.876  1.00  0.00    -0.307 N 
HETATM   32  C   UNL     1     -40.704 -44.028  11.144  1.00  0.00     0.257 C 
HETATM   33  O   UNL     1     -40.133 -44.245  10.079  1.00  0.00    -0.267 OA
HETATM   34  H   UNL     1     -41.775 -44.703  12.801  1.00  0.00     0.170 HD
BRANCH  32  35
HETATM   35  C   UNL     1     -40.572 -42.652  11.722  1.00  0.00     0.032 A 
HETATM   36  C   UNL     1     -41.441 -41.653  11.253  1.00  0.00     0.017 A 
HETATM   37  C   UNL     1     -41.417 -40.367  11.803  1.00  0.00     0.001 A 
HETATM   38  C   UNL     1     -40.527 -40.071  12.831  1.00  0.00     0.000 A 
HETATM   39  C   UNL     1     -39.662 -41.059  13.310  1.00  0.00     0.001 A 
HETATM   40  C   UNL     1     -39.681 -42.347  12.757  1.00  0.00     0.017 A 
ENDBRANCH  32  35
ENDBRANCH   7  31
TORSDOF 8
ENDMDL
MODEL 2
REMARK VINA RESULT:      -7.7      1.171      1.270
REMARK  8 active torsions:
REMARK  status: ('A' for Active; 'I' for Inactive)
REMARK    1  A    between atoms: N_1  and  C_2 
REMARK    2  A    between atoms: C_7  and  O_27 
REMARK    3  A    between atoms: C_10  and  N_12 
REMARK       I    between atoms: N_12  and  C_14 
REMARK    4  A    between atoms: C_13  and  C_22 
REMARK    5  A    between atoms: C_14  and  C_24 
REMARK    6  A    between atoms: C_19  and  O_21 
REMARK    7  A    between atoms: C_19  and  C_26 
REMARK    8  A    between atoms: O_21  and  C_22 
ROOT
HETATM    1  N   UNL     1     -40.827 -49.725  13.600  1.00  0.00    -0.297 N 
HETATM    2  C   UNL     1     -41.036 -49.073  12.410  1.00  0.00     0.142 A 
HETATM    3  C   UNL     1     -40.797 -47.728  12.688  1.00  0.00     0.122 A 
HETATM    4  N   UNL     1     -40.463 -47.551  14.013  1.00  0.00    -0.346 N 
ATOM      5  HN  UNL     1     -40.250 -46.675  14.490  1.00  0.00     0.167 HD
HETATM    6  C   UNL     1     -40.479 -48.762  14.523  1.00  0.00     0.188 A 
HETATM    7  C   UNL     1     -40.909 -46.816  11.621  1.00  0.00     0.140 A 
HETATM    8  N   UNL     1     -41.359 -49.598  11.215  1.00  0.00    -0.336 N 
ATOM      9  HN  UNL     1     -41.504 -50.592  11.040  1.00  0.00     0.168 HD
HETATM   10  N   UNL     1     -41.264 -47.301  10.410  1.00  0.00    -0.337 N 
ATOM     11  HN  UNL     1     -41.378 -46.675   9.613  1.00  0.00     0.168 HD
HETATM   12  C   UNL     1     -41.465 -48.628  10.277  1.00  0.00     0.183 A 
ENDROOT
BRANCH   1  13
HETATM   13  C   UNL     1     -40.750 -51.151  13.883  1.00  0.00     0.262 C 
HETATM   14  C   UNL     1     -39.371 -51.670  14.264  1.00  0.00     0.204 C 
HETATM   15  C   UNL     1     -39.376 -53.112  13.776  1.00  0.00     0.234 C 
HETATM   16  F   UNL     1     -39.252 -53.938  14.849  1.00  0.00    -0.244 F 
HETATM   17  C   UNL     1     -40.712 -53.304  13.052  1.00  0.00     0.185 C 
HETATM   18  O   UNL     1     -41.223 -51.967  12.796  1.00  0.00    -0.353 OA
BRANCH  14  19
HETATM   19  O   UNL     1     -39.187 -51.584  15.684  1.00  0.00    -0.388 OA
HETATM   20  H   UNL     1     -39.361 -52.474  16.054  1.00  0.00     0.210 HD
ENDBRANCH  14  19
BRANCH  17  21
HETATM   21  C   UNL     1     -41.721 -54.126  13.882  1.00  0.00     0.214 C 
BRANCH  21  22
HETATM   22  O   UNL     1     -43.014 -54.221  13.251  1.00  0.00    -0.315 OA
BRANCH  22  23
HETATM   23  C   UNL     1     -44.052 -54.514  14.076  1.00  0.00     0.293 C 
HETATM   24  O   UNL     1     -44.160 -55.534  14.729  1.00  0.00    -0.259 OA
BRANCH  23  25
HETATM   25  C   UNL     1     -45.074 -53.431  14.083  1.00  0.00     0.039 A 
HETATM   26  C   UNL     1     -45.466 -52.751  12.924  1.00  0.00     0.017 A 
HETATM   27  C   UNL     1     -46.380 -51.694  13.012  1.00  0.00     0.001 A 
HETATM   28  C   UNL     1     -46.911 -51.323  14.248  1.00  0.00     0.000 A 
HETATM   29  C   UNL     1     -46.536 -52.009  15.402  1.00  0.00     0.001 A 
HETATM   30  C   UNL     1     -45.617 -53.057  15.321  1.00  0.00     0.017 A 
ENDBRANCH  23  25
ENDBRANCH  22  23
ENDBRANCH  21  22
ENDBRANCH  17  21
ENDBRANCH   1  13
BRANCH   7  31
HETATM   31  N   UNL     1     -40.645 -45.449  11.848  1.00  0.00    -0.307 N 
HETATM   32  C   UNL     1     -41.344 -44.406  11.269  1.00  0.00     0.257 C 
HETATM   33  O   UNL     1     -42.244 -44.510  10.440  1.00  0.00    -0.267 OA
HETATM   34  H   UNL     1     -39.840 -45.263  12.432  1.00  0.00     0.170 HD
BRANCH  32  35
HETATM   35  C   UNL     1     -40.945 -43.021  11.676  1.00  0.00     0.032 A 
HETATM   36  C   UNL     1     -41.693 -41.943  11.173  1.00  0.00     0.017 A 
HETATM   37  C   UNL     1     -41.417 -40.632  11.572  1.00  0.00     0.001 A 
HETATM   38  C   UNL     1     -40.393 -40.387  12.483  1.00  0.00     0.000 A 
HETATM   39  C   UNL     1     -39.648 -41.451  12.996  1.00  0.00     0.001 A 
HETATM   40  C   UNL     1     -39.919 -42.766  12.594  1.00  0.00     0.017 A 
ENDBRANCH  32  35
ENDBRANCH   7  31
TORSDOF 8
ENDMDL
MODEL 3
REMARK VINA RESULT:      -7.4      1.589      2.141
REMARK  8 active torsions:
REMARK  status: ('A' for Active; 'I' for Inactive)
REMARK    1  A    between atoms: N_1  and  C_2 
REMARK    2  A    between atoms: C_7  and  O_27 
REMARK    3  A    between atoms: C_10  and  N_12 
REMARK       I    between atoms: N_12  and  C_14 
REMARK    4  A    between atoms: C_13  and  C_22 
REMARK    5  A    between atoms: C_14  and  C_24 
REMARK    6  A    between atoms: C_19  and  O_21 
REMARK    7  A    between atoms: C_19  and  C_26 
REMARK    8  A    between atoms: O_21  and  C_22 
ROOT
HETATM    1  N   UNL     1     -40.864 -49.541  12.805  1.00  0.00    -0.297 N 
HETATM    2  C   UNL     1     -39.938 -48.635  13.260  1.00  0.00     0.142 A 
HETATM    3  C   UNL     1     -40.357 -47.406  12.752  1.00  0.00     0.122 A 
HETATM    4  N   UNL     1     -41.499 -47.548  11.995  1.00  0.00    -0.346 N 
ATOM      5  HN  UNL     1     -42.013 -46.821  11.499  1.00  0.00     0.167 HD
HETATM    6  C   UNL     1     -41.779 -48.831  12.058  1.00  0.00     0.188 A 
HETATM    7  C   UNL     1     -39.597 -46.271  13.095  1.00  0.00     0.140 A 
HETATM    8  N   UNL     1     -38.877 -48.852  14.055  1.00  0.00    -0.336 N 
ATOM      9  HN  UNL     1     -38.611 -49.763  14.430  1.00  0.00     0.168 HD
HETATM   10  N   UNL     1     -38.503 -46.453  13.867  1.00  0.00    -0.337 N 
ATOM     11  HN  UNL     1     -37.910 -45.663  14.123  1.00  0.00     0.168 HD
HETATM   12  C   UNL     1     -38.210 -47.699  14.293  1.00  0.00     0.183 A 
ENDROOT
BRANCH   1  13
HETATM   13  C   UNL     1     -41.052 -50.941  13.157  1.00  0.00     0.262 C 
HETATM   14  C   UNL     1     -40.098 -51.918  12.484  1.00  0.00     0.204 C 
HETATM   15  C   UNL     1     -40.905 -53.205  12.384  1.00  0.00     0.234 C 
HETATM   16  F   UNL     1     -40.299 -54.162  13.136  1.00  0.00    -0.244 F 
HETATM   17  C   UNL     1     -42.304 -52.863  12.904  1.00  0.00     0.185 C 
HETATM   18  O   UNL     1     -42.387 -51.412  12.901  1.00  0.00    -0.353 OA
BRANCH  14  19
HETATM   19  O   UNL     1     -38.919 -52.085  13.285  1.00  0.00    -0.388 OA
HETATM   20  H   UNL     1     -39.213 -52.266  14.202  1.00  0.00     0.210 HD
ENDBRANCH  14  19
BRANCH  17  21
HETATM   21  C   UNL     1     -42.561 -53.423  14.320  1.00  0.00     0.214 C 
BRANCH  21  22
HETATM   22  O   UNL     1     -43.558 -54.464  14.334  1.00  0.00    -0.315 OA
BRANCH  22  23
HETATM   23  C   UNL     1     -44.708 -54.186  13.667  1.00  0.00     0.293 C 
HETATM   24  O   UNL     1     -44.996 -54.608  12.563  1.00  0.00    -0.259 OA
BRANCH  23  25
HETATM   25  C   UNL     1     -45.592 -53.276  14.446  1.00  0.00     0.039 A 
HETATM   26  C   UNL     1     -46.138 -52.105  13.907  1.00  0.00     0.017 A 
HETATM   27  C   UNL     1     -46.903 -51.256  14.717  1.00  0.00     0.001 A 
HETATM   28  C   UNL     1     -47.132 -51.578  16.056  1.00  0.00     0.000 A 
HETATM   29  C   UNL     1     -46.605 -52.751  16.591  1.00  0.00     0.001 A 
HETATM   30  C   UNL     1     -45.833 -53.596  15.790  1.00  0.00     0.017 A 
ENDBRANCH  23  25
ENDBRANCH  22  23
ENDBRANCH  21  22
ENDBRANCH  17  21
ENDBRANCH   1  13
BRANCH   7  31
HETATM   31  N   UNL     1     -40.000 -45.001  12.630  1.00  0.00    -0.307 N 
HETATM   32  C   UNL     1     -39.914 -43.832  13.363  1.00  0.00     0.257 C 
HETATM   33  O   UNL     1     -39.536 -43.732  14.527  1.00  0.00    -0.267 OA
HETATM   34  H   UNL     1     -40.434 -45.001  11.716  1.00  0.00     0.170 HD
BRANCH  32  35
HETATM   35  C   UNL     1     -40.347 -42.574  12.674  1.00  0.00     0.032 A 
HETATM   36  C   UNL     1     -41.384 -42.660  11.731  1.00  0.00     0.017 A 
HETATM   37  C   UNL     1     -41.882 -41.512  11.107  1.00  0.00     0.001 A 
HETATM   38  C   UNL     1     -41.350 -40.265  11.426  1.00  0.00     0.000 A 
HETATM   39  C   UNL     1     -40.323 -40.167  12.367  1.00  0.00     0.001 A 
HETATM   40  C   UNL     1     -39.818 -41.316  12.990  1.00  0.00     0.017 A 
ENDBRANCH  32  35
ENDBRANCH   7  31
TORSDOF 8
ENDMDL
MODEL 4
REMARK VINA RESULT:      -7.3      4.876      7.462
REMARK  8 active torsions:
REMARK  status: ('A' for Active; 'I' for Inactive)
REMARK    1  A    between atoms: N_1  and  C_2 
REMARK    2  A    between atoms: C_7  and  O_27 
REMARK    3  A    between atoms: C_10  and  N_12 
REMARK       I    between atoms: N_12  and  C_14 
REMARK    4  A    between atoms: C_13  and  C_22 
REMARK    5  A    between atoms: C_14  and  C_24 
REMARK    6  A    between atoms: C_19  and  O_21 
REMARK    7  A    between atoms: C_19  and  C_26 
REMARK    8  A    between atoms: O_21  and  C_22 
ROOT
HETATM    1  N   UNL     1     -40.317 -52.222  13.721  1.00  0.00    -0.297 N 
HETATM    2  C   UNL     1     -39.912 -51.311  12.778  1.00  0.00     0.142 A 
HETATM    3  C   UNL     1     -41.086 -50.699  12.340  1.00  0.00     0.122 A 
HETATM    4  N   UNL     1     -42.185 -51.223  12.984  1.00  0.00    -0.346 N 
ATOM      5  HN  UNL     1     -43.164 -50.972  12.851  1.00  0.00     0.167 HD
HETATM    6  C   UNL     1     -41.689 -52.121  13.807  1.00  0.00     0.188 A 
HETATM    7  C   UNL     1     -40.964 -49.679  11.377  1.00  0.00     0.140 A 
HETATM    8  N   UNL     1     -38.662 -51.023  12.376  1.00  0.00    -0.336 N 
ATOM      9  HN  UNL     1     -37.821 -51.475  12.734  1.00  0.00     0.168 HD
HETATM   10  N   UNL     1     -39.725 -49.383  10.924  1.00  0.00    -0.337 N 
ATOM     11  HN  UNL     1     -39.591 -48.666  10.210  1.00  0.00     0.168 HD
HETATM   12  C   UNL     1     -38.672 -50.052  11.433  1.00  0.00     0.183 A 
ENDROOT
BRANCH   1  13
HETATM   13  C   UNL     1     -39.527 -53.022  14.647  1.00  0.00     0.262 C 
HETATM   14  C   UNL     1     -39.578 -54.526  14.420  1.00  0.00     0.204 C 
HETATM   15  C   UNL     1     -39.372 -55.112  15.810  1.00  0.00     0.234 C 
HETATM   16  F   UNL     1     -38.212 -55.822  15.817  1.00  0.00    -0.244 F 
HETATM   17  C   UNL     1     -39.322 -53.916  16.764  1.00  0.00     0.185 C 
HETATM   18  O   UNL     1     -39.871 -52.792  16.024  1.00  0.00    -0.353 OA
BRANCH  14  19
HETATM   19  O   UNL     1     -38.541 -54.922  13.511  1.00  0.00    -0.388 OA
HETATM   20  H   UNL     1     -37.687 -54.813  13.978  1.00  0.00     0.210 HD
ENDBRANCH  14  19
BRANCH  17  21
HETATM   21  C   UNL     1     -37.889 -53.605  17.248  1.00  0.00     0.214 C 
BRANCH  21  22
HETATM   22  O   UNL     1     -37.662 -54.010  18.613  1.00  0.00    -0.315 OA
BRANCH  22  23
HETATM   23  C   UNL     1     -37.197 -55.275  18.781  1.00  0.00     0.293 C 
HETATM   24  O   UNL     1     -37.854 -56.213  19.191  1.00  0.00    -0.259 OA
BRANCH  23  25
HETATM   25  C   UNL     1     -35.758 -55.388  18.414  1.00  0.00     0.039 A 
HETATM   26  C   UNL     1     -34.827 -54.377  18.680  1.00  0.00     0.017 A 
HETATM   27  C   UNL     1     -33.504 -54.517  18.245  1.00  0.00     0.001 A 
HETATM   28  C   UNL     1     -33.106 -55.665  17.556  1.00  0.00     0.000 A 
HETATM   29  C   UNL     1     -34.026 -56.680  17.305  1.00  0.00     0.001 A 
HETATM   30  C   UNL     1     -35.350 -56.541  17.729  1.00  0.00     0.017 A 
ENDBRANCH  23  25
ENDBRANCH  22  23
ENDBRANCH  21  22
ENDBRANCH  17  21
ENDBRANCH   1  13
BRANCH   7  31
HETATM   31  N   UNL     1     -42.122 -49.008  10.927  1.00  0.00    -0.307 N 
HETATM   32  C   UNL     1     -42.144 -47.711  10.451  1.00  0.00     0.257 C 
HETATM   33  O   UNL     1     -41.190 -46.940  10.403  1.00  0.00    -0.267 OA
HETATM   34  H   UNL     1     -42.983 -49.529  11.037  1.00  0.00     0.170 HD
BRANCH  32  35
HETATM   35  C   UNL     1     -43.466 -47.194   9.972  1.00  0.00     0.032 A 
HETATM   36  C   UNL     1     -43.512 -45.898   9.431  1.00  0.00     0.017 A 
HETATM   37  C   UNL     1     -44.699 -45.385   8.901  1.00  0.00     0.001 A 
HETATM   38  C   UNL     1     -45.852 -46.166   8.902  1.00  0.00     0.000 A 
HETATM   39  C   UNL     1     -45.817 -47.458   9.430  1.00  0.00     0.001 A 
HETATM   40  C   UNL     1     -44.629 -47.973   9.967  1.00  0.00     0.017 A 
ENDBRANCH  32  35
ENDBRANCH   7  31
TORSDOF 8
ENDMDL
MODEL 5
REMARK VINA RESULT:      -7.2      2.020      2.674
REMARK  8 active torsions:
REMARK  status: ('A' for Active; 'I' for Inactive)
REMARK    1  A    between atoms: N_1  and  C_2 
REMARK    2  A    between atoms: C_7  and  O_27 
REMARK    3  A    between atoms: C_10  and  N_12 
REMARK       I    between atoms: N_12  and  C_14 
REMARK    4  A    between atoms: C_13  and  C_22 
REMARK    5  A    between atoms: C_14  and  C_24 
REMARK    6  A    between atoms: C_19  and  O_21 
REMARK    7  A    between atoms: C_19  and  C_26 
REMARK    8  A    between atoms: O_21  and  C_22 
ROOT
HETATM    1  N   UNL     1     -40.907 -48.018  12.895  1.00  0.00    -0.297 N 
HETATM    2  C   UNL     1     -41.597 -47.595  11.787  1.00  0.00     0.142 A 
HETATM    3  C   UNL     1     -41.899 -46.257  12.040  1.00  0.00     0.122 A 
HETATM    4  N   UNL     1     -41.422 -45.868  13.272  1.00  0.00    -0.346 N 
ATOM      5  HN  UNL     1     -41.511 -44.954  13.715  1.00  0.00     0.167 HD
HETATM    6  C   UNL     1     -40.827 -46.939  13.749  1.00  0.00     0.188 A 
HETATM    7  C   UNL     1     -42.589 -45.548  11.037  1.00  0.00     0.140 A 
HETATM    8  N   UNL     1     -41.893 -48.284  10.672  1.00  0.00    -0.336 N 
ATOM      9  HN  UNL     1     -41.636 -49.258  10.508  1.00  0.00     0.168 HD
HETATM   10  N   UNL     1     -42.933 -46.217   9.914  1.00  0.00    -0.337 N 
ATOM     11  HN  UNL     1     -43.452 -45.750   9.170  1.00  0.00     0.168 HD
HETATM   12  C   UNL     1     -42.577 -47.512   9.796  1.00  0.00     0.183 A 
ENDROOT
BRANCH   1  13
HETATM   13  C   UNL     1     -40.183 -49.260  13.126  1.00  0.00     0.262 C 
HETATM   14  C   UNL     1     -38.725 -49.259  12.687  1.00  0.00     0.204 C 
HETATM   15  C   UNL     1     -38.453 -50.713  12.324  1.00  0.00     0.234 C 
HETATM   16  F   UNL     1     -37.507 -51.205  13.169  1.00  0.00    -0.244 F 
HETATM   17  C   UNL     1     -39.793 -51.439  12.474  1.00  0.00     0.185 C 
HETATM   18  O   UNL     1     -40.808 -50.400  12.510  1.00  0.00    -0.353 OA
BRANCH  14  19
HETATM   19  O   UNL     1     -37.888 -48.808  13.761  1.00  0.00    -0.388 OA
HETATM   20  H   UNL     1     -37.368 -49.579  14.068  1.00  0.00     0.210 HD
ENDBRANCH  14  19
BRANCH  17  21
HETATM   21  C   UNL     1     -39.855 -52.309  13.748  1.00  0.00     0.214 C 
BRANCH  21  22
HETATM   22  O   UNL     1     -41.198 -52.467  14.249  1.00  0.00    -0.315 OA
BRANCH  22  23
HETATM   23  C   UNL     1     -41.995 -53.308  13.540  1.00  0.00     0.293 C 
HETATM   24  O   UNL     1     -41.634 -54.353  13.032  1.00  0.00    -0.259 OA
BRANCH  23  25
HETATM   25  C   UNL     1     -43.387 -52.791  13.436  1.00  0.00     0.039 A 
HETATM   26  C   UNL     1     -44.353 -53.374  12.607  1.00  0.00     0.017 A 
HETATM   27  C   UNL     1     -45.623 -52.794  12.503  1.00  0.00     0.001 A 
HETATM   28  C   UNL     1     -45.934 -51.644  13.230  1.00  0.00     0.000 A 
HETATM   29  C   UNL     1     -44.982 -51.070  14.068  1.00  0.00     0.001 A 
HETATM   30  C   UNL     1     -43.710 -51.640  14.169  1.00  0.00     0.017 A 
ENDBRANCH  23  25
ENDBRANCH  22  23
ENDBRANCH  21  22
ENDBRANCH  17  21
ENDBRANCH   1  13
BRANCH   7  31
HETATM   31  N   UNL     1     -42.889 -44.184  11.234  1.00  0.00    -0.307 N 
HETATM   32  C   UNL     1     -42.013 -43.143  10.992  1.00  0.00     0.257 C 
HETATM   33  O   UNL     1     -40.844 -43.248  10.631  1.00  0.00    -0.267 OA
HETATM   34  H   UNL     1     -43.798 -44.004  11.642  1.00  0.00     0.170 HD
BRANCH  32  35
HETATM   35  C   UNL     1     -42.537 -41.757  11.215  1.00  0.00     0.032 A 
HETATM   36  C   UNL     1     -43.920 -41.595  11.398  1.00  0.00     0.017 A 
HETATM   37  C   UNL     1     -44.463 -40.339  11.682  1.00  0.00     0.001 A 
HETATM   38  C   UNL     1     -43.625 -39.232  11.791  1.00  0.00     0.000 A 
HETATM   39  C   UNL     1     -42.247 -39.382  11.618  1.00  0.00     0.001 A 
HETATM   40  C   UNL     1     -41.702 -40.640  11.328  1.00  0.00     0.017 A 
ENDBRANCH  32  35
ENDBRANCH   7  31
TORSDOF 8
ENDMDL
MODEL 6
REMARK VINA RESULT:      -7.2      6.127     10.756
REMARK  8 active torsions:
REMARK  status: ('A' for Active; 'I' for Inactive)
REMARK    1  A    between atoms: N_1  and  C_2 
REMARK    2  A    between atoms: C_7  and  O_27 
REMARK    3  A    between atoms: C_10  and  N_12 
REMARK       I    between atoms: N_12  and  C_14 
REMARK    4  A    between atoms: C_13  and  C_22 
REMARK    5  A    between atoms: C_14  and  C_24 
REMARK    6  A    between atoms: C_19  and  O_21 
REMARK    7  A    between atoms: C_19  and  C_26 
REMARK    8  A    between atoms: O_21  and  C_22 
ROOT
HETATM    1  N   UNL     1     -40.425 -54.447  14.678  1.00  0.00    -0.297 N 
HETATM    2  C   UNL     1     -40.727 -55.163  15.810  1.00  0.00     0.142 A 
HETATM    3  C   UNL     1     -39.512 -55.703  16.230  1.00  0.00     0.122 A 
HETATM    4  N   UNL     1     -38.492 -55.343  15.377  1.00  0.00    -0.346 N 
ATOM      5  HN  UNL     1     -37.508 -55.606  15.436  1.00  0.00     0.167 HD
HETATM    6  C   UNL     1     -39.070 -54.587  14.471  1.00  0.00     0.188 A 
HETATM    7  C   UNL     1     -39.519 -56.471  17.410  1.00  0.00     0.140 A 
HETATM    8  N   UNL     1     -41.916 -55.295  16.423  1.00  0.00    -0.336 N 
ATOM      9  HN  UNL     1     -42.784 -54.866  16.101  1.00  0.00     0.168 HD
HETATM   10  N   UNL     1     -40.702 -56.654  18.038  1.00  0.00    -0.337 N 
ATOM     11  HN  UNL     1     -40.758 -57.221  18.884  1.00  0.00     0.168 HD
HETATM   12  C   UNL     1     -41.805 -56.073  17.524  1.00  0.00     0.183 A 
ENDROOT
BRANCH   1  13
HETATM   13  C   UNL     1     -41.249 -53.526  13.908  1.00  0.00     0.262 C 
HETATM   14  C   UNL     1     -40.499 -52.661  12.903  1.00  0.00     0.204 C 
HETATM   15  C   UNL     1     -41.331 -51.389  12.825  1.00  0.00     0.234 C 
HETATM   16  F   UNL     1     -41.822 -51.264  11.563  1.00  0.00    -0.244 F 
HETATM   17  C   UNL     1     -42.444 -51.553  13.863  1.00  0.00     0.185 C 
HETATM   18  O   UNL     1     -42.022 -52.638  14.733  1.00  0.00    -0.353 OA
BRANCH  14  19
HETATM   19  O   UNL     1     -40.422 -53.332  11.638  1.00  0.00    -0.388 OA
HETATM   20  H   UNL     1     -40.406 -52.641  10.943  1.00  0.00     0.210 HD
ENDBRANCH  14  19
BRANCH  17  21
HETATM   21  C   UNL     1     -43.812 -51.869  13.219  1.00  0.00     0.214 C 
BRANCH  21  22
HETATM   22  O   UNL     1     -44.868 -51.018  13.709  1.00  0.00    -0.315 OA
BRANCH  22  23
HETATM   23  C   UNL     1     -45.998 -51.656  14.111  1.00  0.00     0.293 C 
HETATM   24  O   UNL     1     -46.634 -52.444  13.437  1.00  0.00    -0.259 OA
BRANCH  23  25
HETATM   25  C   UNL     1     -46.391 -51.263  15.492  1.00  0.00     0.039 A 
HETATM   26  C   UNL     1     -47.672 -51.489  16.009  1.00  0.00     0.017 A 
HETATM   27  C   UNL     1     -47.996 -51.031  17.292  1.00  0.00     0.001 A 
HETATM   28  C   UNL     1     -47.045 -50.358  18.061  1.00  0.00     0.000 A 
HETATM   29  C   UNL     1     -45.764 -50.146  17.556  1.00  0.00     0.001 A 
HETATM   30  C   UNL     1     -45.438 -50.593  16.274  1.00  0.00     0.017 A 
ENDBRANCH  23  25
ENDBRANCH  22  23
ENDBRANCH  21  22
ENDBRANCH  17  21
ENDBRANCH   1  13
BRANCH   7  31
HETATM   31  N   UNL     1     -38.307 -57.011  17.892  1.00  0.00    -0.307 N 
HETATM   32  C   UNL     1     -38.199 -58.200  18.589  1.00  0.00     0.257 C 
HETATM   33  O   UNL     1     -39.128 -58.922  18.940  1.00  0.00    -0.267 OA
HETATM   34  H   UNL     1     -37.495 -56.425  17.749  1.00  0.00     0.170 HD
BRANCH  32  35
HETATM   35  C   UNL     1     -36.816 -58.630  18.972  1.00  0.00     0.032 A 
HETATM   36  C   UNL     1     -36.575 -60.004  19.141  1.00  0.00     0.017 A 
HETATM   37  C   UNL     1     -35.290 -60.476  19.427  1.00  0.00     0.001 A 
HETATM   38  C   UNL     1     -34.233 -59.577  19.541  1.00  0.00     0.000 A 
HETATM   39  C   UNL     1     -34.459 -58.210  19.368  1.00  0.00     0.001 A 
HETATM   40  C   UNL     1     -35.747 -57.734  19.087  1.00  0.00     0.017 A 
ENDBRANCH  32  35
ENDBRANCH   7  31
TORSDOF 8
ENDMDL
MODEL 7
REMARK VINA RESULT:      -7.1      1.974      4.273
REMARK  8 active torsions:
REMARK  status: ('A' for Active; 'I' for Inactive)
REMARK    1  A    between atoms: N_1  and  C_2 
REMARK    2  A    between atoms: C_7  and  O_27 
REMARK    3  A    between atoms: C_10  and  N_12 
REMARK       I    between atoms: N_12  and  C_14 
REMARK    4  A    between atoms: C_13  and  C_22 
REMARK    5  A    between atoms: C_14  and  C_24 
REMARK    6  A    between atoms: C_19  and  O_21 
REMARK    7  A    between atoms: C_19  and  C_26 
REMARK    8  A    between atoms: O_21  and  C_22 
ROOT
HETATM    1  N   UNL     1     -42.903 -48.887  13.738  1.00  0.00    -0.297 N 
HETATM    2  C   UNL     1     -43.050 -48.159  12.584  1.00  0.00     0.142 A 
HETATM    3  C   UNL     1     -42.616 -46.875  12.910  1.00  0.00     0.122 A 
HETATM    4  N   UNL     1     -42.225 -46.806  14.228  1.00  0.00    -0.346 N 
ATOM      5  HN  UNL     1     -41.878 -45.992  14.734  1.00  0.00     0.167 HD
HETATM    6  C   UNL     1     -42.398 -48.026  14.688  1.00  0.00     0.188 A 
HETATM    7  C   UNL     1     -42.627 -45.908  11.885  1.00  0.00     0.140 A 
HETATM    8  N   UNL     1     -43.476 -48.578  11.380  1.00  0.00    -0.336 N 
ATOM      9  HN  UNL     1     -43.766 -49.533  11.168  1.00  0.00     0.168 HD
HETATM   10  N   UNL     1     -43.080 -46.283  10.668  1.00  0.00    -0.337 N 
ATOM     11  HN  UNL     1     -43.126 -45.611   9.901  1.00  0.00     0.168 HD
HETATM   12  C   UNL     1     -43.470 -47.561  10.487  1.00  0.00     0.183 A 
ENDROOT
BRANCH   1  13
HETATM   13  C   UNL     1     -43.021 -50.321  13.959  1.00  0.00     0.262 C 
HETATM   14  C   UNL     1     -44.442 -50.870  13.950  1.00  0.00     0.204 C 
HETATM   15  C   UNL     1     -44.375 -52.068  14.887  1.00  0.00     0.234 C 
HETATM   16  F   UNL     1     -44.645 -53.195  14.175  1.00  0.00    -0.244 F 
HETATM   17  C   UNL     1     -42.955 -52.074  15.458  1.00  0.00     0.185 C 
HETATM   18  O   UNL     1     -42.410 -50.754  15.187  1.00  0.00    -0.353 OA
BRANCH  14  19
HETATM   19  O   UNL     1     -44.814 -51.249  12.618  1.00  0.00    -0.388 OA
HETATM   20  H   UNL     1     -45.441 -51.998  12.693  1.00  0.00     0.210 HD
ENDBRANCH  14  19
BRANCH  17  21
HETATM   21  C   UNL     1     -42.069 -53.172  14.830  1.00  0.00     0.214 C 
BRANCH  21  22
HETATM   22  O   UNL     1     -40.663 -52.859  14.898  1.00  0.00    -0.315 OA
BRANCH  22  23
HETATM   23  C   UNL     1     -39.971 -53.006  13.739  1.00  0.00     0.293 C 
HETATM   24  O   UNL     1     -39.744 -54.067  13.189  1.00  0.00    -0.259 OA
BRANCH  23  25
HETATM   25  C   UNL     1     -39.497 -51.697  13.210  1.00  0.00     0.039 A 
HETATM   26  C   UNL     1     -40.144 -51.021  12.169  1.00  0.00     0.017 A 
HETATM   27  C   UNL     1     -39.604 -49.828  11.672  1.00  0.00     0.001 A 
HETATM   28  C   UNL     1     -38.430 -49.306  12.216  1.00  0.00     0.000 A 
HETATM   29  C   UNL     1     -37.792 -49.968  13.264  1.00  0.00     0.001 A 
HETATM   30  C   UNL     1     -38.322 -51.162  13.757  1.00  0.00     0.017 A 
ENDBRANCH  23  25
ENDBRANCH  22  23
ENDBRANCH  21  22
ENDBRANCH  17  21
ENDBRANCH   1  13
BRANCH   7  31
HETATM   31  N   UNL     1     -42.167 -44.603  12.160  1.00  0.00    -0.307 N 
HETATM   32  C   UNL     1     -41.394 -43.844  11.301  1.00  0.00     0.257 C 
HETATM   33  O   UNL     1     -40.950 -44.206  10.215  1.00  0.00    -0.267 OA
HETATM   34  H   UNL     1     -42.389 -44.261  13.086  1.00  0.00     0.170 HD
BRANCH  32  35
HETATM   35  C   UNL     1     -41.049 -42.458  11.753  1.00  0.00     0.032 A 
HETATM   36  C   UNL     1     -40.020 -42.309  12.699  1.00  0.00     0.017 A 
HETATM   37  C   UNL     1     -39.602 -41.039  13.107  1.00  0.00     0.001 A 
HETATM   38  C   UNL     1     -40.205 -39.906  12.569  1.00  0.00     0.000 A 
HETATM   39  C   UNL     1     -41.224 -40.042  11.623  1.00  0.00     0.001 A 
HETATM   40  C   UNL     1     -41.649 -41.314  11.216  1.00  0.00     0.017 A 
ENDBRANCH  32  35
ENDBRANCH   7  31
TORSDOF 8
ENDMDL
MODEL 8
REMARK VINA RESULT:      -7.1      2.732      3.590
REMARK  8 active torsions:
REMARK  status: ('A' for Active; 'I' for Inactive)
REMARK    1  A    between atoms: N_1  and  C_2 
REMARK    2  A    between atoms: C_7  and  O_27 
REMARK    3  A    between atoms: C_10  and  N_12 
REMARK       I    between atoms: N_12  and  C_14 
REMARK    4  A    between atoms: C_13  and  C_22 
REMARK    5  A    between atoms: C_14  and  C_24 
REMARK    6  A    between atoms: C_19  and  O_21 
REMARK    7  A    between atoms: C_19  and  C_26 
REMARK    8  A    between atoms: O_21  and  C_22 
ROOT
HETATM    1  N   UNL     1     -40.432 -47.833  13.205  1.00  0.00    -0.297 N 
HETATM    2  C   UNL     1     -41.377 -47.520  12.260  1.00  0.00     0.142 A 
HETATM    3  C   UNL     1     -41.651 -46.167  12.458  1.00  0.00     0.122 A 
HETATM    4  N   UNL     1     -40.909 -45.662  13.502  1.00  0.00    -0.346 N 
ATOM      5  HN  UNL     1     -40.918 -44.712  13.871  1.00  0.00     0.167 HD
HETATM    6  C   UNL     1     -40.186 -46.679  13.917  1.00  0.00     0.188 A 
HETATM    7  C   UNL     1     -42.579 -45.561  11.590  1.00  0.00     0.140 A 
HETATM    8  N   UNL     1     -41.906 -48.313  11.312  1.00  0.00    -0.336 N 
ATOM      9  HN  UNL     1     -41.666 -49.295  11.179  1.00  0.00     0.168 HD
HETATM   10  N   UNL     1     -43.158 -46.334  10.644  1.00  0.00    -0.337 N 
ATOM     11  HN  UNL     1     -43.852 -45.943  10.006  1.00  0.00     0.168 HD
HETATM   12  C   UNL     1     -42.801 -47.631  10.560  1.00  0.00     0.183 A 
ENDROOT
BRANCH   1  13
HETATM   13  C   UNL     1     -39.637 -49.042  13.366  1.00  0.00     0.262 C 
HETATM   14  C   UNL     1     -38.204 -48.955  12.859  1.00  0.00     0.204 C 
HETATM   15  C   UNL     1     -37.878 -50.383  12.442  1.00  0.00     0.234 C 
HETATM   16  F   UNL     1     -36.869 -50.848  13.227  1.00  0.00    -0.244 F 
HETATM   17  C   UNL     1     -39.171 -51.180  12.633  1.00  0.00     0.185 C 
HETATM   18  O   UNL     1     -40.234 -50.195  12.747  1.00  0.00    -0.353 OA
BRANCH  14  19
HETATM   19  O   UNL     1     -37.339 -48.490  13.905  1.00  0.00    -0.388 OA
HETATM   20  H   UNL     1     -36.726 -49.223  14.122  1.00  0.00     0.210 HD
ENDBRANCH  14  19
BRANCH  17  21
HETATM   21  C   UNL     1     -39.128 -52.086  13.883  1.00  0.00     0.214 C 
BRANCH  21  22
HETATM   22  O   UNL     1     -39.017 -53.485  13.553  1.00  0.00    -0.315 OA
BRANCH  22  23
HETATM   23  C   UNL     1     -39.554 -54.347  14.455  1.00  0.00     0.293 C 
HETATM   24  O   UNL     1     -38.921 -54.989  15.271  1.00  0.00    -0.259 OA
BRANCH  23  25
HETATM   25  C   UNL     1     -41.034 -54.433  14.322  1.00  0.00     0.039 A 
HETATM   26  C   UNL     1     -41.714 -54.056  13.158  1.00  0.00     0.017 A 
HETATM   27  C   UNL     1     -43.114 -54.095  13.125  1.00  0.00     0.001 A 
HETATM   28  C   UNL     1     -43.833 -54.518  14.244  1.00  0.00     0.000 A 
HETATM   29  C   UNL     1     -43.159 -54.910  15.399  1.00  0.00     0.001 A 
HETATM   30  C   UNL     1     -41.764 -54.863  15.440  1.00  0.00     0.017 A 
ENDBRANCH  23  25
ENDBRANCH  22  23
ENDBRANCH  21  22
ENDBRANCH  17  21
ENDBRANCH   1  13
BRANCH   7  31
HETATM   31  N   UNL     1     -42.865 -44.186  11.732  1.00  0.00    -0.307 N 
HETATM   32  C   UNL     1     -42.123 -43.166  11.167  1.00  0.00     0.257 C 
HETATM   33  O   UNL     1     -41.090 -43.296  10.517  1.00  0.00    -0.267 OA
HETATM   34  H   UNL     1     -43.638 -43.975  12.349  1.00  0.00     0.170 HD
BRANCH  32  35
HETATM   35  C   UNL     1     -42.619 -41.770  11.392  1.00  0.00     0.032 A 
HETATM   36  C   UNL     1     -41.672 -40.735  11.456  1.00  0.00     0.017 A 
HETATM   37  C   UNL     1     -42.074 -39.403  11.592  1.00  0.00     0.001 A 
HETATM   38  C   UNL     1     -43.430 -39.094  11.659  1.00  0.00     0.000 A 
HETATM   39  C   UNL     1     -44.382 -40.114  11.590  1.00  0.00     0.001 A 
HETATM   40  C   UNL     1     -43.980 -41.451  11.459  1.00  0.00     0.017 A 
ENDBRANCH  32  35
ENDBRANCH   7  31
TORSDOF 8
ENDMDL
MODEL 9
REMARK VINA RESULT:      -7.0      2.488      4.607
REMARK  8 active torsions:
REMARK  status: ('A' for Active; 'I' for Inactive)
REMARK    1  A    between atoms: N_1  and  C_2 
REMARK    2  A    between atoms: C_7  and  O_27 
REMARK    3  A    between atoms: C_10  and  N_12 
REMARK       I    between atoms: N_12  and  C_14 
REMARK    4  A    between atoms: C_13  and  C_22 
REMARK    5  A    between atoms: C_14  and  C_24 
REMARK    6  A    between atoms: C_19  and  O_21 
REMARK    7  A    between atoms: C_19  and  C_26 
REMARK    8  A    between atoms: O_21  and  C_22 
ROOT
HETATM    1  N   UNL     1     -42.683 -51.151  12.962  1.00  0.00    -0.297 N 
HETATM    2  C   UNL     1     -41.672 -50.544  12.261  1.00  0.00     0.142 A 
HETATM    3  C   UNL     1     -42.046 -49.203  12.179  1.00  0.00     0.122 A 
HETATM    4  N   UNL     1     -43.256 -48.989  12.800  1.00  0.00    -0.346 N 
ATOM      5  HN  UNL     1     -43.770 -48.112  12.881  1.00  0.00     0.167 HD
HETATM    6  C   UNL     1     -43.602 -50.170  13.265  1.00  0.00     0.188 A 
HETATM    7  C   UNL     1     -41.160 -48.322  11.528  1.00  0.00     0.140 A 
HETATM    8  N   UNL     1     -40.541 -51.089  11.783  1.00  0.00    -0.336 N 
ATOM      9  HN  UNL     1     -40.286 -52.072  11.880  1.00  0.00     0.168 HD
HETATM   10  N   UNL     1     -40.026 -48.840  11.005  1.00  0.00    -0.337 N 
ATOM     11  HN  UNL     1     -39.365 -48.244  10.506  1.00  0.00     0.168 HD
HETATM   12  C   UNL     1     -39.785 -50.158  11.156  1.00  0.00     0.183 A 
ENDROOT
BRANCH   1  13
HETATM   13  C   UNL     1     -42.761 -52.498  13.510  1.00  0.00     0.262 C 
HETATM   14  C   UNL     1     -44.112 -53.186  13.366  1.00  0.00     0.204 C 
HETATM   15  C   UNL     1     -44.177 -54.118  14.569  1.00  0.00     0.234 C 
HETATM   16  F   UNL     1     -44.221 -55.402  14.125  1.00  0.00    -0.244 F 
HETATM   17  C   UNL     1     -42.914 -53.833  15.386  1.00  0.00     0.185 C 
HETATM   18  O   UNL     1     -42.402 -52.562  14.902  1.00  0.00    -0.353 OA
BRANCH  14  19
HETATM   19  O   UNL     1     -44.167 -53.906  12.126  1.00  0.00    -0.388 OA
HETATM   20  H   UNL     1     -45.091 -54.208  12.007  1.00  0.00     0.210 HD
ENDBRANCH  14  19
BRANCH  17  21
HETATM   21  C   UNL     1     -41.851 -54.943  15.238  1.00  0.00     0.214 C 
BRANCH  21  22
HETATM   22  O   UNL     1     -40.709 -54.520  14.466  1.00  0.00    -0.315 OA
BRANCH  22  23
HETATM   23  C   UNL     1     -39.505 -54.641  15.082  1.00  0.00     0.293 C 
HETATM   24  O   UNL     1     -38.899 -55.684  15.237  1.00  0.00    -0.259 OA
BRANCH  23  25
HETATM   25  C   UNL     1     -39.002 -53.328  15.572  1.00  0.00     0.039 A 
HETATM   26  C   UNL     1     -38.658 -53.099  16.909  1.00  0.00     0.017 A 
HETATM   27  C   UNL     1     -38.260 -51.820  17.317  1.00  0.00     0.001 A 
HETATM   28  C   UNL     1     -38.195 -50.775  16.394  1.00  0.00     0.000 A 
HETATM   29  C   UNL     1     -38.521 -51.002  15.059  1.00  0.00     0.001 A 
HETATM   30  C   UNL     1     -38.928 -52.274  14.649  1.00  0.00     0.017 A 
ENDBRANCH  23  25
ENDBRANCH  22  23
ENDBRANCH  21  22
ENDBRANCH  17  21
ENDBRANCH   1  13
BRANCH   7  31
HETATM   31  N   UNL     1     -41.480 -46.950  11.449  1.00  0.00    -0.307 N 
HETATM   32  C   UNL     1     -40.711 -45.931  11.978  1.00  0.00     0.257 C 
HETATM   33  O   UNL     1     -39.683 -46.066  12.636  1.00  0.00    -0.267 OA
HETATM   34  H   UNL     1     -42.374 -46.747  11.021  1.00  0.00     0.170 HD
BRANCH  32  35
HETATM   35  C   UNL     1     -41.195 -44.533  11.745  1.00  0.00     0.032 A 
HETATM   36  C   UNL     1     -40.291 -43.478  11.951  1.00  0.00     0.017 A 
HETATM   37  C   UNL     1     -40.659 -42.156  11.682  1.00  0.00     0.001 A 
HETATM   38  C   UNL     1     -41.934 -41.878  11.198  1.00  0.00     0.000 A 
HETATM   39  C   UNL     1     -42.840 -42.920  10.983  1.00  0.00     0.001 A 
HETATM   40  C   UNL     1     -42.475 -44.245  11.257  1.00  0.00     0.017 A 
ENDBRANCH  32  35
ENDBRANCH   7  31
TORSDOF 8
ENDMDL
