MODEL 1
REMARK VINA RESULT:      -6.9      0.000      0.000
REMARK  4 active torsions:
REMARK  status: ('A' for Active; 'I' for Inactive)
REMARK    1  A    between atoms: N_11  and  C_12 
REMARK    2  A    between atoms: C_12  and  C_13 
REMARK    3  A    between atoms: C_13  and  O_14 
REMARK    4  A    between atoms: C_13  and  C_15 
ROOT
HETATM    1  C   UNL     1     -40.452 -51.604  13.051  1.00  0.00     0.167 C 
ENDROOT
BRANCH   1   2
HETATM    2  N   UNL     1     -40.233 -50.331  12.370  1.00  0.00    -0.332 N 
HETATM    3  C   UNL     1     -39.034 -49.875  11.859  1.00  0.00     0.080 A 
HETATM    4  C   UNL     1     -37.739 -50.589  11.986  1.00  0.00     0.089 C 
HETATM    5  N   UNL     1     -39.193 -48.726  11.235  1.00  0.00    -0.344 N 
HETATM    6  C   UNL     1     -40.525 -48.423  11.336  1.00  0.00     0.060 A 
ATOM      7  HN  UNL     1     -38.471 -48.174  10.772  1.00  0.00     0.167 HD
HETATM    8  C   UNL     1     -41.221 -47.314  10.837  1.00  0.00     0.032 A 
HETATM    9  C   UNL     1     -41.208 -49.410  12.044  1.00  0.00     0.062 A 
HETATM   10  C   UNL     1     -42.601 -47.223  11.064  1.00  0.00     0.002 A 
HETATM   11  C   UNL     1     -43.268 -48.215  11.783  1.00  0.00     0.002 A 
HETATM   12  C   UNL     1     -42.586 -49.331  12.288  1.00  0.00     0.032 A 
ENDBRANCH   1   2
BRANCH   1  13
HETATM   13  C   UNL     1     -41.291 -52.596  12.227  1.00  0.00     0.175 C 
BRANCH  13  14
HETATM   14  O   UNL     1     -40.460 -53.435  11.419  1.00  0.00    -0.389 OA
HETATM   15  H   UNL     1     -39.955 -52.866  10.812  1.00  0.00     0.210 HD
ENDBRANCH  13  14
BRANCH  13  16
HETATM   16  C   UNL     1     -42.160 -53.513  13.057  1.00  0.00     0.049 A 
HETATM   17  C   UNL     1     -41.624 -54.239  14.123  1.00  0.00     0.128 A 
HETATM   18  F   UNL     1     -40.302 -54.223  14.346  1.00  0.00    -0.205 F 
HETATM   19  C   UNL     1     -42.433 -54.982  14.987  1.00  0.00     0.043 A 
HETATM   20  C   UNL     1     -43.812 -55.022  14.787  1.00  0.00     0.006 A 
HETATM   21  C   UNL     1     -44.366 -54.341  13.706  1.00  0.00     0.043 A 
HETATM   22  C   UNL     1     -43.541 -53.601  12.856  1.00  0.00     0.128 A 
HETATM   23  F   UNL     1     -44.103 -52.935  11.837  1.00  0.00    -0.205 F 
ENDBRANCH  13  16
ENDBRANCH   1  13
TORSDOF 4
ENDMDL
MODEL 2
REMARK VINA RESULT:      -6.7      0.170      1.802
REMARK  4 active torsions:
REMARK  status: ('A' for Active; 'I' for Inactive)
REMARK    1  A    between atoms: N_11  and  C_12 
REMARK    2  A    between atoms: C_12  and  C_13 
REMARK    3  A    between atoms: C_13  and  O_14 
REMARK    4  A    between atoms: C_13  and  C_15 
ROOT
HETATM    1  C   UNL     1     -40.518 -51.543  13.115  1.00  0.00     0.167 C 
ENDROOT
BRANCH   1   2
HETATM    2  N   UNL     1     -40.290 -50.295  12.393  1.00  0.00    -0.332 N 
HETATM    3  C   UNL     1     -39.090 -49.868  11.862  1.00  0.00     0.080 A 
HETATM    4  C   UNL     1     -37.801 -50.590  12.005  1.00  0.00     0.089 C 
HETATM    5  N   UNL     1     -39.241 -48.737  11.203  1.00  0.00    -0.344 N 
HETATM    6  C   UNL     1     -40.569 -48.418  11.301  1.00  0.00     0.060 A 
ATOM      7  HN  UNL     1     -38.516 -48.207  10.719  1.00  0.00     0.167 HD
HETATM    8  C   UNL     1     -41.256 -47.318  10.770  1.00  0.00     0.032 A 
HETATM    9  C   UNL     1     -41.258 -49.375  12.043  1.00  0.00     0.062 A 
HETATM   10  C   UNL     1     -42.634 -47.206  11.001  1.00  0.00     0.002 A 
HETATM   11  C   UNL     1     -43.307 -48.168  11.754  1.00  0.00     0.002 A 
HETATM   12  C   UNL     1     -42.634 -49.274  12.291  1.00  0.00     0.032 A 
ENDBRANCH   1   2
BRANCH   1  13
HETATM   13  C   UNL     1     -41.349 -52.563  12.316  1.00  0.00     0.175 C 
BRANCH  13  14
HETATM   14  O   UNL     1     -40.507 -53.477  11.607  1.00  0.00    -0.389 OA
HETATM   15  H   UNL     1     -39.652 -53.041  11.448  1.00  0.00     0.210 HD
ENDBRANCH  13  14
BRANCH  13  16
HETATM   16  C   UNL     1     -42.286 -53.397  13.159  1.00  0.00     0.049 A 
HETATM   17  C   UNL     1     -43.642 -53.499  12.839  1.00  0.00     0.128 A 
HETATM   18  F   UNL     1     -44.152 -52.755  11.847  1.00  0.00    -0.205 F 
HETATM   19  C   UNL     1     -44.494 -54.371  13.519  1.00  0.00     0.043 A 
HETATM   20  C   UNL     1     -43.999 -55.161  14.556  1.00  0.00     0.006 A 
HETATM   21  C   UNL     1     -42.660 -55.047  14.922  1.00  0.00     0.043 A 
HETATM   22  C   UNL     1     -41.823 -54.171  14.228  1.00  0.00     0.128 A 
HETATM   23  F   UNL     1     -40.533 -54.099  14.585  1.00  0.00    -0.205 F 
ENDBRANCH  13  16
ENDBRANCH   1  13
TORSDOF 4
ENDMDL
MODEL 3
REMARK VINA RESULT:      -6.6      2.778      4.196
REMARK  4 active torsions:
REMARK  status: ('A' for Active; 'I' for Inactive)
REMARK    1  A    between atoms: N_11  and  C_12 
REMARK    2  A    between atoms: C_12  and  C_13 
REMARK    3  A    between atoms: C_13  and  O_14 
REMARK    4  A    between atoms: C_13  and  C_15 
ROOT
HETATM    1  C   UNL     1     -42.329 -50.939  12.631  1.00  0.00     0.167 C 
ENDROOT
BRANCH   1   2
HETATM    2  N   UNL     1     -43.053 -50.828  13.893  1.00  0.00    -0.332 N 
HETATM    3  C   UNL     1     -42.546 -50.351  15.085  1.00  0.00     0.080 A 
HETATM    4  C   UNL     1     -41.137 -49.934  15.294  1.00  0.00     0.089 C 
HETATM    5  N   UNL     1     -43.481 -50.307  16.012  1.00  0.00    -0.344 N 
HETATM    6  C   UNL     1     -44.627 -50.762  15.414  1.00  0.00     0.060 A 
ATOM      7  HN  UNL     1     -43.374 -49.998  16.978  1.00  0.00     0.167 HD
HETATM    8  C   UNL     1     -45.911 -50.906  15.957  1.00  0.00     0.032 A 
HETATM    9  C   UNL     1     -44.393 -51.099  14.083  1.00  0.00     0.062 A 
HETATM   10  C   UNL     1     -46.940 -51.393  15.139  1.00  0.00     0.002 A 
HETATM   11  C   UNL     1     -46.687 -51.735  13.810  1.00  0.00     0.002 A 
HETATM   12  C   UNL     1     -45.409 -51.595  13.253  1.00  0.00     0.032 A 
ENDBRANCH   1   2
BRANCH   1  13
HETATM   13  C   UNL     1     -42.080 -52.395  12.200  1.00  0.00     0.175 C 
BRANCH  13  14
HETATM   14  O   UNL     1     -41.206 -52.460  11.069  1.00  0.00    -0.389 OA
HETATM   15  H   UNL     1     -40.622 -53.231  11.182  1.00  0.00     0.210 HD
ENDBRANCH  13  14
BRANCH  13  16
HETATM   16  C   UNL     1     -41.470 -53.266  13.274  1.00  0.00     0.049 A 
HETATM   17  C   UNL     1     -40.156 -53.065  13.700  1.00  0.00     0.128 A 
HETATM   18  F   UNL     1     -39.378 -52.173  13.071  1.00  0.00    -0.205 F 
HETATM   19  C   UNL     1     -39.619 -53.765  14.784  1.00  0.00     0.043 A 
HETATM   20  C   UNL     1     -40.398 -54.700  15.463  1.00  0.00     0.006 A 
HETATM   21  C   UNL     1     -41.699 -54.949  15.031  1.00  0.00     0.043 A 
HETATM   22  C   UNL     1     -42.218 -54.237  13.947  1.00  0.00     0.128 A 
HETATM   23  F   UNL     1     -43.481 -54.479  13.566  1.00  0.00    -0.205 F 
ENDBRANCH  13  16
ENDBRANCH   1  13
TORSDOF 4
ENDMDL
MODEL 4
REMARK VINA RESULT:      -6.4      2.793      5.261
REMARK  4 active torsions:
REMARK  status: ('A' for Active; 'I' for Inactive)
REMARK    1  A    between atoms: N_11  and  C_12 
REMARK    2  A    between atoms: C_12  and  C_13 
REMARK    3  A    between atoms: C_13  and  O_14 
REMARK    4  A    between atoms: C_13  and  C_15 
ROOT
HETATM    1  C   UNL     1     -42.437 -52.253  12.218  1.00  0.00     0.167 C 
ENDROOT
BRANCH   1   2
HETATM    2  N   UNL     1     -43.469 -52.114  13.240  1.00  0.00    -0.332 N 
HETATM    3  C   UNL     1     -43.775 -50.963  13.939  1.00  0.00     0.080 A 
HETATM    4  C   UNL     1     -43.042 -49.679  13.809  1.00  0.00     0.089 C 
HETATM    5  N   UNL     1     -44.811 -51.154  14.731  1.00  0.00    -0.344 N 
HETATM    6  C   UNL     1     -45.194 -52.456  14.545  1.00  0.00     0.060 A 
ATOM      7  HN  UNL     1     -45.240 -50.470  15.356  1.00  0.00     0.167 HD
HETATM    8  C   UNL     1     -46.248 -53.161  15.141  1.00  0.00     0.032 A 
HETATM    9  C   UNL     1     -44.371 -53.089  13.616  1.00  0.00     0.062 A 
HETATM   10  C   UNL     1     -46.450 -54.502  14.785  1.00  0.00     0.002 A 
HETATM   11  C   UNL     1     -45.612 -55.123  13.860  1.00  0.00     0.002 A 
HETATM   12  C   UNL     1     -44.555 -54.431  13.254  1.00  0.00     0.032 A 
ENDBRANCH   1   2
BRANCH   1  13
HETATM   13  C   UNL     1     -41.388 -53.326  12.557  1.00  0.00     0.175 C 
BRANCH  13  14
HETATM   14  O   UNL     1     -40.431 -53.470  11.502  1.00  0.00    -0.389 OA
HETATM   15  H   UNL     1     -40.361 -54.416  11.284  1.00  0.00     0.210 HD
ENDBRANCH  13  14
BRANCH  13  16
HETATM   16  C   UNL     1     -40.605 -53.053  13.820  1.00  0.00     0.049 A 
HETATM   17  C   UNL     1     -40.706 -53.902  14.925  1.00  0.00     0.128 A 
HETATM   18  F   UNL     1     -41.597 -54.903  14.920  1.00  0.00    -0.205 F 
HETATM   19  C   UNL     1     -39.890 -53.747  16.048  1.00  0.00     0.043 A 
HETATM   20  C   UNL     1     -38.951 -52.717  16.090  1.00  0.00     0.006 A 
HETATM   21  C   UNL     1     -38.860 -51.833  15.018  1.00  0.00     0.043 A 
HETATM   22  C   UNL     1     -39.683 -52.005  13.904  1.00  0.00     0.128 A 
HETATM   23  F   UNL     1     -39.558 -51.154  12.875  1.00  0.00    -0.205 F 
ENDBRANCH  13  16
ENDBRANCH   1  13
TORSDOF 4
ENDMDL
MODEL 5
REMARK VINA RESULT:      -6.3      1.357      2.205
REMARK  4 active torsions:
REMARK  status: ('A' for Active; 'I' for Inactive)
REMARK    1  A    between atoms: N_11  and  C_12 
REMARK    2  A    between atoms: C_12  and  C_13 
REMARK    3  A    between atoms: C_13  and  O_14 
REMARK    4  A    between atoms: C_13  and  C_15 
ROOT
HETATM    1  C   UNL     1     -40.837 -51.486  13.022  1.00  0.00     0.167 C 
ENDROOT
BRANCH   1   2
HETATM    2  N   UNL     1     -41.700 -50.324  13.211  1.00  0.00    -0.332 N 
HETATM    3  C   UNL     1     -42.445 -50.037  14.338  1.00  0.00     0.080 A 
HETATM    4  C   UNL     1     -42.542 -50.917  15.530  1.00  0.00     0.089 C 
HETATM    5  N   UNL     1     -43.051 -48.874  14.219  1.00  0.00    -0.344 N 
HETATM    6  C   UNL     1     -42.695 -48.387  12.990  1.00  0.00     0.060 A 
ATOM      7  HN  UNL     1     -43.663 -48.428  14.903  1.00  0.00     0.167 HD
HETATM    8  C   UNL     1     -43.060 -47.181  12.377  1.00  0.00     0.032 A 
HETATM    9  C   UNL     1     -41.847 -49.273  12.329  1.00  0.00     0.062 A 
HETATM   10  C   UNL     1     -42.559 -46.893  11.099  1.00  0.00     0.002 A 
HETATM   11  C   UNL     1     -41.719 -47.796  10.448  1.00  0.00     0.002 A 
HETATM   12  C   UNL     1     -41.344 -49.005  11.048  1.00  0.00     0.032 A 
ENDBRANCH   1   2
BRANCH   1  13
HETATM   13  C   UNL     1     -41.507 -52.616  12.221  1.00  0.00     0.175 C 
BRANCH  13  14
HETATM   14  O   UNL     1     -40.536 -53.420  11.544  1.00  0.00    -0.389 OA
HETATM   15  H   UNL     1     -40.584 -53.215  10.593  1.00  0.00     0.210 HD
ENDBRANCH  13  14
BRANCH  13  16
HETATM   16  C   UNL     1     -42.346 -53.556  13.056  1.00  0.00     0.049 A 
HETATM   17  C   UNL     1     -41.784 -54.268  14.118  1.00  0.00     0.128 A 
HETATM   18  F   UNL     1     -40.461 -54.217  14.332  1.00  0.00    -0.205 F 
HETATM   19  C   UNL     1     -42.567 -55.033  14.986  1.00  0.00     0.043 A 
HETATM   20  C   UNL     1     -43.946 -55.110  14.795  1.00  0.00     0.006 A 
HETATM   21  C   UNL     1     -44.524 -54.442  13.718  1.00  0.00     0.043 A 
HETATM   22  C   UNL     1     -43.725 -53.681  12.863  1.00  0.00     0.128 A 
HETATM   23  F   UNL     1     -44.311 -53.029  11.848  1.00  0.00    -0.205 F 
ENDBRANCH  13  16
ENDBRANCH   1  13
TORSDOF 4
ENDMDL
MODEL 6
REMARK VINA RESULT:      -6.3      2.580      5.830
REMARK  4 active torsions:
REMARK  status: ('A' for Active; 'I' for Inactive)
REMARK    1  A    between atoms: N_11  and  C_12 
REMARK    2  A    between atoms: C_12  and  C_13 
REMARK    3  A    between atoms: C_13  and  O_14 
REMARK    4  A    between atoms: C_13  and  C_15 
ROOT
HETATM    1  C   UNL     1     -42.270 -51.916  12.175  1.00  0.00     0.167 C 
ENDROOT
BRANCH   1   2
HETATM    2  N   UNL     1     -43.233 -51.899  13.272  1.00  0.00    -0.332 N 
HETATM    3  C   UNL     1     -43.486 -50.837  14.118  1.00  0.00     0.080 A 
HETATM    4  C   UNL     1     -42.755 -49.546  14.090  1.00  0.00     0.089 C 
HETATM    5  N   UNL     1     -44.468 -51.120  14.948  1.00  0.00    -0.344 N 
HETATM    6  C   UNL     1     -44.871 -52.392  14.639  1.00  0.00     0.060 A 
ATOM      7  HN  UNL     1     -44.851 -50.514  15.675  1.00  0.00     0.167 HD
HETATM    8  C   UNL     1     -45.888 -53.163  15.217  1.00  0.00     0.032 A 
HETATM    9  C   UNL     1     -44.114 -52.912  13.591  1.00  0.00     0.062 A 
HETATM   10  C   UNL     1     -46.122 -54.453  14.721  1.00  0.00     0.002 A 
HETATM   11  C   UNL     1     -45.349 -54.963  13.677  1.00  0.00     0.002 A 
HETATM   12  C   UNL     1     -44.329 -54.203  13.088  1.00  0.00     0.032 A 
ENDBRANCH   1   2
BRANCH   1  13
HETATM   13  C   UNL     1     -40.925 -52.559  12.558  1.00  0.00     0.175 C 
BRANCH  13  14
HETATM   14  O   UNL     1     -40.460 -53.442  11.532  1.00  0.00    -0.389 OA
HETATM   15  H   UNL     1     -39.877 -54.103  11.944  1.00  0.00     0.210 HD
ENDBRANCH  13  14
BRANCH  13  16
HETATM   16  C   UNL     1     -39.814 -51.568  12.818  1.00  0.00     0.049 A 
HETATM   17  C   UNL     1     -39.659 -50.437  12.015  1.00  0.00     0.128 A 
HETATM   18  F   UNL     1     -40.423 -50.281  10.924  1.00  0.00    -0.205 F 
HETATM   19  C   UNL     1     -38.729 -49.440  12.320  1.00  0.00     0.043 A 
HETATM   20  C   UNL     1     -37.917 -49.567  13.447  1.00  0.00     0.006 A 
HETATM   21  C   UNL     1     -38.024 -50.707  14.240  1.00  0.00     0.043 A 
HETATM   22  C   UNL     1     -38.962 -51.691  13.920  1.00  0.00     0.128 A 
HETATM   23  F   UNL     1     -39.060 -52.766  14.715  1.00  0.00    -0.205 F 
ENDBRANCH  13  16
ENDBRANCH   1  13
TORSDOF 4
ENDMDL
MODEL 7
REMARK VINA RESULT:      -6.1      3.105      5.367
REMARK  4 active torsions:
REMARK  status: ('A' for Active; 'I' for Inactive)
REMARK    1  A    between atoms: N_11  and  C_12 
REMARK    2  A    between atoms: C_12  and  C_13 
REMARK    3  A    between atoms: C_13  and  O_14 
REMARK    4  A    between atoms: C_13  and  C_15 
ROOT
HETATM    1  C   UNL     1     -41.507 -51.456  14.692  1.00  0.00     0.167 C 
ENDROOT
BRANCH   1   2
HETATM    2  N   UNL     1     -42.520 -51.929  13.753  1.00  0.00    -0.332 N 
HETATM    3  C   UNL     1     -42.291 -52.678  12.616  1.00  0.00     0.080 A 
HETATM    4  C   UNL     1     -40.947 -53.067  12.121  1.00  0.00     0.089 C 
HETATM    5  N   UNL     1     -43.425 -53.009  12.033  1.00  0.00    -0.344 N 
HETATM    6  C   UNL     1     -44.418 -52.469  12.806  1.00  0.00     0.060 A 
ATOM      7  HN  UNL     1     -43.539 -53.556  11.179  1.00  0.00     0.167 HD
HETATM    8  C   UNL     1     -45.807 -52.534  12.633  1.00  0.00     0.032 A 
HETATM    9  C   UNL     1     -43.885 -51.782  13.895  1.00  0.00     0.062 A 
HETATM   10  C   UNL     1     -46.635 -51.899  13.570  1.00  0.00     0.002 A 
HETATM   11  C   UNL     1     -46.085 -51.208  14.649  1.00  0.00     0.002 A 
HETATM   12  C   UNL     1     -44.698 -51.135  14.836  1.00  0.00     0.032 A 
ENDBRANCH   1   2
BRANCH   1  13
HETATM   13  C   UNL     1     -40.952 -50.065  14.336  1.00  0.00     0.175 C 
BRANCH  13  14
HETATM   14  O   UNL     1     -40.650 -49.309  15.512  1.00  0.00    -0.389 OA
HETATM   15  H   UNL     1     -41.138 -48.468  15.465  1.00  0.00     0.210 HD
ENDBRANCH  13  14
BRANCH  13  16
HETATM   16  C   UNL     1     -39.693 -50.094  13.501  1.00  0.00     0.049 A 
HETATM   17  C   UNL     1     -38.550 -50.761  13.947  1.00  0.00     0.128 A 
HETATM   18  F   UNL     1     -38.520 -51.281  15.183  1.00  0.00    -0.205 F 
HETATM   19  C   UNL     1     -37.425 -50.917  13.134  1.00  0.00     0.043 A 
HETATM   20  C   UNL     1     -37.420 -50.390  11.843  1.00  0.00     0.006 A 
HETATM   21  C   UNL     1     -38.532 -49.685  11.390  1.00  0.00     0.043 A 
HETATM   22  C   UNL     1     -39.648 -49.541  12.217  1.00  0.00     0.128 A 
HETATM   23  F   UNL     1     -40.714 -48.878  11.746  1.00  0.00    -0.205 F 
ENDBRANCH  13  16
ENDBRANCH   1  13
TORSDOF 4
ENDMDL
MODEL 8
REMARK VINA RESULT:      -6.1      2.542      3.465
REMARK  4 active torsions:
REMARK  status: ('A' for Active; 'I' for Inactive)
REMARK    1  A    between atoms: N_11  and  C_12 
REMARK    2  A    between atoms: C_12  and  C_13 
REMARK    3  A    between atoms: C_13  and  O_14 
REMARK    4  A    between atoms: C_13  and  C_15 
ROOT
HETATM    1  C   UNL     1     -42.182 -52.514  15.032  1.00  0.00     0.167 C 
ENDROOT
BRANCH   1   2
HETATM    2  N   UNL     1     -41.831 -51.843  13.785  1.00  0.00    -0.332 N 
HETATM    3  C   UNL     1     -41.219 -52.423  12.692  1.00  0.00     0.080 A 
HETATM    4  C   UNL     1     -40.748 -53.829  12.638  1.00  0.00     0.089 C 
HETATM    5  N   UNL     1     -41.115 -51.564  11.699  1.00  0.00    -0.344 N 
HETATM    6  C   UNL     1     -41.674 -50.397  12.148  1.00  0.00     0.060 A 
ATOM      7  HN  UNL     1     -40.702 -51.733  10.781  1.00  0.00     0.167 HD
HETATM    8  C   UNL     1     -41.825 -49.174  11.481  1.00  0.00     0.032 A 
HETATM    9  C   UNL     1     -42.132 -50.537  13.456  1.00  0.00     0.062 A 
HETATM   10  C   UNL     1     -42.441 -48.109  12.153  1.00  0.00     0.002 A 
HETATM   11  C   UNL     1     -42.887 -48.263  13.466  1.00  0.00     0.002 A 
HETATM   12  C   UNL     1     -42.743 -49.480  14.146  1.00  0.00     0.032 A 
ENDBRANCH   1   2
BRANCH   1  13
HETATM   13  C   UNL     1     -43.346 -53.509  14.879  1.00  0.00     0.175 C 
BRANCH  13  14
HETATM   14  O   UNL     1     -43.718 -54.072  16.141  1.00  0.00    -0.389 OA
HETATM   15  H   UNL     1     -43.026 -54.702  16.407  1.00  0.00     0.210 HD
ENDBRANCH  13  14
BRANCH  13  16
HETATM   16  C   UNL     1     -44.600 -52.912  14.282  1.00  0.00     0.049 A 
HETATM   17  C   UNL     1     -45.378 -52.005  15.005  1.00  0.00     0.128 A 
HETATM   18  F   UNL     1     -45.086 -51.747  16.288  1.00  0.00    -0.205 F 
HETATM   19  C   UNL     1     -46.459 -51.337  14.425  1.00  0.00     0.043 A 
HETATM   20  C   UNL     1     -46.793 -51.579  13.093  1.00  0.00     0.006 A 
HETATM   21  C   UNL     1     -46.058 -52.511  12.363  1.00  0.00     0.043 A 
HETATM   22  C   UNL     1     -44.979 -53.165  12.961  1.00  0.00     0.128 A 
HETATM   23  F   UNL     1     -44.273 -54.040  12.228  1.00  0.00    -0.205 F 
ENDBRANCH  13  16
ENDBRANCH   1  13
TORSDOF 4
ENDMDL
MODEL 9
REMARK VINA RESULT:      -6.0      2.929      5.214
REMARK  4 active torsions:
REMARK  status: ('A' for Active; 'I' for Inactive)
REMARK    1  A    between atoms: N_11  and  C_12 
REMARK    2  A    between atoms: C_12  and  C_13 
REMARK    3  A    between atoms: C_13  and  O_14 
REMARK    4  A    between atoms: C_13  and  C_15 
ROOT
HETATM    1  C   UNL     1     -42.653 -51.945  12.553  1.00  0.00     0.167 C 
ENDROOT
BRANCH   1   2
HETATM    2  N   UNL     1     -41.615 -52.617  13.329  1.00  0.00    -0.332 N 
HETATM    3  C   UNL     1     -40.275 -52.286  13.358  1.00  0.00     0.080 A 
HETATM    4  C   UNL     1     -39.654 -51.218  12.535  1.00  0.00     0.089 C 
HETATM    5  N   UNL     1     -39.623 -53.038  14.219  1.00  0.00    -0.344 N 
HETATM    6  C   UNL     1     -40.554 -53.879  14.769  1.00  0.00     0.060 A 
ATOM      7  HN  UNL     1     -38.625 -53.003  14.433  1.00  0.00     0.167 HD
HETATM    8  C   UNL     1     -40.384 -54.870  15.745  1.00  0.00     0.032 A 
HETATM    9  C   UNL     1     -41.817 -53.642  14.231  1.00  0.00     0.062 A 
HETATM   10  C   UNL     1     -41.501 -55.609  16.159  1.00  0.00     0.002 A 
HETATM   11  C   UNL     1     -42.757 -55.365  15.603  1.00  0.00     0.002 A 
HETATM   12  C   UNL     1     -42.943 -54.376  14.628  1.00  0.00     0.032 A 
ENDBRANCH   1   2
BRANCH   1  13
HETATM   13  C   UNL     1     -43.225 -50.700  13.255  1.00  0.00     0.175 C 
BRANCH  13  14
HETATM   14  O   UNL     1     -43.642 -49.714  12.306  1.00  0.00    -0.389 OA
HETATM   15  H   UNL     1     -44.003 -50.175  11.529  1.00  0.00     0.210 HD
ENDBRANCH  13  14
BRANCH  13  16
HETATM   16  C   UNL     1     -44.414 -50.980  14.144  1.00  0.00     0.049 A 
HETATM   17  C   UNL     1     -44.369 -50.701  15.512  1.00  0.00     0.128 A 
HETATM   18  F   UNL     1     -43.222 -50.295  16.074  1.00  0.00    -0.205 F 
HETATM   19  C   UNL     1     -45.500 -50.821  16.324  1.00  0.00     0.043 A 
HETATM   20  C   UNL     1     -46.711 -51.240  15.775  1.00  0.00     0.006 A 
HETATM   21  C   UNL     1     -46.770 -51.565  14.422  1.00  0.00     0.043 A 
HETATM   22  C   UNL     1     -45.630 -51.436  13.626  1.00  0.00     0.128 A 
HETATM   23  F   UNL     1     -45.722 -51.731  12.321  1.00  0.00    -0.205 F 
ENDBRANCH  13  16
ENDBRANCH   1  13
TORSDOF 4
ENDMDL
