MODEL 1
REMARK VINA RESULT:      -6.2      0.000      0.000
REMARK  5 active torsions:
REMARK  status: ('A' for Active; 'I' for Inactive)
REMARK    1  A    between atoms: N_7  and  C_8 
REMARK    2  A    between atoms: C_8  and  C_9 
REMARK    3  A    between atoms: C_9  and  N_10 
REMARK       I    between atoms: N_10  and  C_11 
REMARK    4  A    between atoms: C_11  and  C_13 
REMARK    5  A    between atoms: C_13  and  N_14 
ROOT
HETATM    1  N   UNL     1     -40.783 -51.318  11.407  1.00  0.00    -0.358 N 
HETATM    2  C   UNL     1     -41.278 -50.107  11.845  1.00  0.00     0.237 C 
HETATM    3  O   UNL     1     -42.314 -49.997  12.499  1.00  0.00    -0.272 OA
HETATM    4  H   UNL     1     -39.811 -51.327  11.102  1.00  0.00     0.162 HD
ENDROOT
BRANCH   1   5
HETATM    5  C   UNL     1     -41.377 -52.578  11.822  1.00  0.00     0.152 C 
BRANCH   5   6
HETATM    6  C   UNL     1     -40.698 -53.196  13.065  1.00  0.00     0.292 C 
BRANCH   6   7
HETATM    7  N   UNL     1     -41.595 -54.020  13.907  1.00  0.00     0.090 N 
HETATM    8  C   UNL     1     -42.981 -54.010  13.415  1.00  0.00     0.276 C 
HETATM    9  C   UNL     1     -43.911 -54.872  14.286  1.00  0.00     0.010 C 
HETATM   10  C   UNL     1     -43.839 -54.435  15.753  1.00  0.00     0.012 C 
HETATM   11  C   UNL     1     -45.346 -54.800  13.764  1.00  0.00     0.011 C 
HETATM   12  C   UNL     1     -42.391 -54.396  16.254  1.00  0.00     0.010 C 
HETATM   13  C   UNL     1     -41.812 -55.804  16.436  1.00  0.00     0.011 C 
HETATM   14  C   UNL     1     -41.530 -53.547  15.303  1.00  0.00     0.276 C 
ENDBRANCH   6   7
ENDBRANCH   5   6
ENDBRANCH   1   5
BRANCH   2  15
HETATM   15  C   UNL     1     -40.494 -48.896  11.402  1.00  0.00     0.251 C 
BRANCH  15  16
HETATM   16  N   UNL     1     -41.335 -47.942  10.708  1.00  0.00    -0.288 N 
HETATM   17  N   UNL     1     -42.379 -48.405   9.985  1.00  0.00    -0.303 N 
HETATM   18  C   UNL     1     -43.010 -47.299   9.576  1.00  0.00     0.024 A 
ATOM     19  HN  UNL     1     -42.628 -49.377   9.795  1.00  0.00     0.186 HD
HETATM   20  C   UNL     1     -44.262 -47.380   8.788  1.00  0.00     0.070 C 
HETATM   21  C   UNL     1     -42.336 -46.131   9.994  1.00  0.00     0.052 A 
HETATM   22  C   UNL     1     -41.243 -46.574  10.709  1.00  0.00     0.027 A 
HETATM   23  C   UNL     1     -40.165 -45.809  11.382  1.00  0.00     0.070 C 
ENDBRANCH  15  16
ENDBRANCH   2  15
TORSDOF 5
ENDMDL
MODEL 2
REMARK VINA RESULT:      -6.2      2.516      2.952
REMARK  5 active torsions:
REMARK  status: ('A' for Active; 'I' for Inactive)
REMARK    1  A    between atoms: N_7  and  C_8 
REMARK    2  A    between atoms: C_8  and  C_9 
REMARK    3  A    between atoms: C_9  and  N_10 
REMARK       I    between atoms: N_10  and  C_11 
REMARK    4  A    between atoms: C_11  and  C_13 
REMARK    5  A    between atoms: C_13  and  N_14 
ROOT
HETATM    1  N   UNL     1     -41.891 -49.494  12.602  1.00  0.00    -0.358 N 
HETATM    2  C   UNL     1     -41.079 -49.067  11.573  1.00  0.00     0.237 C 
HETATM    3  O   UNL     1     -40.372 -49.824  10.911  1.00  0.00    -0.272 OA
HETATM    4  H   UNL     1     -42.612 -48.844  12.911  1.00  0.00     0.162 HD
ENDROOT
BRANCH   1   5
HETATM    5  C   UNL     1     -42.086 -50.908  12.883  1.00  0.00     0.152 C 
BRANCH   5   6
HETATM    6  C   UNL     1     -42.562 -51.186  14.326  1.00  0.00     0.292 C 
BRANCH   6   7
HETATM    7  N   UNL     1     -43.963 -51.653  14.430  1.00  0.00     0.090 N 
HETATM    8  C   UNL     1     -44.672 -51.570  13.144  1.00  0.00     0.276 C 
HETATM    9  C   UNL     1     -46.126 -52.061  13.251  1.00  0.00     0.010 C 
HETATM   10  C   UNL     1     -46.876 -51.301  14.350  1.00  0.00     0.012 C 
HETATM   11  C   UNL     1     -46.835 -51.918  11.905  1.00  0.00     0.011 C 
HETATM   12  C   UNL     1     -46.115 -51.344  15.680  1.00  0.00     0.010 C 
HETATM   13  C   UNL     1     -46.170 -52.734  16.324  1.00  0.00     0.011 C 
HETATM   14  C   UNL     1     -44.665 -50.874  15.468  1.00  0.00     0.276 C 
ENDBRANCH   6   7
ENDBRANCH   5   6
ENDBRANCH   1   5
BRANCH   2  15
HETATM   15  C   UNL     1     -41.057 -47.574  11.352  1.00  0.00     0.251 C 
BRANCH  15  16
HETATM   16  N   UNL     1     -41.975 -47.178  10.303  1.00  0.00    -0.288 N 
HETATM   17  N   UNL     1     -42.314 -48.087   9.362  1.00  0.00    -0.303 N 
HETATM   18  C   UNL     1     -43.240 -47.465   8.625  1.00  0.00     0.024 A 
ATOM     19  HN  UNL     1     -41.947 -49.032   9.242  1.00  0.00     0.186 HD
HETATM   20  C   UNL     1     -43.919 -48.158   7.504  1.00  0.00     0.070 C 
HETATM   21  C   UNL     1     -43.450 -46.139   9.064  1.00  0.00     0.052 A 
HETATM   22  C   UNL     1     -42.605 -45.971  10.140  1.00  0.00     0.027 A 
HETATM   23  C   UNL     1     -42.376 -44.785  11.002  1.00  0.00     0.070 C 
ENDBRANCH  15  16
ENDBRANCH   2  15
TORSDOF 5
ENDMDL
MODEL 3
REMARK VINA RESULT:      -6.1      2.319      3.964
REMARK  5 active torsions:
REMARK  status: ('A' for Active; 'I' for Inactive)
REMARK    1  A    between atoms: N_7  and  C_8 
REMARK    2  A    between atoms: C_8  and  C_9 
REMARK    3  A    between atoms: C_9  and  N_10 
REMARK       I    between atoms: N_10  and  C_11 
REMARK    4  A    between atoms: C_11  and  C_13 
REMARK    5  A    between atoms: C_13  and  N_14 
ROOT
HETATM    1  N   UNL     1     -41.738 -53.815  13.495  1.00  0.00    -0.358 N 
HETATM    2  C   UNL     1     -41.309 -52.506  13.420  1.00  0.00     0.237 C 
HETATM    3  O   UNL     1     -41.483 -51.685  14.319  1.00  0.00    -0.272 OA
HETATM    4  H   UNL     1     -41.331 -54.465  12.824  1.00  0.00     0.162 HD
ENDROOT
BRANCH   1   5
HETATM    5  C   UNL     1     -42.300 -54.363  14.718  1.00  0.00     0.152 C 
BRANCH   5   6
HETATM    6  C   UNL     1     -43.833 -54.546  14.660  1.00  0.00     0.292 C 
BRANCH   6   7
HETATM    7  N   UNL     1     -44.595 -53.286  14.504  1.00  0.00     0.090 N 
HETATM    8  C   UNL     1     -44.561 -52.463  15.723  1.00  0.00     0.276 C 
HETATM    9  C   UNL     1     -45.348 -51.152  15.558  1.00  0.00     0.010 C 
HETATM   10  C   UNL     1     -46.788 -51.434  15.117  1.00  0.00     0.012 C 
HETATM   11  C   UNL     1     -45.321 -50.349  16.858  1.00  0.00     0.011 C 
HETATM   12  C   UNL     1     -46.827 -52.333  13.876  1.00  0.00     0.010 C 
HETATM   13  C   UNL     1     -46.375 -51.586  12.616  1.00  0.00     0.011 C 
HETATM   14  C   UNL     1     -45.985 -53.598  14.119  1.00  0.00     0.276 C 
ENDBRANCH   6   7
ENDBRANCH   5   6
ENDBRANCH   1   5
BRANCH   2  15
HETATM   15  C   UNL     1     -40.664 -52.117  12.111  1.00  0.00     0.251 C 
BRANCH  15  16
HETATM   16  N   UNL     1     -40.860 -50.712  11.819  1.00  0.00    -0.288 N 
HETATM   17  N   UNL     1     -42.123 -50.239  11.728  1.00  0.00    -0.303 N 
HETATM   18  C   UNL     1     -41.968 -48.920  11.570  1.00  0.00     0.024 A 
ATOM     19  HN  UNL     1     -42.995 -50.768  11.770  1.00  0.00     0.186 HD
HETATM   20  C   UNL     1     -43.140 -48.016  11.487  1.00  0.00     0.070 C 
HETATM   21  C   UNL     1     -40.604 -48.561  11.506  1.00  0.00     0.052 A 
HETATM   22  C   UNL     1     -39.906 -49.741  11.650  1.00  0.00     0.027 A 
HETATM   23  C   UNL     1     -38.444 -49.995  11.653  1.00  0.00     0.070 C 
ENDBRANCH  15  16
ENDBRANCH   2  15
TORSDOF 5
ENDMDL
MODEL 4
REMARK VINA RESULT:      -6.0      3.255      7.050
REMARK  5 active torsions:
REMARK  status: ('A' for Active; 'I' for Inactive)
REMARK    1  A    between atoms: N_7  and  C_8 
REMARK    2  A    between atoms: C_8  and  C_9 
REMARK    3  A    between atoms: C_9  and  N_10 
REMARK       I    between atoms: N_10  and  C_11 
REMARK    4  A    between atoms: C_11  and  C_13 
REMARK    5  A    between atoms: C_13  and  N_14 
ROOT
HETATM    1  N   UNL     1     -42.991 -53.410  12.537  1.00  0.00    -0.358 N 
HETATM    2  C   UNL     1     -43.613 -54.101  13.556  1.00  0.00     0.237 C 
HETATM    3  O   UNL     1     -43.006 -54.607  14.498  1.00  0.00    -0.272 OA
HETATM    4  H   UNL     1     -43.589 -52.825  11.955  1.00  0.00     0.162 HD
ENDROOT
BRANCH   1   5
HETATM    5  C   UNL     1     -41.572 -53.097  12.585  1.00  0.00     0.152 C 
BRANCH   5   6
HETATM    6  C   UNL     1     -41.221 -51.743  11.927  1.00  0.00     0.292 C 
BRANCH   6   7
HETATM    7  N   UNL     1     -39.860 -51.248  12.234  1.00  0.00     0.090 N 
HETATM    8  C   UNL     1     -39.571 -51.275  13.675  1.00  0.00     0.276 C 
HETATM    9  C   UNL     1     -38.154 -50.767  13.992  1.00  0.00     0.010 C 
HETATM   10  C   UNL     1     -37.936 -49.367  13.407  1.00  0.00     0.012 C 
HETATM   11  C   UNL     1     -37.912 -50.773  15.501  1.00  0.00     0.011 C 
HETATM   12  C   UNL     1     -38.284 -49.324  11.915  1.00  0.00     0.010 C 
HETATM   13  C   UNL     1     -37.242 -50.061  11.064  1.00  0.00     0.011 C 
HETATM   14  C   UNL     1     -39.699 -49.885  11.691  1.00  0.00     0.276 C 
ENDBRANCH   6   7
ENDBRANCH   5   6
ENDBRANCH   1   5
BRANCH   2  15
HETATM   15  C   UNL     1     -45.106 -54.264  13.402  1.00  0.00     0.251 C 
BRANCH  15  16
HETATM   16  N   UNL     1     -45.830 -53.277  14.176  1.00  0.00    -0.288 N 
HETATM   17  N   UNL     1     -45.882 -53.418  15.519  1.00  0.00    -0.303 N 
HETATM   18  C   UNL     1     -46.507 -52.313  15.940  1.00  0.00     0.024 A 
ATOM     19  HN  UNL     1     -45.525 -54.190  16.083  1.00  0.00     0.186 HD
HETATM   20  C   UNL     1     -46.714 -52.054  17.385  1.00  0.00     0.070 C 
HETATM   21  C   UNL     1     -46.903 -51.495  14.859  1.00  0.00     0.052 A 
HETATM   22  C   UNL     1     -46.470 -52.150  13.726  1.00  0.00     0.027 A 
HETATM   23  C   UNL     1     -46.607 -51.782  12.295  1.00  0.00     0.070 C 
ENDBRANCH  15  16
ENDBRANCH   2  15
TORSDOF 5
ENDMDL
MODEL 5
REMARK VINA RESULT:      -5.9      1.760      2.787
REMARK  5 active torsions:
REMARK  status: ('A' for Active; 'I' for Inactive)
REMARK    1  A    between atoms: N_7  and  C_8 
REMARK    2  A    between atoms: C_8  and  C_9 
REMARK    3  A    between atoms: C_9  and  N_10 
REMARK       I    between atoms: N_10  and  C_11 
REMARK    4  A    between atoms: C_11  and  C_13 
REMARK    5  A    between atoms: C_13  and  N_14 
ROOT
HETATM    1  N   UNL     1     -42.257 -50.517  12.144  1.00  0.00    -0.358 N 
HETATM    2  C   UNL     1     -41.789 -49.313  11.661  1.00  0.00     0.237 C 
HETATM    3  O   UNL     1     -40.731 -49.197  11.044  1.00  0.00    -0.272 OA
HETATM    4  H   UNL     1     -43.240 -50.547  12.410  1.00  0.00     0.162 HD
ENDROOT
BRANCH   1   5
HETATM    5  C   UNL     1     -41.601 -51.774  11.822  1.00  0.00     0.152 C 
BRANCH   5   6
HETATM    6  C   UNL     1     -42.059 -52.949  12.714  1.00  0.00     0.292 C 
BRANCH   6   7
HETATM    7  N   UNL     1     -43.378 -52.752  13.359  1.00  0.00     0.090 N 
HETATM    8  C   UNL     1     -43.448 -53.388  14.683  1.00  0.00     0.276 C 
HETATM    9  C   UNL     1     -44.816 -53.176  15.355  1.00  0.00     0.010 C 
HETATM   10  C   UNL     1     -45.949 -53.661  14.445  1.00  0.00     0.012 C 
HETATM   11  C   UNL     1     -44.858 -53.887  16.707  1.00  0.00     0.011 C 
HETATM   12  C   UNL     1     -45.849 -53.038  13.048  1.00  0.00     0.010 C 
HETATM   13  C   UNL     1     -46.223 -51.550  13.058  1.00  0.00     0.011 C 
HETATM   14  C   UNL     1     -44.440 -53.265  12.473  1.00  0.00     0.276 C 
ENDBRANCH   6   7
ENDBRANCH   5   6
ENDBRANCH   1   5
BRANCH   2  15
HETATM   15  C   UNL     1     -42.634 -48.111  12.007  1.00  0.00     0.251 C 
BRANCH  15  16
HETATM   16  N   UNL     1     -43.320 -47.591  10.842  1.00  0.00    -0.288 N 
HETATM   17  N   UNL     1     -44.496 -48.150  10.479  1.00  0.00    -0.303 N 
HETATM   18  C   UNL     1     -44.920 -47.389   9.464  1.00  0.00     0.024 A 
ATOM     19  HN  UNL     1     -44.955 -48.965  10.887  1.00  0.00     0.186 HD
HETATM   20  C   UNL     1     -46.227 -47.642   8.813  1.00  0.00     0.070 C 
HETATM   21  C   UNL     1     -43.987 -46.379   9.145  1.00  0.00     0.052 A 
HETATM   22  C   UNL     1     -42.950 -46.542  10.038  1.00  0.00     0.027 A 
HETATM   23  C   UNL     1     -41.682 -45.785  10.184  1.00  0.00     0.070 C 
ENDBRANCH  15  16
ENDBRANCH   2  15
TORSDOF 5
ENDMDL
MODEL 6
REMARK VINA RESULT:      -5.9      2.294      3.584
REMARK  5 active torsions:
REMARK  status: ('A' for Active; 'I' for Inactive)
REMARK    1  A    between atoms: N_7  and  C_8 
REMARK    2  A    between atoms: C_8  and  C_9 
REMARK    3  A    between atoms: C_9  and  N_10 
REMARK       I    between atoms: N_10  and  C_11 
REMARK    4  A    between atoms: C_11  and  C_13 
REMARK    5  A    between atoms: C_13  and  N_14 
ROOT
HETATM    1  N   UNL     1     -41.816 -50.626  11.839  1.00  0.00    -0.358 N 
HETATM    2  C   UNL     1     -40.962 -49.592  11.519  1.00  0.00     0.237 C 
HETATM    3  O   UNL     1     -40.037 -49.229  12.244  1.00  0.00    -0.272 OA
HETATM    4  H   UNL     1     -42.373 -51.007  11.075  1.00  0.00     0.162 HD
ENDROOT
BRANCH   1   5
HETATM    5  C   UNL     1     -41.588 -51.471  13.001  1.00  0.00     0.152 C 
BRANCH   5   6
HETATM    6  C   UNL     1     -42.643 -52.588  13.162  1.00  0.00     0.292 C 
BRANCH   6   7
HETATM    7  N   UNL     1     -44.026 -52.099  13.364  1.00  0.00     0.090 N 
HETATM    8  C   UNL     1     -44.279 -51.710  14.760  1.00  0.00     0.276 C 
HETATM    9  C   UNL     1     -45.713 -51.197  14.968  1.00  0.00     0.010 C 
HETATM   10  C   UNL     1     -46.736 -52.232  14.486  1.00  0.00     0.012 C 
HETATM   11  C   UNL     1     -45.944 -50.843  16.437  1.00  0.00     0.011 C 
HETATM   12  C   UNL     1     -46.445 -52.677  13.048  1.00  0.00     0.010 C 
HETATM   13  C   UNL     1     -46.779 -51.578  12.032  1.00  0.00     0.011 C 
HETATM   14  C   UNL     1     -44.982 -53.135  12.927  1.00  0.00     0.276 C 
ENDBRANCH   6   7
ENDBRANCH   5   6
ENDBRANCH   1   5
BRANCH   2  15
HETATM   15  C   UNL     1     -41.282 -48.871  10.231  1.00  0.00     0.251 C 
BRANCH  15  16
HETATM   16  N   UNL     1     -41.480 -47.453  10.451  1.00  0.00    -0.288 N 
HETATM   17  N   UNL     1     -40.394 -46.660  10.583  1.00  0.00    -0.303 N 
HETATM   18  C   UNL     1     -40.898 -45.424  10.655  1.00  0.00     0.024 A 
ATOM     19  HN  UNL     1     -39.413 -46.941  10.618  1.00  0.00     0.186 HD
HETATM   20  C   UNL     1     -40.012 -44.240  10.748  1.00  0.00     0.070 C 
HETATM   21  C   UNL     1     -42.310 -45.435  10.625  1.00  0.00     0.052 A 
HETATM   22  C   UNL     1     -42.664 -46.763  10.512  1.00  0.00     0.027 A 
HETATM   23  C   UNL     1     -44.005 -47.395  10.446  1.00  0.00     0.070 C 
ENDBRANCH  15  16
ENDBRANCH   2  15
TORSDOF 5
ENDMDL
MODEL 7
REMARK VINA RESULT:      -5.8      2.478      3.222
REMARK  5 active torsions:
REMARK  status: ('A' for Active; 'I' for Inactive)
REMARK    1  A    between atoms: N_7  and  C_8 
REMARK    2  A    between atoms: C_8  and  C_9 
REMARK    3  A    between atoms: C_9  and  N_10 
REMARK       I    between atoms: N_10  and  C_11 
REMARK    4  A    between atoms: C_11  and  C_13 
REMARK    5  A    between atoms: C_13  and  N_14 
ROOT
HETATM    1  N   UNL     1     -40.876 -51.696  11.918  1.00  0.00    -0.358 N 
HETATM    2  C   UNL     1     -40.914 -50.329  11.740  1.00  0.00     0.237 C 
HETATM    3  O   UNL     1     -41.958 -49.680  11.709  1.00  0.00    -0.272 OA
HETATM    4  H   UNL     1     -39.976 -52.095  12.179  1.00  0.00     0.162 HD
ENDROOT
BRANCH   1   5
HETATM    5  C   UNL     1     -42.074 -52.456  12.237  1.00  0.00     0.152 C 
BRANCH   5   6
HETATM    6  C   UNL     1     -42.497 -52.340  13.718  1.00  0.00     0.292 C 
BRANCH   6   7
HETATM    7  N   UNL     1     -43.957 -52.443  13.948  1.00  0.00     0.090 N 
HETATM    8  C   UNL     1     -44.734 -52.062  12.759  1.00  0.00     0.276 C 
HETATM    9  C   UNL     1     -46.249 -52.175  12.997  1.00  0.00     0.010 C 
HETATM   10  C   UNL     1     -46.669 -51.355  14.221  1.00  0.00     0.012 C 
HETATM   11  C   UNL     1     -47.016 -51.732  11.752  1.00  0.00     0.011 C 
HETATM   12  C   UNL     1     -45.827 -51.714  15.450  1.00  0.00     0.010 C 
HETATM   13  C   UNL     1     -46.186 -53.099  16.004  1.00  0.00     0.011 C 
HETATM   14  C   UNL     1     -44.331 -51.611  15.108  1.00  0.00     0.276 C 
ENDBRANCH   6   7
ENDBRANCH   5   6
ENDBRANCH   1   5
BRANCH   2  15
HETATM   15  C   UNL     1     -39.573 -49.675  11.509  1.00  0.00     0.251 C 
BRANCH  15  16
HETATM   16  N   UNL     1     -39.626 -48.250  11.761  1.00  0.00    -0.288 N 
HETATM   17  N   UNL     1     -40.006 -47.429  10.758  1.00  0.00    -0.303 N 
HETATM   18  C   UNL     1     -40.064 -46.220  11.328  1.00  0.00     0.024 A 
ATOM     19  HN  UNL     1     -40.204 -47.674   9.787  1.00  0.00     0.186 HD
HETATM   20  C   UNL     1     -40.507 -45.032  10.561  1.00  0.00     0.070 C 
HETATM   21  C   UNL     1     -39.667 -46.265  12.682  1.00  0.00     0.052 A 
HETATM   22  C   UNL     1     -39.370 -47.587  12.934  1.00  0.00     0.027 A 
HETATM   23  C   UNL     1     -38.889 -48.241  14.176  1.00  0.00     0.070 C 
ENDBRANCH  15  16
ENDBRANCH   2  15
TORSDOF 5
ENDMDL
MODEL 8
REMARK VINA RESULT:      -5.8      2.678      4.720
REMARK  5 active torsions:
REMARK  status: ('A' for Active; 'I' for Inactive)
REMARK    1  A    between atoms: N_7  and  C_8 
REMARK    2  A    between atoms: C_8  and  C_9 
REMARK    3  A    between atoms: C_9  and  N_10 
REMARK       I    between atoms: N_10  and  C_11 
REMARK    4  A    between atoms: C_11  and  C_13 
REMARK    5  A    between atoms: C_13  and  N_14 
ROOT
HETATM    1  N   UNL     1     -42.627 -53.668  13.576  1.00  0.00    -0.358 N 
HETATM    2  C   UNL     1     -41.433 -53.421  12.931  1.00  0.00     0.237 C 
HETATM    3  O   UNL     1     -40.355 -53.880  13.304  1.00  0.00    -0.272 OA
HETATM    4  H   UNL     1     -43.476 -53.458  13.053  1.00  0.00     0.162 HD
ENDROOT
BRANCH   1   5
HETATM    5  C   UNL     1     -42.719 -54.623  14.668  1.00  0.00     0.152 C 
BRANCH   5   6
HETATM    6  C   UNL     1     -43.935 -54.383  15.591  1.00  0.00     0.292 C 
BRANCH   6   7
HETATM    7  N   UNL     1     -44.698 -53.150  15.290  1.00  0.00     0.090 N 
HETATM    8  C   UNL     1     -44.766 -52.244  16.446  1.00  0.00     0.276 C 
HETATM    9  C   UNL     1     -45.553 -50.960  16.131  1.00  0.00     0.010 C 
HETATM   10  C   UNL     1     -46.953 -51.297  15.605  1.00  0.00     0.012 C 
HETATM   11  C   UNL     1     -45.634 -50.069  17.370  1.00  0.00     0.011 C 
HETATM   12  C   UNL     1     -46.887 -52.280  14.431  1.00  0.00     0.010 C 
HETATM   13  C   UNL     1     -46.350 -51.615  13.158  1.00  0.00     0.011 C 
HETATM   14  C   UNL     1     -46.051 -53.510  14.824  1.00  0.00     0.276 C 
ENDBRANCH   6   7
ENDBRANCH   5   6
ENDBRANCH   1   5
BRANCH   2  15
HETATM   15  C   UNL     1     -41.522 -52.476  11.757  1.00  0.00     0.251 C 
BRANCH  15  16
HETATM   16  N   UNL     1     -40.830 -51.231  12.024  1.00  0.00    -0.288 N 
HETATM   17  N   UNL     1     -39.492 -51.182  11.837  1.00  0.00    -0.303 N 
HETATM   18  C   UNL     1     -39.179 -49.899  12.050  1.00  0.00     0.024 A 
ATOM     19  HN  UNL     1     -38.865 -51.948  11.591  1.00  0.00     0.186 HD
HETATM   20  C   UNL     1     -37.789 -49.412  11.884  1.00  0.00     0.070 C 
HETATM   21  C   UNL     1     -40.311 -49.143  12.426  1.00  0.00     0.052 A 
HETATM   22  C   UNL     1     -41.365 -50.032  12.421  1.00  0.00     0.027 A 
HETATM   23  C   UNL     1     -42.798 -49.822  12.742  1.00  0.00     0.070 C 
ENDBRANCH  15  16
ENDBRANCH   2  15
TORSDOF 5
ENDMDL
MODEL 9
REMARK VINA RESULT:      -5.8      1.246      8.096
REMARK  5 active torsions:
REMARK  status: ('A' for Active; 'I' for Inactive)
REMARK    1  A    between atoms: N_7  and  C_8 
REMARK    2  A    between atoms: C_8  and  C_9 
REMARK    3  A    between atoms: C_9  and  N_10 
REMARK       I    between atoms: N_10  and  C_11 
REMARK    4  A    between atoms: C_11  and  C_13 
REMARK    5  A    between atoms: C_13  and  N_14 
ROOT
HETATM    1  N   UNL     1     -41.818 -51.291  11.886  1.00  0.00    -0.358 N 
HETATM    2  C   UNL     1     -40.879 -52.074  12.524  1.00  0.00     0.237 C 
HETATM    3  O   UNL     1     -39.901 -51.614  13.111  1.00  0.00    -0.272 OA
HETATM    4  H   UNL     1     -42.703 -51.741  11.657  1.00  0.00     0.162 HD
ENDROOT
BRANCH   1   5
HETATM    5  C   UNL     1     -41.800 -49.841  11.992  1.00  0.00     0.152 C 
BRANCH   5   6
HETATM    6  C   UNL     1     -40.826 -49.167  11.001  1.00  0.00     0.292 C 
BRANCH   6   7
HETATM    7  N   UNL     1     -41.288 -47.860  10.481  1.00  0.00     0.090 N 
HETATM    8  C   UNL     1     -40.495 -46.740  11.010  1.00  0.00     0.276 C 
HETATM    9  C   UNL     1     -40.972 -45.383  10.465  1.00  0.00     0.010 C 
HETATM   10  C   UNL     1     -42.467 -45.183  10.738  1.00  0.00     0.012 C 
HETATM   11  C   UNL     1     -40.149 -44.248  11.073  1.00  0.00     0.011 C 
HETATM   12  C   UNL     1     -43.291 -46.372  10.231  1.00  0.00     0.010 C 
HETATM   13  C   UNL     1     -43.369 -46.402   8.700  1.00  0.00     0.011 C 
HETATM   14  C   UNL     1     -42.720 -47.684  10.795  1.00  0.00     0.276 C 
ENDBRANCH   6   7
ENDBRANCH   5   6
ENDBRANCH   1   5
BRANCH   2  15
HETATM   15  C   UNL     1     -41.090 -53.563  12.394  1.00  0.00     0.251 C 
BRANCH  15  16
HETATM   16  N   UNL     1     -42.110 -54.037  13.307  1.00  0.00    -0.288 N 
HETATM   17  N   UNL     1     -43.379 -54.152  12.858  1.00  0.00    -0.303 N 
HETATM   18  C   UNL     1     -44.039 -54.711  13.879  1.00  0.00     0.024 A 
ATOM     19  HN  UNL     1     -43.749 -53.877  11.948  1.00  0.00     0.186 HD
HETATM   20  C   UNL     1     -45.474 -55.061  13.763  1.00  0.00     0.070 C 
HETATM   21  C   UNL     1     -43.200 -54.900  14.999  1.00  0.00     0.052 A 
HETATM   22  C   UNL     1     -41.960 -54.438  14.611  1.00  0.00     0.027 A 
HETATM   23  C   UNL     1     -40.684 -54.369  15.365  1.00  0.00     0.070 C 
ENDBRANCH  15  16
ENDBRANCH   2  15
TORSDOF 5
ENDMDL
