MODEL 1
REMARK VINA RESULT:      -5.9      0.000      0.000
REMARK  7 active torsions:
REMARK  status: ('A' for Active; 'I' for Inactive)
REMARK    1  A    between atoms: C_2  and  N_3 
REMARK    2  A    between atoms: C_2  and  C_12 
REMARK    3  A    between atoms: N_3  and  C_4 
REMARK    4  A    between atoms: C_4  and  C_5 
REMARK    5  A    between atoms: C_5  and  N_6 
REMARK       I    between atoms: C_12  and  N_14 
REMARK    6  A    between atoms: N_14  and  C_15 
REMARK    7  A    between atoms: C_15  and  C_16 
ROOT
HETATM    1  C   UNL     1     -37.934 -49.880  11.478  1.00  0.00     0.053 C 
HETATM    2  C   UNL     1     -39.392 -50.107  11.885  1.00  0.00     0.307 C 
ENDROOT
BRANCH   2   3
HETATM    3  N   UNL     1     -40.372 -49.807  10.805  1.00  0.00     0.098 N 
HETATM    4  H   UNL     1     -41.174 -50.427  10.937  1.00  0.00     0.317 HD
BRANCH   3   5
HETATM    5  C   UNL     1     -40.857 -48.413  10.845  1.00  0.00     0.292 C 
BRANCH   5   6
HETATM    6  C   UNL     1     -42.336 -48.330  11.230  1.00  0.00     0.178 C 
BRANCH   6   7
HETATM    7  N   UNL     1     -43.140 -47.921  10.092  1.00  0.00    -0.302 N 
HETATM    8  C   UNL     1     -44.441 -47.506  10.114  1.00  0.00     0.111 A 
HETATM    9  C   UNL     1     -44.787 -47.271   8.804  1.00  0.00     0.037 A 
HETATM   10  C   UNL     1     -43.626 -47.574   8.069  1.00  0.00     0.108 A 
HETATM   11  N   UNL     1     -42.619 -47.971   8.851  1.00  0.00    -0.310 N 
ATOM     12  HN  UNL     1     -41.677 -48.248   8.574  1.00  0.00     0.186 HD
ENDBRANCH   6   7
ENDBRANCH   5   6
ENDBRANCH   3   5
ENDBRANCH   2   3
BRANCH   2  13
HETATM   13  C   UNL     1     -39.595 -51.522  12.467  1.00  0.00     0.250 C 
HETATM   14  O   UNL     1     -38.851 -52.014  13.311  1.00  0.00    -0.271 OA
HETATM   15  N   UNL     1     -40.708 -52.175  11.983  1.00  0.00    -0.357 N 
HETATM   16  H   UNL     1     -41.218 -51.757  11.212  1.00  0.00     0.162 HD
BRANCH  15  17
HETATM   17  C   UNL     1     -41.117 -53.484  12.464  1.00  0.00     0.154 C 
BRANCH  17  18
HETATM   18  C   UNL     1     -42.400 -53.449  13.292  1.00  0.00     0.139 C 
HETATM   19  C   UNL     1     -42.447 -54.402  14.477  1.00  0.00     0.035 C 
HETATM   20  C   UNL     1     -43.888 -54.867  14.533  1.00  0.00     0.029 C 
HETATM   21  C   UNL     1     -44.576 -54.154  13.388  1.00  0.00     0.168 C 
HETATM   22  O   UNL     1     -43.537 -53.790  12.476  1.00  0.00    -0.384 OA
ENDBRANCH  17  18
ENDBRANCH  15  17
ENDBRANCH   2  13
TORSDOF 7
ENDMDL
MODEL 2
REMARK VINA RESULT:      -5.8      1.795      2.571
REMARK  7 active torsions:
REMARK  status: ('A' for Active; 'I' for Inactive)
REMARK    1  A    between atoms: C_2  and  N_3 
REMARK    2  A    between atoms: C_2  and  C_12 
REMARK    3  A    between atoms: N_3  and  C_4 
REMARK    4  A    between atoms: C_4  and  C_5 
REMARK    5  A    between atoms: C_5  and  N_6 
REMARK       I    between atoms: C_12  and  N_14 
REMARK    6  A    between atoms: N_14  and  C_15 
REMARK    7  A    between atoms: C_15  and  C_16 
ROOT
HETATM    1  C   UNL     1     -39.537 -51.791  13.180  1.00  0.00     0.053 C 
HETATM    2  C   UNL     1     -40.944 -51.551  12.628  1.00  0.00     0.307 C 
ENDROOT
BRANCH   2   3
HETATM    3  N   UNL     1     -40.963 -51.067  11.221  1.00  0.00     0.098 N 
HETATM    4  H   UNL     1     -41.942 -50.991  10.935  1.00  0.00     0.317 HD
BRANCH   3   5
HETATM    5  C   UNL     1     -40.335 -49.740  11.064  1.00  0.00     0.292 C 
BRANCH   5   6
HETATM    6  C   UNL     1     -41.152 -48.633  11.735  1.00  0.00     0.178 C 
BRANCH   6   7
HETATM    7  N   UNL     1     -42.192 -48.152  10.845  1.00  0.00    -0.302 N 
HETATM    8  C   UNL     1     -43.438 -47.718  11.198  1.00  0.00     0.111 A 
HETATM    9  C   UNL     1     -44.080 -47.407  10.023  1.00  0.00     0.037 A 
HETATM   10  C   UNL     1     -43.137 -47.688   9.017  1.00  0.00     0.108 A 
HETATM   11  N   UNL     1     -41.984 -48.143   9.513  1.00  0.00    -0.310 N 
ATOM     12  HN  UNL     1     -41.144 -48.419   9.005  1.00  0.00     0.186 HD
ENDBRANCH   6   7
ENDBRANCH   5   6
ENDBRANCH   3   5
ENDBRANCH   2   3
BRANCH   2  13
HETATM   13  C   UNL     1     -41.837 -52.796  12.819  1.00  0.00     0.250 C 
HETATM   14  O   UNL     1     -41.493 -53.775  13.475  1.00  0.00    -0.271 OA
HETATM   15  N   UNL     1     -43.073 -52.699  12.216  1.00  0.00    -0.357 N 
HETATM   16  H   UNL     1     -43.252 -51.912  11.601  1.00  0.00     0.162 HD
BRANCH  15  17
HETATM   17  C   UNL     1     -44.088 -53.731  12.344  1.00  0.00     0.154 C 
BRANCH  17  18
HETATM   18  C   UNL     1     -45.263 -53.315  13.227  1.00  0.00     0.139 C 
HETATM   19  C   UNL     1     -46.224 -52.307  12.612  1.00  0.00     0.035 C 
HETATM   20  C   UNL     1     -46.641 -51.425  13.772  1.00  0.00     0.029 C 
HETATM   21  C   UNL     1     -45.902 -51.978  14.972  1.00  0.00     0.168 C 
HETATM   22  O   UNL     1     -44.792 -52.707  14.443  1.00  0.00    -0.384 OA
ENDBRANCH  17  18
ENDBRANCH  15  17
ENDBRANCH   2  13
TORSDOF 7
ENDMDL
MODEL 3
REMARK VINA RESULT:      -5.7      2.348      3.165
REMARK  7 active torsions:
REMARK  status: ('A' for Active; 'I' for Inactive)
REMARK    1  A    between atoms: C_2  and  N_3 
REMARK    2  A    between atoms: C_2  and  C_12 
REMARK    3  A    between atoms: N_3  and  C_4 
REMARK    4  A    between atoms: C_4  and  C_5 
REMARK    5  A    between atoms: C_5  and  N_6 
REMARK       I    between atoms: C_12  and  N_14 
REMARK    6  A    between atoms: N_14  and  C_15 
REMARK    7  A    between atoms: C_15  and  C_16 
ROOT
HETATM    1  C   UNL     1     -39.653 -51.564  13.151  1.00  0.00     0.053 C 
HETATM    2  C   UNL     1     -41.015 -51.324  12.496  1.00  0.00     0.307 C 
ENDROOT
BRANCH   2   3
HETATM    3  N   UNL     1     -40.930 -50.756  11.122  1.00  0.00     0.098 N 
HETATM    4  H   UNL     1     -41.862 -50.814  10.707  1.00  0.00     0.317 HD
BRANCH   3   5
HETATM    5  C   UNL     1     -40.510 -49.341  11.114  1.00  0.00     0.292 C 
BRANCH   5   6
HETATM    6  C   UNL     1     -41.671 -48.398  10.792  1.00  0.00     0.178 C 
BRANCH   6   7
HETATM    7  N   UNL     1     -41.224 -47.016  10.791  1.00  0.00    -0.302 N 
HETATM    8  C   UNL     1     -41.996 -45.904  10.970  1.00  0.00     0.111 A 
HETATM    9  C   UNL     1     -41.150 -44.828  10.844  1.00  0.00     0.037 A 
HETATM   10  C   UNL     1     -39.888 -45.396  10.590  1.00  0.00     0.108 A 
HETATM   11  N   UNL     1     -39.928 -46.730  10.556  1.00  0.00    -0.310 N 
ATOM     12  HN  UNL     1     -39.160 -47.381  10.392  1.00  0.00     0.186 HD
ENDBRANCH   6   7
ENDBRANCH   5   6
ENDBRANCH   3   5
ENDBRANCH   2   3
BRANCH   2  13
HETATM   13  C   UNL     1     -41.887 -52.597  12.537  1.00  0.00     0.250 C 
HETATM   14  O   UNL     1     -41.434 -53.714  12.773  1.00  0.00    -0.271 OA
HETATM   15  N   UNL     1     -43.228 -52.369  12.318  1.00  0.00    -0.357 N 
HETATM   16  H   UNL     1     -43.520 -51.443  12.023  1.00  0.00     0.162 HD
BRANCH  15  17
HETATM   17  C   UNL     1     -44.224 -53.425  12.393  1.00  0.00     0.154 C 
BRANCH  17  18
HETATM   18  C   UNL     1     -45.582 -52.938  12.896  1.00  0.00     0.139 C 
HETATM   19  C   UNL     1     -45.651 -51.471  13.292  1.00  0.00     0.035 C 
HETATM   20  C   UNL     1     -46.585 -51.444  14.486  1.00  0.00     0.029 C 
HETATM   21  C   UNL     1     -46.994 -52.886  14.697  1.00  0.00     0.168 C 
HETATM   22  O   UNL     1     -45.981 -53.674  14.067  1.00  0.00    -0.384 OA
ENDBRANCH  17  18
ENDBRANCH  15  17
ENDBRANCH   2  13
TORSDOF 7
ENDMDL
MODEL 4
REMARK VINA RESULT:      -5.6      2.799      6.409
REMARK  7 active torsions:
REMARK  status: ('A' for Active; 'I' for Inactive)
REMARK    1  A    between atoms: C_2  and  N_3 
REMARK    2  A    between atoms: C_2  and  C_12 
REMARK    3  A    between atoms: N_3  and  C_4 
REMARK    4  A    between atoms: C_4  and  C_5 
REMARK    5  A    between atoms: C_5  and  N_6 
REMARK       I    between atoms: C_12  and  N_14 
REMARK    6  A    between atoms: N_14  and  C_15 
REMARK    7  A    between atoms: C_15  and  C_16 
ROOT
HETATM    1  C   UNL     1     -38.247 -49.192  13.075  1.00  0.00     0.053 C 
HETATM    2  C   UNL     1     -38.887 -48.859  11.725  1.00  0.00     0.307 C 
ENDROOT
BRANCH   2   3
HETATM    3  N   UNL     1     -39.504 -50.031  11.047  1.00  0.00     0.098 N 
HETATM    4  H   UNL     1     -38.802 -50.774  11.015  1.00  0.00     0.317 HD
BRANCH   3   5
HETATM    5  C   UNL     1     -40.688 -50.547  11.762  1.00  0.00     0.292 C 
BRANCH   5   6
HETATM    6  C   UNL     1     -40.430 -51.921  12.387  1.00  0.00     0.178 C 
BRANCH   6   7
HETATM    7  N   UNL     1     -41.682 -52.608  12.649  1.00  0.00    -0.302 N 
HETATM    8  C   UNL     1     -41.841 -53.809  13.280  1.00  0.00     0.111 A 
HETATM    9  C   UNL     1     -43.190 -54.075  13.255  1.00  0.00     0.037 A 
HETATM   10  C   UNL     1     -43.758 -52.974  12.588  1.00  0.00     0.108 A 
HETATM   11  N   UNL     1     -42.842 -52.077  12.216  1.00  0.00    -0.310 N 
ATOM     12  HN  UNL     1     -42.986 -51.197  11.720  1.00  0.00     0.186 HD
ENDBRANCH   6   7
ENDBRANCH   5   6
ENDBRANCH   3   5
ENDBRANCH   2   3
BRANCH   2  13
HETATM   13  C   UNL     1     -39.878 -47.682  11.853  1.00  0.00     0.250 C 
HETATM   14  O   UNL     1     -40.300 -47.274  12.931  1.00  0.00    -0.271 OA
HETATM   15  N   UNL     1     -40.224 -47.105  10.650  1.00  0.00    -0.357 N 
HETATM   16  H   UNL     1     -39.927 -47.557   9.792  1.00  0.00     0.162 HD
BRANCH  15  17
HETATM   17  C   UNL     1     -41.083 -45.936  10.563  1.00  0.00     0.154 C 
BRANCH  17  18
HETATM   18  C   UNL     1     -42.544 -46.282  10.279  1.00  0.00     0.139 C 
HETATM   19  C   UNL     1     -42.787 -47.637   9.630  1.00  0.00     0.035 C 
HETATM   20  C   UNL     1     -43.946 -47.401   8.683  1.00  0.00     0.029 C 
HETATM   21  C   UNL     1     -44.297 -45.938   8.848  1.00  0.00     0.168 C 
HETATM   22  O   UNL     1     -43.128 -45.316   9.386  1.00  0.00    -0.384 OA
ENDBRANCH  17  18
ENDBRANCH  15  17
ENDBRANCH   2  13
TORSDOF 7
ENDMDL
MODEL 5
REMARK VINA RESULT:      -5.5      2.180      2.843
REMARK  7 active torsions:
REMARK  status: ('A' for Active; 'I' for Inactive)
REMARK    1  A    between atoms: C_2  and  N_3 
REMARK    2  A    between atoms: C_2  and  C_12 
REMARK    3  A    between atoms: N_3  and  C_4 
REMARK    4  A    between atoms: C_4  and  C_5 
REMARK    5  A    between atoms: C_5  and  N_6 
REMARK       I    between atoms: C_12  and  N_14 
REMARK    6  A    between atoms: N_14  and  C_15 
REMARK    7  A    between atoms: C_15  and  C_16 
ROOT
HETATM    1  C   UNL     1     -43.038 -47.157  12.370  1.00  0.00     0.053 C 
HETATM    2  C   UNL     1     -43.031 -48.462  11.571  1.00  0.00     0.307 C 
ENDROOT
BRANCH   2   3
HETATM    3  N   UNL     1     -42.524 -48.312  10.179  1.00  0.00     0.098 N 
HETATM    4  H   UNL     1     -42.987 -49.021   9.605  1.00  0.00     0.317 HD
BRANCH   3   5
HETATM    5  C   UNL     1     -42.822 -46.987   9.601  1.00  0.00     0.292 C 
BRANCH   5   6
HETATM    6  C   UNL     1     -43.511 -47.094   8.239  1.00  0.00     0.178 C 
BRANCH   6   7
HETATM    7  N   UNL     1     -44.869 -47.588   8.387  1.00  0.00    -0.302 N 
HETATM    8  C   UNL     1     -45.797 -47.172   9.298  1.00  0.00     0.111 A 
HETATM    9  C   UNL     1     -46.910 -47.951   9.089  1.00  0.00     0.037 A 
HETATM   10  C   UNL     1     -46.553 -48.805   8.029  1.00  0.00     0.108 A 
HETATM   11  N   UNL     1     -45.309 -48.587   7.598  1.00  0.00    -0.310 N 
ATOM     12  HN  UNL     1     -44.808 -49.065   6.848  1.00  0.00     0.186 HD
ENDBRANCH   6   7
ENDBRANCH   5   6
ENDBRANCH   3   5
ENDBRANCH   2   3
BRANCH   2  13
HETATM   13  C   UNL     1     -42.288 -49.580  12.334  1.00  0.00     0.250 C 
HETATM   14  O   UNL     1     -41.152 -49.447  12.780  1.00  0.00    -0.271 OA
HETATM   15  N   UNL     1     -43.026 -50.731  12.503  1.00  0.00    -0.357 N 
HETATM   16  H   UNL     1     -43.914 -50.814  12.018  1.00  0.00     0.162 HD
BRANCH  15  17
HETATM   17  C   UNL     1     -42.535 -51.869  13.262  1.00  0.00     0.154 C 
BRANCH  17  18
HETATM   18  C   UNL     1     -43.649 -52.675  13.929  1.00  0.00     0.139 C 
HETATM   19  C   UNL     1     -43.269 -54.080  14.375  1.00  0.00     0.035 C 
HETATM   20  C   UNL     1     -44.513 -54.907  14.119  1.00  0.00     0.029 C 
HETATM   21  C   UNL     1     -45.522 -53.934  13.549  1.00  0.00     0.168 C 
HETATM   22  O   UNL     1     -44.760 -52.842  13.029  1.00  0.00    -0.384 OA
ENDBRANCH  17  18
ENDBRANCH  15  17
ENDBRANCH   2  13
TORSDOF 7
ENDMDL
MODEL 6
REMARK VINA RESULT:      -5.4      2.343      3.988
REMARK  7 active torsions:
REMARK  status: ('A' for Active; 'I' for Inactive)
REMARK    1  A    between atoms: C_2  and  N_3 
REMARK    2  A    between atoms: C_2  and  C_12 
REMARK    3  A    between atoms: N_3  and  C_4 
REMARK    4  A    between atoms: C_4  and  C_5 
REMARK    5  A    between atoms: C_5  and  N_6 
REMARK       I    between atoms: C_12  and  N_14 
REMARK    6  A    between atoms: N_14  and  C_15 
REMARK    7  A    between atoms: C_15  and  C_16 
ROOT
HETATM    1  C   UNL     1     -40.547 -54.236  13.407  1.00  0.00     0.053 C 
HETATM    2  C   UNL     1     -41.841 -53.418  13.442  1.00  0.00     0.307 C 
ENDROOT
BRANCH   2   3
HETATM    3  N   UNL     1     -42.200 -52.804  12.135  1.00  0.00     0.098 N 
HETATM    4  H   UNL     1     -43.068 -52.280  12.269  1.00  0.00     0.317 HD
BRANCH   3   5
HETATM    5  C   UNL     1     -41.170 -51.868  11.641  1.00  0.00     0.292 C 
BRANCH   5   6
HETATM    6  C   UNL     1     -41.110 -50.586  12.474  1.00  0.00     0.178 C 
BRANCH   6   7
HETATM    7  N   UNL     1     -41.705 -49.476  11.750  1.00  0.00    -0.302 N 
HETATM    8  C   UNL     1     -42.813 -48.764  12.108  1.00  0.00     0.111 A 
HETATM    9  C   UNL     1     -43.019 -47.850  11.102  1.00  0.00     0.037 A 
HETATM   10  C   UNL     1     -41.981 -48.091  10.183  1.00  0.00     0.108 A 
HETATM   11  N   UNL     1     -41.177 -49.083  10.575  1.00  0.00    -0.310 N 
ATOM     12  HN  UNL     1     -40.356 -49.455  10.096  1.00  0.00     0.186 HD
ENDBRANCH   6   7
ENDBRANCH   5   6
ENDBRANCH   3   5
ENDBRANCH   2   3
BRANCH   2  13
HETATM   13  C   UNL     1     -43.007 -54.244  14.027  1.00  0.00     0.250 C 
HETATM   14  O   UNL     1     -42.904 -54.923  15.045  1.00  0.00    -0.271 OA
HETATM   15  N   UNL     1     -44.188 -54.124  13.327  1.00  0.00    -0.357 N 
HETATM   16  H   UNL     1     -44.177 -53.635  12.438  1.00  0.00     0.162 HD
BRANCH  15  17
HETATM   17  C   UNL     1     -45.421 -54.759  13.760  1.00  0.00     0.154 C 
BRANCH  17  18
HETATM   18  C   UNL     1     -46.433 -53.775  14.344  1.00  0.00     0.139 C 
HETATM   19  C   UNL     1     -46.523 -52.428  13.642  1.00  0.00     0.035 C 
HETATM   20  C   UNL     1     -46.771 -51.434  14.759  1.00  0.00     0.029 C 
HETATM   21  C   UNL     1     -46.811 -52.266  16.023  1.00  0.00     0.168 C 
HETATM   22  O   UNL     1     -46.114 -53.476  15.715  1.00  0.00    -0.384 OA
ENDBRANCH  17  18
ENDBRANCH  15  17
ENDBRANCH   2  13
TORSDOF 7
ENDMDL
MODEL 7
REMARK VINA RESULT:      -5.2      3.432      6.264
REMARK  7 active torsions:
REMARK  status: ('A' for Active; 'I' for Inactive)
REMARK    1  A    between atoms: C_2  and  N_3 
REMARK    2  A    between atoms: C_2  and  C_12 
REMARK    3  A    between atoms: N_3  and  C_4 
REMARK    4  A    between atoms: C_4  and  C_5 
REMARK    5  A    between atoms: C_5  and  N_6 
REMARK       I    between atoms: C_12  and  N_14 
REMARK    6  A    between atoms: N_14  and  C_15 
REMARK    7  A    between atoms: C_15  and  C_16 
ROOT
HETATM    1  C   UNL     1     -40.712 -53.118  13.244  1.00  0.00     0.053 C 
HETATM    2  C   UNL     1     -41.212 -52.470  11.951  1.00  0.00     0.307 C 
ENDROOT
BRANCH   2   3
HETATM    3  N   UNL     1     -42.673 -52.637  11.720  1.00  0.00     0.098 N 
HETATM    4  H   UNL     1     -42.789 -53.221  10.889  1.00  0.00     0.317 HD
BRANCH   3   5
HETATM    5  C   UNL     1     -43.358 -53.300  12.847  1.00  0.00     0.292 C 
BRANCH   5   6
HETATM    6  C   UNL     1     -44.821 -53.616  12.527  1.00  0.00     0.178 C 
BRANCH   6   7
HETATM    7  N   UNL     1     -45.707 -52.932  13.452  1.00  0.00    -0.302 N 
HETATM    8  C   UNL     1     -45.770 -51.589  13.686  1.00  0.00     0.111 A 
HETATM    9  C   UNL     1     -46.719 -51.417  14.666  1.00  0.00     0.037 A 
HETATM   10  C   UNL     1     -47.170 -52.718  14.956  1.00  0.00     0.108 A 
HETATM   11  N   UNL     1     -46.556 -53.646  14.218  1.00  0.00    -0.310 N 
ATOM     12  HN  UNL     1     -46.695 -54.656  14.231  1.00  0.00     0.186 HD
ENDBRANCH   6   7
ENDBRANCH   5   6
ENDBRANCH   3   5
ENDBRANCH   2   3
BRANCH   2  13
HETATM   13  C   UNL     1     -40.783 -50.989  11.867  1.00  0.00     0.250 C 
HETATM   14  O   UNL     1     -41.575 -50.055  11.957  1.00  0.00    -0.271 OA
HETATM   15  N   UNL     1     -39.426 -50.804  11.717  1.00  0.00    -0.357 N 
HETATM   16  H   UNL     1     -38.842 -51.615  11.541  1.00  0.00     0.162 HD
BRANCH  15  17
HETATM   17  C   UNL     1     -38.815 -49.486  11.695  1.00  0.00     0.154 C 
BRANCH  17  18
HETATM   18  C   UNL     1     -37.750 -49.297  12.775  1.00  0.00     0.139 C 
HETATM   19  C   UNL     1     -37.498 -50.502  13.669  1.00  0.00     0.035 C 
HETATM   20  C   UNL     1     -37.222 -49.908  15.036  1.00  0.00     0.029 C 
HETATM   21  C   UNL     1     -37.328 -48.411  14.842  1.00  0.00     0.168 C 
HETATM   22  O   UNL     1     -38.115 -48.226  13.663  1.00  0.00    -0.384 OA
ENDBRANCH  17  18
ENDBRANCH  15  17
ENDBRANCH   2  13
TORSDOF 7
ENDMDL
MODEL 8
REMARK VINA RESULT:      -5.2      3.424      6.294
REMARK  7 active torsions:
REMARK  status: ('A' for Active; 'I' for Inactive)
REMARK    1  A    between atoms: C_2  and  N_3 
REMARK    2  A    between atoms: C_2  and  C_12 
REMARK    3  A    between atoms: N_3  and  C_4 
REMARK    4  A    between atoms: C_4  and  C_5 
REMARK    5  A    between atoms: C_5  and  N_6 
REMARK       I    between atoms: C_12  and  N_14 
REMARK    6  A    between atoms: N_14  and  C_15 
REMARK    7  A    between atoms: C_15  and  C_16 
ROOT
HETATM    1  C   UNL     1     -42.849 -53.206  16.345  1.00  0.00     0.053 C 
HETATM    2  C   UNL     1     -42.196 -53.627  15.027  1.00  0.00     0.307 C 
ENDROOT
BRANCH   2   3
HETATM    3  N   UNL     1     -42.820 -54.825  14.401  1.00  0.00     0.098 N 
HETATM    4  H   UNL     1     -42.336 -55.649  14.764  1.00  0.00     0.317 HD
BRANCH   3   5
HETATM    5  C   UNL     1     -44.255 -54.955  14.723  1.00  0.00     0.292 C 
BRANCH   5   6
HETATM    6  C   UNL     1     -45.144 -54.714  13.501  1.00  0.00     0.178 C 
BRANCH   6   7
HETATM    7  N   UNL     1     -45.663 -53.357  13.504  1.00  0.00    -0.302 N 
HETATM    8  C   UNL     1     -46.377 -52.755  14.500  1.00  0.00     0.111 A 
HETATM    9  C   UNL     1     -46.686 -51.497  14.039  1.00  0.00     0.037 A 
HETATM   10  C   UNL     1     -46.112 -51.437  12.756  1.00  0.00     0.108 A 
HETATM   11  N   UNL     1     -45.487 -52.570  12.425  1.00  0.00    -0.310 N 
ATOM     12  HN  UNL     1     -44.994 -52.788  11.560  1.00  0.00     0.186 HD
ENDBRANCH   6   7
ENDBRANCH   5   6
ENDBRANCH   3   5
ENDBRANCH   2   3
BRANCH   2  13
HETATM   13  C   UNL     1     -42.114 -52.442  14.040  1.00  0.00     0.250 C 
HETATM   14  O   UNL     1     -42.887 -51.488  14.072  1.00  0.00    -0.271 OA
HETATM   15  N   UNL     1     -41.075 -52.529  13.140  1.00  0.00    -0.357 N 
HETATM   16  H   UNL     1     -40.542 -53.392  13.097  1.00  0.00     0.162 HD
BRANCH  15  17
HETATM   17  C   UNL     1     -40.781 -51.478  12.181  1.00  0.00     0.154 C 
BRANCH  17  18
HETATM   18  C   UNL     1     -39.488 -50.725  12.489  1.00  0.00     0.139 C 
HETATM   19  C   UNL     1     -39.020 -49.753  11.416  1.00  0.00     0.035 C 
HETATM   20  C   UNL     1     -37.509 -49.861  11.439  1.00  0.00     0.029 C 
HETATM   21  C   UNL     1     -37.204 -50.879  12.518  1.00  0.00     0.168 C 
HETATM   22  O   UNL     1     -38.399 -51.648  12.676  1.00  0.00    -0.384 OA
ENDBRANCH  17  18
ENDBRANCH  15  17
ENDBRANCH   2  13
TORSDOF 7
ENDMDL
MODEL 9
REMARK VINA RESULT:      -5.0      2.378      2.896
REMARK  7 active torsions:
REMARK  status: ('A' for Active; 'I' for Inactive)
REMARK    1  A    between atoms: C_2  and  N_3 
REMARK    2  A    between atoms: C_2  and  C_12 
REMARK    3  A    between atoms: N_3  and  C_4 
REMARK    4  A    between atoms: C_4  and  C_5 
REMARK    5  A    between atoms: C_5  and  N_6 
REMARK       I    between atoms: C_12  and  N_14 
REMARK    6  A    between atoms: N_14  and  C_15 
REMARK    7  A    between atoms: C_15  and  C_16 
ROOT
HETATM    1  C   UNL     1     -41.030 -48.671  13.443  1.00  0.00     0.053 C 
HETATM    2  C   UNL     1     -42.385 -49.171  12.936  1.00  0.00     0.307 C 
ENDROOT
BRANCH   2   3
HETATM    3  N   UNL     1     -42.641 -48.862  11.502  1.00  0.00     0.098 N 
HETATM    4  H   UNL     1     -43.603 -48.521  11.428  1.00  0.00     0.317 HD
BRANCH   3   5
HETATM    5  C   UNL     1     -41.741 -47.819  10.972  1.00  0.00     0.292 C 
BRANCH   5   6
HETATM    6  C   UNL     1     -42.511 -46.693  10.278  1.00  0.00     0.178 C 
BRANCH   6   7
HETATM    7  N   UNL     1     -43.429 -47.232   9.290  1.00  0.00    -0.302 N 
HETATM    8  C   UNL     1     -44.793 -47.201   9.336  1.00  0.00     0.111 A 
HETATM    9  C   UNL     1     -45.227 -47.867   8.214  1.00  0.00     0.037 A 
HETATM   10  C   UNL     1     -44.047 -48.261   7.556  1.00  0.00     0.108 A 
HETATM   11  N   UNL     1     -42.948 -47.876   8.209  1.00  0.00    -0.310 N 
ATOM     12  HN  UNL     1     -41.974 -48.032   7.950  1.00  0.00     0.186 HD
ENDBRANCH   6   7
ENDBRANCH   5   6
ENDBRANCH   3   5
ENDBRANCH   2   3
BRANCH   2  13
HETATM   13  C   UNL     1     -42.576 -50.672  13.242  1.00  0.00     0.250 C 
HETATM   14  O   UNL     1     -41.803 -51.317  13.944  1.00  0.00    -0.271 OA
HETATM   15  N   UNL     1     -43.712 -51.220  12.687  1.00  0.00    -0.357 N 
HETATM   16  H   UNL     1     -44.249 -50.661  12.031  1.00  0.00     0.162 HD
BRANCH  15  17
HETATM   17  C   UNL     1     -44.112 -52.596  12.922  1.00  0.00     0.154 C 
BRANCH  17  18
HETATM   18  C   UNL     1     -45.373 -52.721  13.776  1.00  0.00     0.139 C 
HETATM   19  C   UNL     1     -46.378 -51.587  13.635  1.00  0.00     0.035 C 
HETATM   20  C   UNL     1     -46.944 -51.407  15.030  1.00  0.00     0.029 C 
HETATM   21  C   UNL     1     -46.236 -52.442  15.878  1.00  0.00     0.168 C 
HETATM   22  O   UNL     1     -45.034 -52.766  15.174  1.00  0.00    -0.384 OA
ENDBRANCH  17  18
ENDBRANCH  15  17
ENDBRANCH   2  13
TORSDOF 7
ENDMDL
