MODEL 1
REMARK VINA RESULT:      -6.0      0.000      0.000
REMARK  5 active torsions:
REMARK  status: ('A' for Active; 'I' for Inactive)
REMARK    1  A    between atoms: CA_2  and  C_3 
REMARK    2  A    between atoms: CA_2  and  N_5 
REMARK    3  A    between atoms: C_3  and  O_4 
REMARK       I    between atoms: N_5  and  C_8 
REMARK       I    between atoms: C_8  and  N_10 
REMARK    4  A    between atoms: N_10  and  C_11 
REMARK    5  A    between atoms: C_14  and  N_18 
ROOT
HETATM    1  C   UNK A   0     -40.422 -50.796  11.784  1.00  0.00     0.051 A 
HETATM    2  C   UNK A   0     -41.111 -51.996  11.800  1.00  0.00     0.035 A 
HETATM    3  C   UNK A   0     -41.015 -52.828  12.925  1.00  0.00     0.051 A 
HETATM    4  C   UNK A   0     -40.193 -52.489  14.006  1.00  0.00     0.103 A 
HETATM    5  N   UNK A   0     -39.455 -51.362  13.933  1.00  0.00    -0.350 N 
ATOM      6  HN  UNK A   0     -38.800 -51.130  14.679  1.00  0.00     0.166 HD
HETATM    7  C   UNK A   0     -39.587 -50.539  12.860  1.00  0.00     0.119 A 
ENDROOT
BRANCH   1   8
HETATM    8  N   UNK A   0     -40.641 -49.882  10.731  1.00  0.00    -0.308 N 
HETATM    9  C   UNK A   0     -41.655 -48.948  10.812  1.00  0.00     0.321 C 
ATOM     10  N   ALA A   1     -41.840 -48.296   9.617  1.00  0.00    -0.337 N 
HETATM   11  O   UNK A   0     -42.389 -48.775  11.778  1.00  0.00    -0.247 OA
ATOM     12  H   ALA A   1     -41.016 -48.093   9.064  1.00  0.00     0.164 HD
HETATM   13  H   UNK A   0     -40.491 -50.225   9.794  1.00  0.00     0.170 HD
BRANCH  10  14
ATOM     14  CA  ALA A   1     -42.998 -47.429   9.416  1.00  0.00     0.105 C 
ATOM     15  CB  ALA A   1     -42.666 -45.978   9.758  1.00  0.00     0.034 C 
BRANCH  14  16
ATOM     16  C   ALA A   1     -43.525 -47.576   7.979  1.00  0.00     0.189 C 
BRANCH  16  17
ATOM     17  O   ALA A   1     -42.758 -48.519   7.234  1.00  0.00    -0.399 OA
ATOM     18  H   ALA A   1     -42.666 -48.166   6.332  1.00  0.00     0.209 HD
ENDBRANCH  16  17
ENDBRANCH  14  16
ENDBRANCH  10  14
ENDBRANCH   1   8
BRANCH   4  19
HETATM   19  N   UNK A   0     -40.105 -53.252  15.153  1.00  0.00    -0.367 N 
HETATM   20  C   UNK A   0     -38.883 -53.860  15.668  1.00  0.00     0.124 C 
HETATM   21  C   UNK A   0     -39.039 -55.382  15.728  1.00  0.00     0.020 C 
HETATM   22  C   UNK A   0     -40.281 -55.784  16.516  1.00  0.00     0.003 C 
HETATM   23  C   UNK A   0     -41.520 -55.093  15.958  1.00  0.00     0.020 C 
HETATM   24  C   UNK A   0     -41.332 -53.576  15.891  1.00  0.00     0.124 C 
ENDBRANCH   4  19
TORSDOF 5
ENDMDL
MODEL 2
REMARK VINA RESULT:      -5.8      2.948      8.252
REMARK  5 active torsions:
REMARK  status: ('A' for Active; 'I' for Inactive)
REMARK    1  A    between atoms: CA_2  and  C_3 
REMARK    2  A    between atoms: CA_2  and  N_5 
REMARK    3  A    between atoms: C_3  and  O_4 
REMARK       I    between atoms: N_5  and  C_8 
REMARK       I    between atoms: C_8  and  N_10 
REMARK    4  A    between atoms: N_10  and  C_11 
REMARK    5  A    between atoms: C_14  and  N_18 
ROOT
HETATM    1  C   UNK A   0     -40.627 -48.960  10.937  1.00  0.00     0.051 A 
HETATM    2  C   UNK A   0     -39.676 -48.160  11.546  1.00  0.00     0.035 A 
HETATM    3  C   UNK A   0     -39.850 -46.768  11.550  1.00  0.00     0.051 A 
HETATM    4  C   UNK A   0     -40.940 -46.175  10.903  1.00  0.00     0.103 A 
HETATM    5  N   UNK A   0     -41.806 -46.963  10.234  1.00  0.00    -0.350 N 
ATOM      6  HN  UNK A   0     -42.570 -46.548   9.701  1.00  0.00     0.166 HD
HETATM    7  C   UNK A   0     -41.656 -48.313  10.272  1.00  0.00     0.119 A 
ENDROOT
BRANCH   1   8
HETATM    8  N   UNK A   0     -40.544 -50.363  11.070  1.00  0.00    -0.308 N 
HETATM    9  C   UNK A   0     -40.957 -50.983  12.232  1.00  0.00     0.321 C 
ATOM     10  N   ALA A   1     -40.608 -52.312  12.248  1.00  0.00    -0.337 N 
HETATM   11  O   UNK A   0     -41.474 -50.426  13.193  1.00  0.00    -0.247 OA
ATOM     12  H   ALA A   1     -40.648 -52.816  11.371  1.00  0.00     0.164 HD
HETATM   13  H   UNK A   0     -39.750 -50.813  10.639  1.00  0.00     0.170 HD
BRANCH  10  14
ATOM     14  CA  ALA A   1     -40.751 -53.102  13.469  1.00  0.00     0.105 C 
ATOM     15  CB  ALA A   1     -41.662 -54.307  13.241  1.00  0.00     0.034 C 
BRANCH  14  16
ATOM     16  C   ALA A   1     -39.367 -53.517  13.995  1.00  0.00     0.189 C 
BRANCH  16  17
ATOM     17  O   ALA A   1     -38.865 -54.659  13.303  1.00  0.00    -0.399 OA
ATOM     18  H   ALA A   1     -38.920 -54.465  12.351  1.00  0.00     0.209 HD
ENDBRANCH  16  17
ENDBRANCH  14  16
ENDBRANCH  10  14
ENDBRANCH   1   8
BRANCH   4  19
HETATM   19  N   UNK A   0     -41.178 -44.815  10.922  1.00  0.00    -0.367 N 
HETATM   20  C   UNK A   0     -40.152 -43.779  10.871  1.00  0.00     0.124 C 
HETATM   21  C   UNK A   0     -40.217 -42.914  12.133  1.00  0.00     0.020 C 
HETATM   22  C   UNK A   0     -41.617 -42.353  12.353  1.00  0.00     0.003 C 
HETATM   23  C   UNK A   0     -42.650 -43.474  12.362  1.00  0.00     0.020 C 
HETATM   24  C   UNK A   0     -42.554 -44.334  11.101  1.00  0.00     0.124 C 
ENDBRANCH   4  19
TORSDOF 5
ENDMDL
MODEL 3
REMARK VINA RESULT:      -5.8      3.343      8.668
REMARK  5 active torsions:
REMARK  status: ('A' for Active; 'I' for Inactive)
REMARK    1  A    between atoms: CA_2  and  C_3 
REMARK    2  A    between atoms: CA_2  and  N_5 
REMARK    3  A    between atoms: C_3  and  O_4 
REMARK       I    between atoms: N_5  and  C_8 
REMARK       I    between atoms: C_8  and  N_10 
REMARK    4  A    between atoms: N_10  and  C_11 
REMARK    5  A    between atoms: C_14  and  N_18 
ROOT
HETATM    1  C   UNK A   0     -41.876 -47.449  10.744  1.00  0.00     0.051 A 
HETATM    2  C   UNK A   0     -40.652 -46.835  10.946  1.00  0.00     0.035 A 
HETATM    3  C   UNK A   0     -40.601 -45.443  11.117  1.00  0.00     0.051 A 
HETATM    4  C   UNK A   0     -41.760 -44.664  11.034  1.00  0.00     0.103 A 
HETATM    5  N   UNK A   0     -42.930 -45.267  10.743  1.00  0.00    -0.350 N 
ATOM      6  HN  UNK A   0     -43.775 -44.711  10.613  1.00  0.00     0.166 HD
HETATM    7  C   UNK A   0     -42.979 -46.619  10.623  1.00  0.00     0.119 A 
ENDROOT
BRANCH   1   8
HETATM    8  N   UNK A   0     -41.954 -48.858  10.735  1.00  0.00    -0.308 N 
HETATM    9  C   UNK A   0     -42.101 -49.561  11.914  1.00  0.00     0.321 C 
ATOM     10  N   ALA A   1     -41.949 -50.913  11.720  1.00  0.00    -0.337 N 
HETATM   11  O   UNK A   0     -42.242 -49.066  13.026  1.00  0.00    -0.247 OA
ATOM     12  H   ALA A   1     -42.307 -51.303  10.857  1.00  0.00     0.164 HD
HETATM   13  H   UNK A   0     -41.385 -49.339  10.054  1.00  0.00     0.170 HD
BRANCH  10  14
ATOM     14  CA  ALA A   1     -41.848 -51.819  12.861  1.00  0.00     0.105 C 
ATOM     15  CB  ALA A   1     -43.111 -52.666  13.006  1.00  0.00     0.034 C 
BRANCH  14  16
ATOM     16  C   ALA A   1     -40.584 -52.686  12.737  1.00  0.00     0.189 C 
BRANCH  16  17
ATOM     17  O   ALA A   1     -40.552 -53.390  11.497  1.00  0.00    -0.399 OA
ATOM     18  H   ALA A   1     -41.475 -53.571  11.246  1.00  0.00     0.209 HD
ENDBRANCH  16  17
ENDBRANCH  14  16
ENDBRANCH  10  14
ENDBRANCH   1   8
BRANCH   4  19
HETATM   19  N   UNK A   0     -41.766 -43.299  11.244  1.00  0.00    -0.367 N 
HETATM   20  C   UNK A   0     -40.599 -42.494  11.587  1.00  0.00     0.124 C 
HETATM   21  C   UNK A   0     -40.810 -41.813  12.942  1.00  0.00     0.020 C 
HETATM   22  C   UNK A   0     -42.110 -41.016  12.967  1.00  0.00     0.003 C 
HETATM   23  C   UNK A   0     -43.288 -41.895  12.568  1.00  0.00     0.020 C 
HETATM   24  C   UNK A   0     -43.046 -42.579  11.221  1.00  0.00     0.124 C 
ENDBRANCH   4  19
TORSDOF 5
ENDMDL
MODEL 4
REMARK VINA RESULT:      -5.7      1.792      2.445
REMARK  5 active torsions:
REMARK  status: ('A' for Active; 'I' for Inactive)
REMARK    1  A    between atoms: CA_2  and  C_3 
REMARK    2  A    between atoms: CA_2  and  N_5 
REMARK    3  A    between atoms: C_3  and  O_4 
REMARK       I    between atoms: N_5  and  C_8 
REMARK       I    between atoms: C_8  and  N_10 
REMARK    4  A    between atoms: N_10  and  C_11 
REMARK    5  A    between atoms: C_14  and  N_18 
ROOT
HETATM    1  C   UNK A   0     -40.070 -50.229  11.928  1.00  0.00     0.051 A 
HETATM    2  C   UNK A   0     -39.043 -50.661  12.749  1.00  0.00     0.035 A 
HETATM    3  C   UNK A   0     -39.168 -51.888  13.418  1.00  0.00     0.051 A 
HETATM    4  C   UNK A   0     -40.335 -52.653  13.309  1.00  0.00     0.103 A 
HETATM    5  N   UNK A   0     -41.363 -52.171  12.580  1.00  0.00    -0.350 N 
ATOM      6  HN  UNK A   0     -42.245 -52.680  12.541  1.00  0.00     0.166 HD
HETATM    7  C   UNK A   0     -41.218 -51.005  11.900  1.00  0.00     0.119 A 
ENDROOT
BRANCH   1   8
HETATM    8  N   UNK A   0     -39.884 -49.080  11.128  1.00  0.00    -0.308 N 
HETATM    9  C   UNK A   0     -40.175 -47.825  11.623  1.00  0.00     0.321 C 
ATOM     10  N   ALA A   1     -40.127 -46.868  10.638  1.00  0.00    -0.337 N 
HETATM   11  O   UNK A   0     -40.540 -47.577  12.766  1.00  0.00    -0.247 OA
ATOM     12  H   ALA A   1     -39.419 -46.972   9.922  1.00  0.00     0.164 HD
HETATM   13  H   UNK A   0     -40.086 -49.176  10.144  1.00  0.00     0.170 HD
BRANCH  10  14
ATOM     14  CA  ALA A   1     -40.613 -45.515  10.894  1.00  0.00     0.105 C 
ATOM     15  CB  ALA A   1     -39.705 -44.472  10.246  1.00  0.00     0.034 C 
BRANCH  14  16
ATOM     16  C   ALA A   1     -42.071 -45.380  10.426  1.00  0.00     0.189 C 
BRANCH  16  17
ATOM     17  O   ALA A   1     -42.263 -45.958   9.137  1.00  0.00    -0.399 OA
ATOM     18  H   ALA A   1     -41.405 -46.317   8.852  1.00  0.00     0.209 HD
ENDBRANCH  16  17
ENDBRANCH  14  16
ENDBRANCH  10  14
ENDBRANCH   1   8
BRANCH   4  19
HETATM   19  N   UNK A   0     -40.484 -53.888  13.908  1.00  0.00    -0.367 N 
HETATM   20  C   UNK A   0     -41.740 -54.435  14.408  1.00  0.00     0.124 C 
HETATM   21  C   UNK A   0     -41.635 -54.702  15.912  1.00  0.00     0.020 C 
HETATM   22  C   UNK A   0     -40.433 -55.581  16.239  1.00  0.00     0.003 C 
HETATM   23  C   UNK A   0     -39.155 -54.980  15.664  1.00  0.00     0.020 C 
HETATM   24  C   UNK A   0     -39.292 -54.706  14.165  1.00  0.00     0.124 C 
ENDBRANCH   4  19
TORSDOF 5
ENDMDL
MODEL 5
REMARK VINA RESULT:      -5.6      3.770      4.536
REMARK  5 active torsions:
REMARK  status: ('A' for Active; 'I' for Inactive)
REMARK    1  A    between atoms: CA_2  and  C_3 
REMARK    2  A    between atoms: CA_2  and  N_5 
REMARK    3  A    between atoms: C_3  and  O_4 
REMARK       I    between atoms: N_5  and  C_8 
REMARK       I    between atoms: C_8  and  N_10 
REMARK    4  A    between atoms: N_10  and  C_11 
REMARK    5  A    between atoms: C_14  and  N_18 
ROOT
HETATM    1  C   UNK A   0     -39.786 -47.214  11.796  1.00  0.00     0.051 A 
HETATM    2  C   UNK A   0     -39.112 -48.422  11.804  1.00  0.00     0.035 A 
HETATM    3  C   UNK A   0     -38.478 -48.849  12.981  1.00  0.00     0.051 A 
HETATM    4  C   UNK A   0     -38.474 -48.048  14.128  1.00  0.00     0.103 A 
HETATM    5  N   UNK A   0     -39.054 -46.832  14.075  1.00  0.00    -0.350 N 
ATOM      6  HN  UNK A   0     -39.005 -46.205  14.878  1.00  0.00     0.166 HD
HETATM    7  C   UNK A   0     -39.703 -46.444  12.946  1.00  0.00     0.119 A 
ENDROOT
BRANCH   1   8
HETATM    8  N   UNK A   0     -40.559 -46.856  10.671  1.00  0.00    -0.308 N 
HETATM    9  C   UNK A   0     -41.842 -47.341  10.519  1.00  0.00     0.321 C 
ATOM     10  N   ALA A   1     -42.349 -47.051   9.274  1.00  0.00    -0.337 N 
HETATM   11  O   UNK A   0     -42.442 -48.038  11.328  1.00  0.00    -0.247 OA
ATOM     12  H   ALA A   1     -42.100 -46.159   8.866  1.00  0.00     0.164 HD
HETATM   13  H   UNK A   0     -40.066 -46.753   9.796  1.00  0.00     0.170 HD
BRANCH  10  14
ATOM     14  CA  ALA A   1     -43.600 -47.656   8.823  1.00  0.00     0.105 C 
ATOM     15  CB  ALA A   1     -44.796 -46.775   9.176  1.00  0.00     0.034 C 
BRANCH  14  16
ATOM     16  C   ALA A   1     -43.528 -47.955   7.317  1.00  0.00     0.189 C 
BRANCH  16  17
ATOM     17  O   ALA A   1     -42.554 -48.956   7.027  1.00  0.00    -0.399 OA
ATOM     18  H   ALA A   1     -42.979 -49.820   7.169  1.00  0.00     0.209 HD
ENDBRANCH  16  17
ENDBRANCH  14  16
ENDBRANCH  10  14
ENDBRANCH   1   8
BRANCH   4  19
HETATM   19  N   UNK A   0     -37.907 -48.446  15.323  1.00  0.00    -0.367 N 
HETATM   20  C   UNK A   0     -37.324 -47.553  16.317  1.00  0.00     0.124 C 
HETATM   21  C   UNK A   0     -35.843 -47.889  16.521  1.00  0.00     0.020 C 
HETATM   22  C   UNK A   0     -35.648 -49.363  16.858  1.00  0.00     0.003 C 
HETATM   23  C   UNK A   0     -36.307 -50.248  15.806  1.00  0.00     0.020 C 
HETATM   24  C   UNK A   0     -37.779 -49.881  15.609  1.00  0.00     0.124 C 
ENDBRANCH   4  19
TORSDOF 5
ENDMDL
MODEL 6
REMARK VINA RESULT:      -5.6      4.132      9.749
REMARK  5 active torsions:
REMARK  status: ('A' for Active; 'I' for Inactive)
REMARK    1  A    between atoms: CA_2  and  C_3 
REMARK    2  A    between atoms: CA_2  and  N_5 
REMARK    3  A    between atoms: C_3  and  O_4 
REMARK       I    between atoms: N_5  and  C_8 
REMARK       I    between atoms: C_8  and  N_10 
REMARK    4  A    between atoms: N_10  and  C_11 
REMARK    5  A    between atoms: C_14  and  N_18 
ROOT
HETATM    1  C   UNK A   0     -40.983 -45.815  10.781  1.00  0.00     0.051 A 
HETATM    2  C   UNK A   0     -40.083 -44.768  10.677  1.00  0.00     0.035 A 
HETATM    3  C   UNK A   0     -40.486 -43.476  11.048  1.00  0.00     0.051 A 
HETATM    4  C   UNK A   0     -41.796 -43.223  11.469  1.00  0.00     0.103 A 
HETATM    5  N   UNK A   0     -42.686 -44.236  11.473  1.00  0.00    -0.350 N 
ATOM      6  HN  UNK A   0     -43.661 -44.061  11.714  1.00  0.00     0.166 HD
HETATM    7  C   UNK A   0     -42.277 -45.492  11.156  1.00  0.00     0.119 A 
ENDROOT
BRANCH   1   8
HETATM    8  N   UNK A   0     -40.538 -47.137  10.566  1.00  0.00    -0.308 N 
HETATM    9  C   UNK A   0     -40.053 -47.893  11.614  1.00  0.00     0.321 C 
ATOM     10  N   ALA A   1     -39.484 -49.064  11.174  1.00  0.00    -0.337 N 
HETATM   11  O   UNK A   0     -40.020 -47.545  12.789  1.00  0.00    -0.247 OA
ATOM     12  H   ALA A   1     -39.917 -49.525  10.384  1.00  0.00     0.164 HD
HETATM   13  H   UNK A   0     -40.068 -47.322   9.692  1.00  0.00     0.170 HD
BRANCH  10  14
ATOM     14  CA  ALA A   1     -38.716 -49.906  12.088  1.00  0.00     0.105 C 
ATOM     15  CB  ALA A   1     -39.522 -51.132  12.515  1.00  0.00     0.034 C 
BRANCH  14  16
ATOM     16  C   ALA A   1     -37.373 -50.292  11.449  1.00  0.00     0.189 C 
BRANCH  16  17
ATOM     17  O   ALA A   1     -37.372 -50.049  10.044  1.00  0.00    -0.399 OA
ATOM     18  H   ALA A   1     -38.181 -49.549   9.838  1.00  0.00     0.209 HD
ENDBRANCH  16  17
ENDBRANCH  14  16
ENDBRANCH  10  14
ENDBRANCH   1   8
BRANCH   4  19
HETATM   19  N   UNK A   0     -42.224 -41.979  11.890  1.00  0.00    -0.367 N 
HETATM   20  C   UNK A   0     -43.544 -41.684  12.438  1.00  0.00     0.124 C 
HETATM   21  C   UNK A   0     -44.259 -40.655  11.557  1.00  0.00     0.020 C 
HETATM   22  C   UNK A   0     -43.407 -39.407  11.355  1.00  0.00     0.003 C 
HETATM   23  C   UNK A   0     -42.030 -39.777  10.815  1.00  0.00     0.020 C 
HETATM   24  C   UNK A   0     -41.344 -40.819  11.701  1.00  0.00     0.124 C 
ENDBRANCH   4  19
TORSDOF 5
ENDMDL
MODEL 7
REMARK VINA RESULT:      -5.5      3.487      4.312
REMARK  5 active torsions:
REMARK  status: ('A' for Active; 'I' for Inactive)
REMARK    1  A    between atoms: CA_2  and  C_3 
REMARK    2  A    between atoms: CA_2  and  N_5 
REMARK    3  A    between atoms: C_3  and  O_4 
REMARK       I    between atoms: N_5  and  C_8 
REMARK       I    between atoms: C_8  and  N_10 
REMARK    4  A    between atoms: N_10  and  C_11 
REMARK    5  A    between atoms: C_14  and  N_18 
ROOT
HETATM    1  C   UNK A   0     -41.930 -48.943  13.081  1.00  0.00     0.051 A 
HETATM    2  C   UNK A   0     -43.031 -49.184  13.885  1.00  0.00     0.035 A 
HETATM    3  C   UNK A   0     -43.677 -50.428  13.811  1.00  0.00     0.051 A 
HETATM    4  C   UNK A   0     -43.258 -51.405  12.901  1.00  0.00     0.103 A 
HETATM    5  N   UNK A   0     -42.244 -51.118  12.059  1.00  0.00    -0.350 N 
ATOM      6  HN  UNK A   0     -41.966 -51.790  11.344  1.00  0.00     0.166 HD
HETATM    7  C   UNK A   0     -41.595 -49.929  12.167  1.00  0.00     0.119 A 
ENDROOT
BRANCH   1   8
HETATM    8  N   UNK A   0     -41.180 -47.762  13.266  1.00  0.00    -0.308 N 
HETATM    9  C   UNK A   0     -41.447 -46.636  12.514  1.00  0.00     0.321 C 
ATOM     10  N   ALA A   1     -40.486 -45.669  12.691  1.00  0.00    -0.337 N 
HETATM   11  O   UNK A   0     -42.354 -46.522  11.699  1.00  0.00    -0.247 OA
ATOM     12  H   ALA A   1     -40.090 -45.569  13.617  1.00  0.00     0.164 HD
HETATM   13  H   UNK A   0     -40.199 -47.876  13.477  1.00  0.00     0.170 HD
BRANCH  10  14
ATOM     14  CA  ALA A   1     -40.452 -44.490  11.829  1.00  0.00     0.105 C 
ATOM     15  CB  ALA A   1     -39.868 -43.286  12.566  1.00  0.00     0.034 C 
BRANCH  14  16
ATOM     16  C   ALA A   1     -39.683 -44.803  10.535  1.00  0.00     0.189 C 
BRANCH  16  17
ATOM     17  O   ALA A   1     -40.561 -45.234   9.497  1.00  0.00    -0.399 OA
ATOM     18  H   ALA A   1     -40.685 -44.481   8.894  1.00  0.00     0.209 HD
ENDBRANCH  16  17
ENDBRANCH  14  16
ENDBRANCH  10  14
ENDBRANCH   1   8
BRANCH   4  19
HETATM   19  N   UNK A   0     -43.831 -52.659  12.826  1.00  0.00    -0.367 N 
HETATM   20  C   UNK A   0     -45.246 -52.926  12.593  1.00  0.00     0.124 C 
HETATM   21  C   UNK A   0     -45.836 -53.696  13.778  1.00  0.00     0.020 C 
HETATM   22  C   UNK A   0     -45.035 -54.958  14.077  1.00  0.00     0.003 C 
HETATM   23  C   UNK A   0     -43.561 -54.625  14.277  1.00  0.00     0.020 C 
HETATM   24  C   UNK A   0     -42.999 -53.841  13.089  1.00  0.00     0.124 C 
ENDBRANCH   4  19
TORSDOF 5
ENDMDL
MODEL 8
REMARK VINA RESULT:      -5.5      2.399      3.259
REMARK  5 active torsions:
REMARK  status: ('A' for Active; 'I' for Inactive)
REMARK    1  A    between atoms: CA_2  and  C_3 
REMARK    2  A    between atoms: CA_2  and  N_5 
REMARK    3  A    between atoms: C_3  and  O_4 
REMARK       I    between atoms: N_5  and  C_8 
REMARK       I    between atoms: C_8  and  N_10 
REMARK    4  A    between atoms: N_10  and  C_11 
REMARK    5  A    between atoms: C_14  and  N_18 
ROOT
HETATM    1  C   UNK A   0     -40.645 -49.339  11.523  1.00  0.00     0.051 A 
HETATM    2  C   UNK A   0     -39.481 -48.680  11.877  1.00  0.00     0.035 A 
HETATM    3  C   UNK A   0     -38.681 -49.204  12.904  1.00  0.00     0.051 A 
HETATM    4  C   UNK A   0     -39.068 -50.350  13.607  1.00  0.00     0.103 A 
HETATM    5  N   UNK A   0     -40.252 -50.924  13.312  1.00  0.00    -0.350 N 
ATOM      6  HN  UNK A   0     -40.585 -51.720  13.856  1.00  0.00     0.166 HD
HETATM    7  C   UNK A   0     -41.000 -50.439  12.288  1.00  0.00     0.119 A 
ENDROOT
BRANCH   1   8
HETATM    8  N   UNK A   0     -41.368 -48.912  10.388  1.00  0.00    -0.308 N 
HETATM    9  C   UNK A   0     -42.435 -48.046  10.520  1.00  0.00     0.321 C 
ATOM     10  N   ALA A   1     -43.129 -47.914   9.342  1.00  0.00    -0.337 N 
HETATM   11  O   UNK A   0     -42.808 -47.529  11.566  1.00  0.00    -0.247 OA
ATOM     12  H   ALA A   1     -42.595 -47.921   8.482  1.00  0.00     0.164 HD
HETATM   13  H   UNK A   0     -41.494 -49.588   9.649  1.00  0.00     0.170 HD
BRANCH  10  14
ATOM     14  CA  ALA A   1     -44.416 -47.223   9.312  1.00  0.00     0.105 C 
ATOM     15  CB  ALA A   1     -44.255 -45.781   8.834  1.00  0.00     0.034 C 
BRANCH  14  16
ATOM     16  C   ALA A   1     -45.418 -48.008   8.450  1.00  0.00     0.189 C 
BRANCH  16  17
ATOM     17  O   ALA A   1     -46.615 -47.264   8.230  1.00  0.00    -0.399 OA
ATOM     18  H   ALA A   1     -47.353 -47.898   8.237  1.00  0.00     0.209 HD
ENDBRANCH  16  17
ENDBRANCH  14  16
ENDBRANCH  10  14
ENDBRANCH   1   8
BRANCH   4  19
HETATM   19  N   UNK A   0     -38.291 -50.929  14.590  1.00  0.00    -0.367 N 
HETATM   20  C   UNK A   0     -38.657 -52.106  15.370  1.00  0.00     0.124 C 
HETATM   21  C   UNK A   0     -38.713 -51.752  16.859  1.00  0.00     0.020 C 
HETATM   22  C   UNK A   0     -37.412 -51.110  17.328  1.00  0.00     0.003 C 
HETATM   23  C   UNK A   0     -37.060 -49.910  16.458  1.00  0.00     0.020 C 
HETATM   24  C   UNK A   0     -37.028 -50.284  14.975  1.00  0.00     0.124 C 
ENDBRANCH   4  19
TORSDOF 5
ENDMDL
MODEL 9
REMARK VINA RESULT:      -5.5      2.733      3.335
REMARK  5 active torsions:
REMARK  status: ('A' for Active; 'I' for Inactive)
REMARK    1  A    between atoms: CA_2  and  C_3 
REMARK    2  A    between atoms: CA_2  and  N_5 
REMARK    3  A    between atoms: C_3  and  O_4 
REMARK       I    between atoms: N_5  and  C_8 
REMARK       I    between atoms: C_8  and  N_10 
REMARK    4  A    between atoms: N_10  and  C_11 
REMARK    5  A    between atoms: C_14  and  N_18 
ROOT
HETATM    1  C   UNK A   0     -41.912 -49.370  11.686  1.00  0.00     0.051 A 
HETATM    2  C   UNK A   0     -42.982 -49.231  12.553  1.00  0.00     0.035 A 
HETATM    3  C   UNK A   0     -43.219 -50.224  13.515  1.00  0.00     0.051 A 
HETATM    4  C   UNK A   0     -42.425 -51.374  13.576  1.00  0.00     0.103 A 
HETATM    5  N   UNK A   0     -41.447 -51.538  12.662  1.00  0.00    -0.350 N 
ATOM      6  HN  UNK A   0     -40.899 -52.398  12.647  1.00  0.00     0.166 HD
HETATM    7  C   UNK A   0     -41.194 -50.552  11.762  1.00  0.00     0.119 A 
ENDROOT
BRANCH   1   8
HETATM    8  N   UNK A   0     -41.571 -48.303  10.827  1.00  0.00    -0.308 N 
HETATM    9  C   UNK A   0     -40.586 -47.403  11.183  1.00  0.00     0.321 C 
ATOM     10  N   ALA A   1     -40.544 -46.331  10.324  1.00  0.00    -0.337 N 
HETATM   11  O   UNK A   0     -39.893 -47.467  12.192  1.00  0.00    -0.247 OA
ATOM     12  H   ALA A   1     -40.726 -46.511   9.345  1.00  0.00     0.164 HD
HETATM   13  H   UNK A   0     -42.325 -47.881  10.306  1.00  0.00     0.170 HD
BRANCH  10  14
ATOM     14  CA  ALA A   1     -39.730 -45.160  10.638  1.00  0.00     0.105 C 
ATOM     15  CB  ALA A   1     -38.973 -44.669   9.406  1.00  0.00     0.034 C 
BRANCH  14  16
ATOM     16  C   ALA A   1     -40.607 -44.057  11.254  1.00  0.00     0.189 C 
BRANCH  16  17
ATOM     17  O   ALA A   1     -40.633 -42.891  10.433  1.00  0.00    -0.399 OA
ATOM     18  H   ALA A   1     -41.412 -42.964   9.854  1.00  0.00     0.209 HD
ENDBRANCH  16  17
ENDBRANCH  14  16
ENDBRANCH  10  14
ENDBRANCH   1   8
BRANCH   4  19
HETATM   19  N   UNK A   0     -42.590 -52.354  14.535  1.00  0.00    -0.367 N 
HETATM   20  C   UNK A   0     -41.523 -52.918  15.355  1.00  0.00     0.124 C 
HETATM   21  C   UNK A   0     -41.409 -54.424  15.103  1.00  0.00     0.020 C 
HETATM   22  C   UNK A   0     -42.748 -55.126  15.305  1.00  0.00     0.003 C 
HETATM   23  C   UNK A   0     -43.831 -54.474  14.453  1.00  0.00     0.020 C 
HETATM   24  C   UNK A   0     -43.913 -52.968  14.709  1.00  0.00     0.124 C 
ENDBRANCH   4  19
TORSDOF 5
ENDMDL
