MODEL 1
REMARK VINA RESULT:      -5.9      0.000      0.000
REMARK  5 active torsions:
REMARK  status: ('A' for Active; 'I' for Inactive)
REMARK    1  A    between atoms: C_2  and  C_3 
REMARK    2  A    between atoms: C_2  and  N_15 
REMARK       I    between atoms: C_3  and  N_5 
REMARK    3  A    between atoms: N_5  and  C_6 
REMARK    4  A    between atoms: C_9  and  C_12 
REMARK    5  A    between atoms: C_12  and  O_14 
ROOT
HETATM    1  C   UNL     1     -42.784 -49.051  12.370  1.00  0.00     0.242 C 
HETATM    2  O   UNL     1     -43.087 -48.301  13.297  1.00  0.00    -0.271 OA
HETATM    3  N   UNL     1     -42.924 -50.428  12.462  1.00  0.00    -0.355 N 
HETATM    4  H   UNL     1     -42.772 -50.984  11.621  1.00  0.00     0.162 HD
ENDROOT
BRANCH   3   5
HETATM    5  C   UNL     1     -43.515 -51.060  13.639  1.00  0.00     0.084 C 
HETATM    6  C   UNL     1     -42.684 -52.250  14.126  1.00  0.00     0.026 C 
HETATM    7  C   UNL     1     -42.779 -53.479  13.219  1.00  0.00     0.017 C 
HETATM    8  C   UNL     1     -44.205 -53.863  12.792  1.00  0.00     0.084 C 
HETATM    9  C   UNL     1     -45.082 -52.664  12.423  1.00  0.00     0.017 C 
HETATM   10  C   UNL     1     -44.964 -51.492  13.396  1.00  0.00     0.026 C 
BRANCH   8  11
HETATM   11  C   UNL     1     -44.900 -54.727  13.836  1.00  0.00     0.143 C 
HETATM   12  O   UNL     1     -44.324 -55.405  14.671  1.00  0.00    -0.650 OA
BRANCH  11  13
HETATM   13  O   UNL     1     -46.250 -54.657  13.767  1.00  0.00    -0.776 OA
HETATM   14  H   UNL     1     -46.614 -53.755  13.844  1.00  0.00     0.167 HD
ENDBRANCH  11  13
ENDBRANCH   8  11
ENDBRANCH   3   5
BRANCH   1  15
HETATM   15  C   UNL     1     -42.189 -48.537  11.061  1.00  0.00     0.195 C 
HETATM   16  C   UNL     1     -40.916 -47.719  11.281  1.00  0.00     0.044 C 
BRANCH  15  17
HETATM   17  N   UNL     1     -43.175 -47.760  10.321  1.00  0.00    -0.290 N 
HETATM   18  C   UNL     1     -42.949 -46.683   9.507  1.00  0.00     0.112 A 
HETATM   19  C   UNL     1     -44.164 -46.364   8.949  1.00  0.00     0.037 A 
HETATM   20  C   UNL     1     -45.067 -47.287   9.507  1.00  0.00     0.108 A 
HETATM   21  N   UNL     1     -44.477 -48.114  10.373  1.00  0.00    -0.309 N 
ATOM     22  HN  UNL     1     -44.908 -48.844  10.941  1.00  0.00     0.186 HD
ENDBRANCH  15  17
ENDBRANCH   1  15
TORSDOF 5
ENDMDL
MODEL 2
REMARK VINA RESULT:      -5.6      3.099      7.142
REMARK  5 active torsions:
REMARK  status: ('A' for Active; 'I' for Inactive)
REMARK    1  A    between atoms: C_2  and  C_3 
REMARK    2  A    between atoms: C_2  and  N_15 
REMARK       I    between atoms: C_3  and  N_5 
REMARK    3  A    between atoms: N_5  and  C_6 
REMARK    4  A    between atoms: C_9  and  C_12 
REMARK    5  A    between atoms: C_12  and  O_14 
ROOT
HETATM    1  C   UNL     1     -41.948 -50.175  12.245  1.00  0.00     0.242 C 
HETATM    2  O   UNL     1     -42.463 -50.238  13.360  1.00  0.00    -0.271 OA
HETATM    3  N   UNL     1     -42.283 -49.185  11.334  1.00  0.00    -0.355 N 
HETATM    4  H   UNL     1     -41.735 -49.113  10.477  1.00  0.00     0.162 HD
ENDROOT
BRANCH   3   5
HETATM    5  C   UNL     1     -43.212 -48.112  11.679  1.00  0.00     0.084 C 
HETATM    6  C   UNL     1     -43.876 -47.511  10.437  1.00  0.00     0.026 C 
HETATM    7  C   UNL     1     -42.937 -46.646   9.594  1.00  0.00     0.017 C 
HETATM    8  C   UNL     1     -42.099 -45.632  10.390  1.00  0.00     0.084 C 
HETATM    9  C   UNL     1     -41.534 -46.190  11.698  1.00  0.00     0.017 C 
HETATM   10  C   UNL     1     -42.541 -47.009  12.504  1.00  0.00     0.026 C 
BRANCH   8  11
HETATM   11  C   UNL     1     -42.862 -44.340  10.650  1.00  0.00     0.143 C 
HETATM   12  O   UNL     1     -42.654 -43.587  11.588  1.00  0.00    -0.650 OA
BRANCH  11  13
HETATM   13  O   UNL     1     -43.803 -44.083   9.712  1.00  0.00    -0.776 OA
HETATM   14  H   UNL     1     -44.723 -44.157  10.029  1.00  0.00     0.167 HD
ENDBRANCH  11  13
ENDBRANCH   8  11
ENDBRANCH   3   5
BRANCH   1  15
HETATM   15  C   UNL     1     -40.930 -51.202  11.754  1.00  0.00     0.195 C 
HETATM   16  C   UNL     1     -41.139 -52.578  12.388  1.00  0.00     0.044 C 
BRANCH  15  17
HETATM   17  N   UNL     1     -39.571 -50.732  11.990  1.00  0.00    -0.290 N 
HETATM   18  C   UNL     1     -38.811 -50.909  13.114  1.00  0.00     0.112 A 
HETATM   19  C   UNL     1     -37.572 -50.389  12.823  1.00  0.00     0.037 A 
HETATM   20  C   UNL     1     -37.690 -49.898  11.510  1.00  0.00     0.108 A 
HETATM   21  N   UNL     1     -38.917 -50.069  11.012  1.00  0.00    -0.309 N 
ATOM     22  HN  UNL     1     -39.277 -49.770  10.106  1.00  0.00     0.186 HD
ENDBRANCH  15  17
ENDBRANCH   1  15
TORSDOF 5
ENDMDL
MODEL 3
REMARK VINA RESULT:      -5.4      1.345      1.731
REMARK  5 active torsions:
REMARK  status: ('A' for Active; 'I' for Inactive)
REMARK    1  A    between atoms: C_2  and  C_3 
REMARK    2  A    between atoms: C_2  and  N_15 
REMARK       I    between atoms: C_3  and  N_5 
REMARK    3  A    between atoms: N_5  and  C_6 
REMARK    4  A    between atoms: C_9  and  C_12 
REMARK    5  A    between atoms: C_12  and  O_14 
ROOT
HETATM    1  C   UNL     1     -42.233 -49.418  12.432  1.00  0.00     0.242 C 
HETATM    2  O   UNL     1     -42.490 -48.581  13.297  1.00  0.00    -0.271 OA
HETATM    3  N   UNL     1     -42.682 -50.727  12.519  1.00  0.00    -0.355 N 
HETATM    4  H   UNL     1     -42.541 -51.338  11.715  1.00  0.00     0.162 HD
ENDROOT
BRANCH   3   5
HETATM    5  C   UNL     1     -43.552 -51.167  13.606  1.00  0.00     0.084 C 
HETATM    6  C   UNL     1     -42.855 -52.175  14.523  1.00  0.00     0.026 C 
HETATM    7  C   UNL     1     -42.673 -53.558  13.894  1.00  0.00     0.017 C 
HETATM    8  C   UNL     1     -43.923 -54.125  13.200  1.00  0.00     0.084 C 
HETATM    9  C   UNL     1     -44.696 -53.090  12.380  1.00  0.00     0.017 C 
HETATM   10  C   UNL     1     -44.872 -51.748  13.090  1.00  0.00     0.026 C 
BRANCH   8  11
HETATM   11  C   UNL     1     -44.852 -54.825  14.182  1.00  0.00     0.143 C 
HETATM   12  O   UNL     1     -44.676 -54.877  15.389  1.00  0.00    -0.650 OA
BRANCH  11  13
HETATM   13  O   UNL     1     -45.931 -55.382  13.584  1.00  0.00    -0.776 OA
HETATM   14  H   UNL     1     -46.246 -54.909  12.791  1.00  0.00     0.167 HD
ENDBRANCH  11  13
ENDBRANCH   8  11
ENDBRANCH   3   5
BRANCH   1  15
HETATM   15  C   UNL     1     -41.367 -49.099  11.215  1.00  0.00     0.195 C 
HETATM   16  C   UNL     1     -39.951 -49.661  11.346  1.00  0.00     0.044 C 
BRANCH  15  17
HETATM   17  N   UNL     1     -41.327 -47.662  10.977  1.00  0.00    -0.290 N 
HETATM   18  C   UNL     1     -40.250 -46.826  11.095  1.00  0.00     0.112 A 
HETATM   19  C   UNL     1     -40.673 -45.593  10.660  1.00  0.00     0.037 A 
HETATM   20  C   UNL     1     -42.026 -45.778  10.325  1.00  0.00     0.108 A 
HETATM   21  N   UNL     1     -42.440 -47.027  10.553  1.00  0.00    -0.309 N 
ATOM     22  HN  UNL     1     -43.378 -47.412  10.434  1.00  0.00     0.186 HD
ENDBRANCH  15  17
ENDBRANCH   1  15
TORSDOF 5
ENDMDL
MODEL 4
REMARK VINA RESULT:      -5.3      1.786      2.206
REMARK  5 active torsions:
REMARK  status: ('A' for Active; 'I' for Inactive)
REMARK    1  A    between atoms: C_2  and  C_3 
REMARK    2  A    between atoms: C_2  and  N_15 
REMARK       I    between atoms: C_3  and  N_5 
REMARK    3  A    between atoms: N_5  and  C_6 
REMARK    4  A    between atoms: C_9  and  C_12 
REMARK    5  A    between atoms: C_12  and  O_14 
ROOT
HETATM    1  C   UNL     1     -42.952 -48.679  12.877  1.00  0.00     0.242 C 
HETATM    2  O   UNL     1     -42.379 -48.391  13.927  1.00  0.00    -0.271 OA
HETATM    3  N   UNL     1     -43.565 -49.908  12.686  1.00  0.00    -0.355 N 
HETATM    4  H   UNL     1     -44.125 -50.041  11.845  1.00  0.00     0.162 HD
ENDROOT
BRANCH   3   5
HETATM    5  C   UNL     1     -43.633 -50.903  13.754  1.00  0.00     0.084 C 
HETATM    6  C   UNL     1     -43.075 -52.257  13.309  1.00  0.00     0.026 C 
HETATM    7  C   UNL     1     -43.983 -53.007  12.333  1.00  0.00     0.017 C 
HETATM    8  C   UNL     1     -45.466 -53.060  12.735  1.00  0.00     0.084 C 
HETATM    9  C   UNL     1     -46.000 -51.741  13.298  1.00  0.00     0.017 C 
HETATM   10  C   UNL     1     -45.056 -51.071  14.296  1.00  0.00     0.026 C 
BRANCH   8  11
HETATM   11  C   UNL     1     -45.755 -54.204  13.697  1.00  0.00     0.143 C 
HETATM   12  O   UNL     1     -44.998 -55.134  13.918  1.00  0.00    -0.650 OA
BRANCH  11  13
HETATM   13  O   UNL     1     -46.952 -54.082  14.318  1.00  0.00    -0.776 OA
HETATM   14  H   UNL     1     -47.628 -54.723  14.026  1.00  0.00     0.167 HD
ENDBRANCH  11  13
ENDBRANCH   8  11
ENDBRANCH   3   5
BRANCH   1  15
HETATM   15  C   UNL     1     -43.000 -47.728  11.682  1.00  0.00     0.195 C 
HETATM   16  C   UNL     1     -42.199 -48.252  10.489  1.00  0.00     0.044 C 
BRANCH  15  17
HETATM   17  N   UNL     1     -42.537 -46.400  12.065  1.00  0.00    -0.290 N 
HETATM   18  C   UNL     1     -41.461 -45.717  11.569  1.00  0.00     0.112 A 
HETATM   19  C   UNL     1     -41.496 -44.473  12.153  1.00  0.00     0.037 A 
HETATM   20  C   UNL     1     -42.614 -44.510  13.005  1.00  0.00     0.108 A 
HETATM   21  N   UNL     1     -43.230 -45.695  12.984  1.00  0.00    -0.309 N 
ATOM     22  HN  UNL     1     -44.034 -45.996  13.534  1.00  0.00     0.186 HD
ENDBRANCH  15  17
ENDBRANCH   1  15
TORSDOF 5
ENDMDL
MODEL 5
REMARK VINA RESULT:      -5.2      4.925      7.033
REMARK  5 active torsions:
REMARK  status: ('A' for Active; 'I' for Inactive)
REMARK    1  A    between atoms: C_2  and  C_3 
REMARK    2  A    between atoms: C_2  and  N_15 
REMARK       I    between atoms: C_3  and  N_5 
REMARK    3  A    between atoms: N_5  and  C_6 
REMARK    4  A    between atoms: C_9  and  C_12 
REMARK    5  A    between atoms: C_12  and  O_14 
ROOT
HETATM    1  C   UNL     1     -45.326 -53.783  15.092  1.00  0.00     0.242 C 
HETATM    2  O   UNL     1     -45.855 -54.889  14.993  1.00  0.00    -0.271 OA
HETATM    3  N   UNL     1     -43.972 -53.591  14.864  1.00  0.00    -0.355 N 
HETATM    4  H   UNL     1     -43.618 -52.635  14.842  1.00  0.00     0.162 HD
ENDROOT
BRANCH   3   5
HETATM    5  C   UNL     1     -43.110 -54.682  14.415  1.00  0.00     0.084 C 
HETATM    6  C   UNL     1     -42.347 -55.321  15.578  1.00  0.00     0.026 C 
HETATM    7  C   UNL     1     -41.222 -54.445  16.133  1.00  0.00     0.017 C 
HETATM    8  C   UNL     1     -40.304 -53.818  15.072  1.00  0.00     0.084 C 
HETATM    9  C   UNL     1     -41.050 -53.286  13.846  1.00  0.00     0.017 C 
HETATM   10  C   UNL     1     -42.131 -54.234  13.325  1.00  0.00     0.026 C 
BRANCH   8  11
HETATM   11  C   UNL     1     -39.193 -54.767  14.645  1.00  0.00     0.143 C 
HETATM   12  O   UNL     1     -38.811 -55.727  15.295  1.00  0.00    -0.650 OA
BRANCH  11  13
HETATM   13  O   UNL     1     -38.666 -54.456  13.438  1.00  0.00    -0.776 OA
HETATM   14  H   UNL     1     -38.562 -53.500  13.274  1.00  0.00     0.167 HD
ENDBRANCH  11  13
ENDBRANCH   8  11
ENDBRANCH   3   5
BRANCH   1  15
HETATM   15  C   UNL     1     -46.104 -52.538  15.514  1.00  0.00     0.195 C 
HETATM   16  C   UNL     1     -45.531 -51.259  14.903  1.00  0.00     0.044 C 
BRANCH  15  17
HETATM   17  N   UNL     1     -46.155 -52.433  16.967  1.00  0.00    -0.290 N 
HETATM   18  C   UNL     1     -46.296 -51.298  17.717  1.00  0.00     0.112 A 
HETATM   19  C   UNL     1     -46.402 -51.713  19.023  1.00  0.00     0.037 A 
HETATM   20  C   UNL     1     -46.287 -53.113  18.962  1.00  0.00     0.108 A 
HETATM   21  N   UNL     1     -46.097 -53.555  17.716  1.00  0.00    -0.309 N 
ATOM     22  HN  UNL     1     -45.944 -54.513  17.404  1.00  0.00     0.186 HD
ENDBRANCH  15  17
ENDBRANCH   1  15
TORSDOF 5
ENDMDL
MODEL 6
REMARK VINA RESULT:      -5.2      3.885      4.942
REMARK  5 active torsions:
REMARK  status: ('A' for Active; 'I' for Inactive)
REMARK    1  A    between atoms: C_2  and  C_3 
REMARK    2  A    between atoms: C_2  and  N_15 
REMARK       I    between atoms: C_3  and  N_5 
REMARK    3  A    between atoms: N_5  and  C_6 
REMARK    4  A    between atoms: C_9  and  C_12 
REMARK    5  A    between atoms: C_12  and  O_14 
ROOT
HETATM    1  C   UNL     1     -39.686 -51.778  13.728  1.00  0.00     0.242 C 
HETATM    2  O   UNL     1     -39.255 -51.806  12.576  1.00  0.00    -0.271 OA
HETATM    3  N   UNL     1     -40.947 -52.253  14.053  1.00  0.00    -0.355 N 
HETATM    4  H   UNL     1     -41.198 -52.315  15.040  1.00  0.00     0.162 HD
ENDROOT
BRANCH   3   5
HETATM    5  C   UNL     1     -41.807 -52.887  13.057  1.00  0.00     0.084 C 
HETATM    6  C   UNL     1     -43.126 -52.132  12.878  1.00  0.00     0.026 C 
HETATM    7  C   UNL     1     -44.094 -52.297  14.052  1.00  0.00     0.017 C 
HETATM    8  C   UNL     1     -44.278 -53.742  14.544  1.00  0.00     0.084 C 
HETATM    9  C   UNL     1     -42.975 -54.543  14.607  1.00  0.00     0.017 C 
HETATM   10  C   UNL     1     -42.080 -54.359  13.382  1.00  0.00     0.026 C 
BRANCH   8  11
HETATM   11  C   UNL     1     -45.324 -54.493  13.732  1.00  0.00     0.143 C 
HETATM   12  O   UNL     1     -45.566 -55.684  13.843  1.00  0.00    -0.650 OA
BRANCH  11  13
HETATM   13  O   UNL     1     -45.995 -53.696  12.867  1.00  0.00    -0.776 OA
HETATM   14  H   UNL     1     -46.058 -54.046  11.959  1.00  0.00     0.167 HD
ENDBRANCH  11  13
ENDBRANCH   8  11
ENDBRANCH   3   5
BRANCH   1  15
HETATM   15  C   UNL     1     -38.889 -51.182  14.887  1.00  0.00     0.195 C 
HETATM   16  C   UNL     1     -39.651 -51.247  16.211  1.00  0.00     0.044 C 
BRANCH  15  17
HETATM   17  N   UNL     1     -38.499 -49.809  14.588  1.00  0.00    -0.290 N 
HETATM   18  C   UNL     1     -37.354 -49.166  14.970  1.00  0.00     0.112 A 
HETATM   19  C   UNL     1     -37.385 -47.935  14.358  1.00  0.00     0.037 A 
HETATM   20  C   UNL     1     -38.599 -47.920  13.649  1.00  0.00     0.108 A 
HETATM   21  N   UNL     1     -39.300 -49.044  13.817  1.00  0.00    -0.309 N 
ATOM     22  HN  UNL     1     -40.224 -49.271  13.448  1.00  0.00     0.186 HD
ENDBRANCH  15  17
ENDBRANCH   1  15
TORSDOF 5
ENDMDL
MODEL 7
REMARK VINA RESULT:      -5.1      3.161      4.246
REMARK  5 active torsions:
REMARK  status: ('A' for Active; 'I' for Inactive)
REMARK    1  A    between atoms: C_2  and  C_3 
REMARK    2  A    between atoms: C_2  and  N_15 
REMARK       I    between atoms: C_3  and  N_5 
REMARK    3  A    between atoms: N_5  and  C_6 
REMARK    4  A    between atoms: C_9  and  C_12 
REMARK    5  A    between atoms: C_12  and  O_14 
ROOT
HETATM    1  C   UNL     1     -41.573 -50.343  12.974  1.00  0.00     0.242 C 
HETATM    2  O   UNL     1     -41.769 -49.960  11.821  1.00  0.00    -0.271 OA
HETATM    3  N   UNL     1     -42.418 -51.244  13.604  1.00  0.00    -0.355 N 
HETATM    4  H   UNL     1     -42.137 -51.614  14.511  1.00  0.00     0.162 HD
ENDROOT
BRANCH   3   5
HETATM    5  C   UNL     1     -43.546 -51.852  12.903  1.00  0.00     0.084 C 
HETATM    6  C   UNL     1     -44.877 -51.558  13.600  1.00  0.00     0.026 C 
HETATM    7  C   UNL     1     -45.069 -52.325  14.910  1.00  0.00     0.017 C 
HETATM    8  C   UNL     1     -44.734 -53.824  14.840  1.00  0.00     0.084 C 
HETATM    9  C   UNL     1     -43.470 -54.137  14.037  1.00  0.00     0.017 C 
HETATM   10  C   UNL     1     -43.368 -53.363  12.723  1.00  0.00     0.026 C 
BRANCH   8  11
HETATM   11  C   UNL     1     -45.907 -54.647  14.325  1.00  0.00     0.143 C 
HETATM   12  O   UNL     1     -45.812 -55.760  13.833  1.00  0.00    -0.650 OA
BRANCH  11  13
HETATM   13  O   UNL     1     -47.099 -54.027  14.485  1.00  0.00    -0.776 OA
HETATM   14  H   UNL     1     -47.877 -54.590  14.307  1.00  0.00     0.167 HD
ENDBRANCH  11  13
ENDBRANCH   8  11
ENDBRANCH   3   5
BRANCH   1  15
HETATM   15  C   UNL     1     -40.413 -49.827  13.823  1.00  0.00     0.195 C 
HETATM   16  C   UNL     1     -40.576 -48.353  14.197  1.00  0.00     0.044 C 
BRANCH  15  17
HETATM   17  N   UNL     1     -39.143 -50.044  13.141  1.00  0.00    -0.290 N 
HETATM   18  C   UNL     1     -38.230 -51.035  13.374  1.00  0.00     0.112 A 
HETATM   19  C   UNL     1     -37.257 -50.893  12.413  1.00  0.00     0.037 A 
HETATM   20  C   UNL     1     -37.658 -49.772  11.664  1.00  0.00     0.108 A 
HETATM   21  N   UNL     1     -38.785 -49.228  12.126  1.00  0.00    -0.309 N 
ATOM     22  HN  UNL     1     -39.265 -48.392  11.792  1.00  0.00     0.186 HD
ENDBRANCH  15  17
ENDBRANCH   1  15
TORSDOF 5
ENDMDL
MODEL 8
REMARK VINA RESULT:      -5.0      3.590      4.470
REMARK  5 active torsions:
REMARK  status: ('A' for Active; 'I' for Inactive)
REMARK    1  A    between atoms: C_2  and  C_3 
REMARK    2  A    between atoms: C_2  and  N_15 
REMARK       I    between atoms: C_3  and  N_5 
REMARK    3  A    between atoms: N_5  and  C_6 
REMARK    4  A    between atoms: C_9  and  C_12 
REMARK    5  A    between atoms: C_12  and  O_14 
ROOT
HETATM    1  C   UNL     1     -40.253 -51.092  15.038  1.00  0.00     0.242 C 
HETATM    2  O   UNL     1     -40.684 -50.092  15.612  1.00  0.00    -0.271 OA
HETATM    3  N   UNL     1     -41.069 -52.167  14.720  1.00  0.00    -0.355 N 
HETATM    4  H   UNL     1     -40.681 -52.909  14.139  1.00  0.00     0.162 HD
ENDROOT
BRANCH   3   5
HETATM    5  C   UNL     1     -42.506 -52.139  14.978  1.00  0.00     0.084 C 
HETATM    6  C   UNL     1     -42.986 -53.417  15.671  1.00  0.00     0.026 C 
HETATM    7  C   UNL     1     -43.012 -54.642  14.755  1.00  0.00     0.017 C 
HETATM    8  C   UNL     1     -43.660 -54.412  13.380  1.00  0.00     0.084 C 
HETATM    9  C   UNL     1     -43.281 -53.076  12.735  1.00  0.00     0.017 C 
HETATM   10  C   UNL     1     -43.318 -51.893  13.702  1.00  0.00     0.026 C 
BRANCH   8  11
HETATM   11  C   UNL     1     -45.174 -54.566  13.430  1.00  0.00     0.143 C 
HETATM   12  O   UNL     1     -45.769 -55.343  14.159  1.00  0.00    -0.650 OA
BRANCH  11  13
HETATM   13  O   UNL     1     -45.819 -53.727  12.587  1.00  0.00    -0.776 OA
HETATM   14  H   UNL     1     -46.718 -54.014  12.338  1.00  0.00     0.167 HD
ENDBRANCH  11  13
ENDBRANCH   8  11
ENDBRANCH   3   5
BRANCH   1  15
HETATM   15  C   UNL     1     -38.780 -51.252  14.668  1.00  0.00     0.195 C 
HETATM   16  C   UNL     1     -37.845 -50.755  15.771  1.00  0.00     0.044 C 
BRANCH  15  17
HETATM   17  N   UNL     1     -38.491 -50.575  13.410  1.00  0.00    -0.290 N 
HETATM   18  C   UNL     1     -37.462 -50.827  12.544  1.00  0.00     0.112 A 
HETATM   19  C   UNL     1     -37.673 -50.016  11.454  1.00  0.00     0.037 A 
HETATM   20  C   UNL     1     -38.838 -49.294  11.767  1.00  0.00     0.108 A 
HETATM   21  N   UNL     1     -39.319 -49.602  12.973  1.00  0.00    -0.309 N 
ATOM     22  HN  UNL     1     -40.123 -49.198  13.453  1.00  0.00     0.186 HD
ENDBRANCH  15  17
ENDBRANCH   1  15
TORSDOF 5
ENDMDL
MODEL 9
REMARK VINA RESULT:      -5.0      2.315      2.970
REMARK  5 active torsions:
REMARK  status: ('A' for Active; 'I' for Inactive)
REMARK    1  A    between atoms: C_2  and  C_3 
REMARK    2  A    between atoms: C_2  and  N_15 
REMARK       I    between atoms: C_3  and  N_5 
REMARK    3  A    between atoms: N_5  and  C_6 
REMARK    4  A    between atoms: C_9  and  C_12 
REMARK    5  A    between atoms: C_12  and  O_14 
ROOT
HETATM    1  C   UNL     1     -42.157 -47.870  11.931  1.00  0.00     0.242 C 
HETATM    2  O   UNL     1     -42.617 -47.335  12.940  1.00  0.00    -0.271 OA
HETATM    3  N   UNL     1     -41.703 -49.180  11.935  1.00  0.00    -0.355 N 
HETATM    4  H   UNL     1     -41.448 -49.603  11.043  1.00  0.00     0.162 HD
ENDROOT
BRANCH   3   5
HETATM    5  C   UNL     1     -41.820 -50.027  13.119  1.00  0.00     0.084 C 
HETATM    6  C   UNL     1     -40.450 -50.391  13.697  1.00  0.00     0.026 C 
HETATM    7  C   UNL     1     -39.674 -51.404  12.851  1.00  0.00     0.017 C 
HETATM    8  C   UNL     1     -40.487 -52.624  12.391  1.00  0.00     0.084 C 
HETATM    9  C   UNL     1     -41.905 -52.282  11.928  1.00  0.00     0.017 C 
HETATM   10  C   UNL     1     -42.631 -51.297  12.844  1.00  0.00     0.026 C 
BRANCH   8  11
HETATM   11  C   UNL     1     -40.525 -53.717  13.450  1.00  0.00     0.143 C 
HETATM   12  O   UNL     1     -41.400 -53.839  14.292  1.00  0.00    -0.650 OA
BRANCH  11  13
HETATM   13  O   UNL     1     -39.485 -54.578  13.359  1.00  0.00    -0.776 OA
HETATM   14  H   UNL     1     -38.721 -54.241  12.854  1.00  0.00     0.167 HD
ENDBRANCH  11  13
ENDBRANCH   8  11
ENDBRANCH   3   5
BRANCH   1  15
HETATM   15  C   UNL     1     -42.007 -47.125  10.606  1.00  0.00     0.195 C 
HETATM   16  C   UNL     1     -41.927 -45.610  10.796  1.00  0.00     0.044 C 
BRANCH  15  17
HETATM   17  N   UNL     1     -43.094 -47.470   9.699  1.00  0.00    -0.290 N 
HETATM   18  C   UNL     1     -44.438 -47.402   9.943  1.00  0.00     0.112 A 
HETATM   19  C   UNL     1     -45.059 -47.718   8.758  1.00  0.00     0.037 A 
HETATM   20  C   UNL     1     -44.007 -47.988   7.865  1.00  0.00     0.108 A 
HETATM   21  N   UNL     1     -42.808 -47.876   8.443  1.00  0.00    -0.309 N 
ATOM     22  HN  UNL     1     -41.892 -48.055   8.033  1.00  0.00     0.186 HD
ENDBRANCH  15  17
ENDBRANCH   1  15
TORSDOF 5
ENDMDL
