MODEL 1
REMARK VINA RESULT:      -5.5      0.000      0.000
REMARK  4 active torsions:
REMARK  status: ('A' for Active; 'I' for Inactive)
REMARK    1  A    between atoms: C_1  and  C_2 
REMARK       I    between atoms: C_2  and  N_6 
REMARK    2  A    between atoms: C_3  and  N_11 
REMARK    3  A    between atoms: C_10  and  C_16 
REMARK    4  A    between atoms: O_14  and  C_16 
ROOT
HETATM    1  C   UNL     1     -42.714 -52.537  12.556  1.00  0.00     0.144 A 
HETATM    2  C   UNL     1     -41.469 -53.106  12.835  1.00  0.00     0.077 A 
HETATM    3  N   UNL     1     -42.487 -51.332  11.986  1.00  0.00    -0.292 N 
ATOM      4  HN  UNL     1     -43.205 -50.678  11.672  1.00  0.00     0.187 HD
HETATM    5  C   UNL     1     -40.523 -52.198  12.416  1.00  0.00     0.141 A 
HETATM    6  N   UNL     1     -41.180 -51.143  11.905  1.00  0.00    -0.305 N 
HETATM    7  C   UNL     1     -40.556 -49.942  11.362  1.00  0.00     0.177 C 
ENDROOT
BRANCH   1   8
HETATM    8  C   UNL     1     -44.054 -53.109  12.882  1.00  0.00     0.274 C 
HETATM    9  N   UNL     1     -45.039 -52.423  13.561  1.00  0.00    -0.340 N 
HETATM   10  C   UNL     1     -46.291 -53.029  14.039  1.00  0.00     0.111 C 
HETATM   11  C   UNL     1     -44.932 -51.070  14.077  1.00  0.00     0.127 C 
HETATM   12  C   UNL     1     -46.877 -51.965  14.993  1.00  0.00     0.029 C 
HETATM   13  C   UNL     1     -45.648 -51.163  15.406  1.00  0.00     0.022 C 
HETATM   14  O   UNL     1     -44.252 -54.270  12.563  1.00  0.00    -0.266 OA
BRANCH  10  15
HETATM   15  C   UNL     1     -46.099 -54.371  14.789  1.00  0.00     0.189 C 
BRANCH  15  16
HETATM   16  O   UNL     1     -46.385 -55.473  13.976  1.00  0.00    -0.399 OA
HETATM   17  H   UNL     1     -46.049 -55.234  13.072  1.00  0.00     0.209 HD
ENDBRANCH  15  16
ENDBRANCH  10  15
ENDBRANCH   1   8
BRANCH   2  18
HETATM   18  N   UNL     1     -41.182 -54.333  13.479  1.00  0.00    -0.396 N 
HETATM   19  H   UNL     1     -41.562 -54.562  14.408  1.00  0.00     0.156 HD
HETATM   20  H   UNL     1     -40.528 -54.997  13.047  1.00  0.00     0.156 HD
ENDBRANCH   2  18
TORSDOF 4
ENDMDL
MODEL 2
REMARK VINA RESULT:      -5.3      2.080      2.880
REMARK  4 active torsions:
REMARK  status: ('A' for Active; 'I' for Inactive)
REMARK    1  A    between atoms: C_1  and  C_2 
REMARK       I    between atoms: C_2  and  N_6 
REMARK    2  A    between atoms: C_3  and  N_11 
REMARK    3  A    between atoms: C_10  and  C_16 
REMARK    4  A    between atoms: O_14  and  C_16 
ROOT
HETATM    1  C   UNL     1     -42.034 -54.188  14.507  1.00  0.00     0.144 A 
HETATM    2  C   UNL     1     -40.968 -54.198  13.604  1.00  0.00     0.077 A 
HETATM    3  N   UNL     1     -41.513 -54.034  15.744  1.00  0.00    -0.292 N 
ATOM      4  HN  UNL     1     -42.046 -53.991  16.614  1.00  0.00     0.187 HD
HETATM    5  C   UNL     1     -39.823 -54.050  14.354  1.00  0.00     0.141 A 
HETATM    6  N   UNL     1     -40.196 -53.949  15.640  1.00  0.00    -0.305 N 
HETATM    7  C   UNL     1     -39.291 -53.798  16.773  1.00  0.00     0.177 C 
ENDROOT
BRANCH   1   8
HETATM    8  C   UNL     1     -43.480 -54.380  14.187  1.00  0.00     0.274 C 
HETATM    9  N   UNL     1     -44.273 -53.418  13.598  1.00  0.00    -0.340 N 
HETATM   10  C   UNL     1     -45.730 -53.530  13.437  1.00  0.00     0.111 C 
HETATM   11  C   UNL     1     -43.848 -52.083  13.216  1.00  0.00     0.127 C 
HETATM   12  C   UNL     1     -46.170 -52.103  13.041  1.00  0.00     0.029 C 
HETATM   13  C   UNL     1     -45.043 -51.235  13.588  1.00  0.00     0.022 C 
HETATM   14  O   UNL     1     -43.984 -55.441  14.521  1.00  0.00    -0.266 OA
BRANCH  10  15
HETATM   15  C   UNL     1     -46.475 -53.983  14.719  1.00  0.00     0.189 C 
BRANCH  15  16
HETATM   16  O   UNL     1     -46.956 -55.292  14.612  1.00  0.00    -0.399 OA
HETATM   17  H   UNL     1     -46.333 -55.851  15.148  1.00  0.00     0.209 HD
ENDBRANCH  15  16
ENDBRANCH  10  15
ENDBRANCH   1   8
BRANCH   2  18
HETATM   18  N   UNL     1     -40.998 -54.387  12.202  1.00  0.00    -0.396 N 
HETATM   19  H   UNL     1     -41.317 -55.269  11.779  1.00  0.00     0.156 HD
HETATM   20  H   UNL     1     -40.634 -53.655  11.579  1.00  0.00     0.156 HD
ENDBRANCH   2  18
TORSDOF 4
ENDMDL
MODEL 3
REMARK VINA RESULT:      -5.2      3.530      5.015
REMARK  4 active torsions:
REMARK  status: ('A' for Active; 'I' for Inactive)
REMARK    1  A    between atoms: C_1  and  C_2 
REMARK       I    between atoms: C_2  and  N_6 
REMARK    2  A    between atoms: C_3  and  N_11 
REMARK    3  A    between atoms: C_10  and  C_16 
REMARK    4  A    between atoms: O_14  and  C_16 
ROOT
HETATM    1  C   UNL     1     -39.886 -49.922  12.538  1.00  0.00     0.144 A 
HETATM    2  C   UNL     1     -40.272 -49.171  11.426  1.00  0.00     0.077 A 
HETATM    3  N   UNL     1     -39.585 -49.053  13.528  1.00  0.00    -0.292 N 
ATOM      4  HN  UNL     1     -39.269 -49.303  14.465  1.00  0.00     0.187 HD
HETATM    5  C   UNL     1     -40.183 -47.849  11.800  1.00  0.00     0.141 A 
HETATM    6  N   UNL     1     -39.770 -47.821  13.078  1.00  0.00    -0.305 N 
HETATM    7  C   UNL     1     -39.526 -46.616  13.860  1.00  0.00     0.177 C 
ENDROOT
BRANCH   1   8
HETATM    8  C   UNL     1     -39.756 -51.409  12.615  1.00  0.00     0.274 C 
HETATM    9  N   UNL     1     -40.827 -52.270  12.730  1.00  0.00    -0.340 N 
HETATM   10  C   UNL     1     -40.706 -53.714  12.980  1.00  0.00     0.111 C 
HETATM   11  C   UNL     1     -42.224 -51.883  12.814  1.00  0.00     0.127 C 
HETATM   12  C   UNL     1     -42.142 -54.149  13.345  1.00  0.00     0.029 C 
HETATM   13  C   UNL     1     -42.777 -52.852  13.834  1.00  0.00     0.022 C 
HETATM   14  O   UNL     1     -38.625 -51.865  12.624  1.00  0.00    -0.266 OA
BRANCH  10  15
HETATM   15  C   UNL     1     -39.729 -54.078  14.127  1.00  0.00     0.189 C 
BRANCH  15  16
HETATM   16  O   UNL     1     -38.535 -54.625  13.646  1.00  0.00    -0.399 OA
HETATM   17  H   UNL     1     -38.801 -55.285  12.953  1.00  0.00     0.209 HD
ENDBRANCH  15  16
ENDBRANCH  10  15
ENDBRANCH   1   8
BRANCH   2  18
HETATM   18  N   UNL     1     -40.628 -49.624  10.133  1.00  0.00    -0.396 N 
HETATM   19  H   UNL     1     -39.918 -49.882   9.434  1.00  0.00     0.156 HD
HETATM   20  H   UNL     1     -41.615 -49.639   9.850  1.00  0.00     0.156 HD
ENDBRANCH   2  18
TORSDOF 4
ENDMDL
MODEL 4
REMARK VINA RESULT:      -5.0      4.258      7.007
REMARK  4 active torsions:
REMARK  status: ('A' for Active; 'I' for Inactive)
REMARK    1  A    between atoms: C_1  and  C_2 
REMARK       I    between atoms: C_2  and  N_6 
REMARK    2  A    between atoms: C_3  and  N_11 
REMARK    3  A    between atoms: C_10  and  C_16 
REMARK    4  A    between atoms: O_14  and  C_16 
ROOT
HETATM    1  C   UNL     1     -41.422 -49.379  11.331  1.00  0.00     0.144 A 
HETATM    2  C   UNL     1     -40.281 -50.184  11.397  1.00  0.00     0.077 A 
HETATM    3  N   UNL     1     -42.421 -50.043  11.954  1.00  0.00    -0.292 N 
ATOM      4  HN  UNL     1     -43.378 -49.708  12.066  1.00  0.00     0.187 HD
HETATM    5  C   UNL     1     -40.652 -51.327  12.069  1.00  0.00     0.141 A 
HETATM    6  N   UNL     1     -41.949 -51.199  12.393  1.00  0.00    -0.305 N 
HETATM    7  C   UNL     1     -42.745 -52.196  13.098  1.00  0.00     0.177 C 
ENDROOT
BRANCH   1   8
HETATM    8  C   UNL     1     -41.548 -48.059  10.643  1.00  0.00     0.274 C 
HETATM    9  N   UNL     1     -40.882 -46.919  11.038  1.00  0.00    -0.340 N 
HETATM   10  C   UNL     1     -41.129 -45.580  10.480  1.00  0.00     0.111 C 
HETATM   11  C   UNL     1     -39.984 -46.808  12.173  1.00  0.00     0.127 C 
HETATM   12  C   UNL     1     -40.397 -44.632  11.456  1.00  0.00     0.029 C 
HETATM   13  C   UNL     1     -40.329 -45.449  12.740  1.00  0.00     0.022 C 
HETATM   14  O   UNL     1     -42.330 -47.996   9.708  1.00  0.00    -0.266 OA
BRANCH  10  15
HETATM   15  C   UNL     1     -42.628 -45.199  10.389  1.00  0.00     0.189 C 
BRANCH  15  16
HETATM   16  O   UNL     1     -43.114 -45.290   9.080  1.00  0.00    -0.399 OA
HETATM   17  H   UNL     1     -42.469 -44.785   8.518  1.00  0.00     0.209 HD
ENDBRANCH  15  16
ENDBRANCH  10  15
ENDBRANCH   1   8
BRANCH   2  18
HETATM   18  N   UNL     1     -39.001 -49.950  10.843  1.00  0.00    -0.396 N 
HETATM   19  H   UNL     1     -38.285 -49.404  11.342  1.00  0.00     0.156 HD
HETATM   20  H   UNL     1     -38.787 -50.275   9.892  1.00  0.00     0.156 HD
ENDBRANCH   2  18
TORSDOF 4
ENDMDL
MODEL 5
REMARK VINA RESULT:      -4.9      6.095      8.423
REMARK  4 active torsions:
REMARK  status: ('A' for Active; 'I' for Inactive)
REMARK    1  A    between atoms: C_1  and  C_2 
REMARK       I    between atoms: C_2  and  N_6 
REMARK    2  A    between atoms: C_3  and  N_11 
REMARK    3  A    between atoms: C_10  and  C_16 
REMARK    4  A    between atoms: O_14  and  C_16 
ROOT
HETATM    1  C   UNL     1     -40.910 -47.218  10.936  1.00  0.00     0.144 A 
HETATM    2  C   UNL     1     -41.746 -48.325  11.104  1.00  0.00     0.077 A 
HETATM    3  N   UNL     1     -39.640 -47.637  11.126  1.00  0.00    -0.292 N 
ATOM      4  HN  UNL     1     -38.805 -47.054  11.071  1.00  0.00     0.187 HD
HETATM    5  C   UNL     1     -40.923 -49.390  11.399  1.00  0.00     0.141 A 
HETATM    6  N   UNL     1     -39.660 -48.933  11.397  1.00  0.00    -0.305 N 
HETATM    7  C   UNL     1     -38.474 -49.731  11.681  1.00  0.00     0.177 C 
ENDROOT
BRANCH   1   8
HETATM    8  C   UNL     1     -41.332 -45.810  10.666  1.00  0.00     0.274 C 
HETATM    9  N   UNL     1     -40.737 -44.705  11.236  1.00  0.00    -0.340 N 
HETATM   10  C   UNL     1     -41.251 -43.332  11.115  1.00  0.00     0.111 C 
HETATM   11  C   UNL     1     -39.640 -44.726  12.187  1.00  0.00     0.127 C 
HETATM   12  C   UNL     1     -40.447 -42.541  12.171  1.00  0.00     0.029 C 
HETATM   13  C   UNL     1     -40.016 -43.624  13.153  1.00  0.00     0.022 C 
HETATM   14  O   UNL     1     -42.295 -45.653   9.932  1.00  0.00    -0.266 OA
BRANCH  10  15
HETATM   15  C   UNL     1     -42.770 -43.198  11.389  1.00  0.00     0.189 C 
BRANCH  15  16
HETATM   16  O   UNL     1     -43.518 -43.187  10.207  1.00  0.00    -0.399 OA
HETATM   17  H   UNL     1     -43.721 -42.231  10.027  1.00  0.00     0.209 HD
ENDBRANCH  15  16
ENDBRANCH  10  15
ENDBRANCH   1   8
BRANCH   2  18
HETATM   18  N   UNL     1     -43.158 -48.382  11.059  1.00  0.00    -0.396 N 
HETATM   19  H   UNL     1     -43.706 -48.874  11.779  1.00  0.00     0.156 HD
HETATM   20  H   UNL     1     -43.662 -47.981  10.258  1.00  0.00     0.156 HD
ENDBRANCH   2  18
TORSDOF 4
ENDMDL
MODEL 6
REMARK VINA RESULT:      -4.7      1.924      2.894
REMARK  4 active torsions:
REMARK  status: ('A' for Active; 'I' for Inactive)
REMARK    1  A    between atoms: C_1  and  C_2 
REMARK       I    between atoms: C_2  and  N_6 
REMARK    2  A    between atoms: C_3  and  N_11 
REMARK    3  A    between atoms: C_10  and  C_16 
REMARK    4  A    between atoms: O_14  and  C_16 
ROOT
HETATM    1  C   UNL     1     -40.927 -50.689  12.692  1.00  0.00     0.144 A 
HETATM    2  C   UNL     1     -40.201 -50.022  11.702  1.00  0.00     0.077 A 
HETATM    3  N   UNL     1     -40.284 -50.494  13.865  1.00  0.00    -0.292 N 
ATOM      4  HN  UNL     1     -40.574 -50.861  14.772  1.00  0.00     0.187 HD
HETATM    5  C   UNL     1     -39.123 -49.443  12.335  1.00  0.00     0.141 A 
HETATM    6  N   UNL     1     -39.214 -49.747  13.640  1.00  0.00    -0.305 N 
HETATM    7  C   UNL     1     -38.262 -49.346  14.669  1.00  0.00     0.177 C 
ENDROOT
BRANCH   1   8
HETATM    8  C   UNL     1     -42.150 -51.524  12.497  1.00  0.00     0.274 C 
HETATM    9  N   UNL     1     -43.369 -51.252  13.080  1.00  0.00    -0.340 N 
HETATM   10  C   UNL     1     -44.529 -52.155  13.036  1.00  0.00     0.111 C 
HETATM   11  C   UNL     1     -43.656 -50.145  13.975  1.00  0.00     0.127 C 
HETATM   12  C   UNL     1     -45.499 -51.563  14.082  1.00  0.00     0.029 C 
HETATM   13  C   UNL     1     -44.573 -50.774  14.999  1.00  0.00     0.022 C 
HETATM   14  O   UNL     1     -42.029 -52.530  11.817  1.00  0.00    -0.266 OA
BRANCH  10  15
HETATM   15  C   UNL     1     -44.197 -53.628  13.389  1.00  0.00     0.189 C 
BRANCH  15  16
HETATM   16  O   UNL     1     -45.033 -54.529  12.721  1.00  0.00    -0.399 OA
HETATM   17  H   UNL     1     -44.635 -55.427  12.872  1.00  0.00     0.209 HD
ENDBRANCH  15  16
ENDBRANCH  10  15
ENDBRANCH   1   8
BRANCH   2  18
HETATM   18  N   UNL     1     -40.441 -49.976  10.309  1.00  0.00    -0.396 N 
HETATM   19  H   UNL     1     -39.950 -50.598   9.652  1.00  0.00     0.156 HD
HETATM   20  H   UNL     1     -41.072 -49.264   9.922  1.00  0.00     0.156 HD
ENDBRANCH   2  18
TORSDOF 4
ENDMDL
MODEL 7
REMARK VINA RESULT:      -4.7      3.303      6.256
REMARK  4 active torsions:
REMARK  status: ('A' for Active; 'I' for Inactive)
REMARK    1  A    between atoms: C_1  and  C_2 
REMARK       I    between atoms: C_2  and  N_6 
REMARK    2  A    between atoms: C_3  and  N_11 
REMARK    3  A    between atoms: C_10  and  C_16 
REMARK    4  A    between atoms: O_14  and  C_16 
ROOT
HETATM    1  C   UNL     1     -41.396 -51.962  13.776  1.00  0.00     0.144 A 
HETATM    2  C   UNL     1     -42.306 -52.320  12.778  1.00  0.00     0.077 A 
HETATM    3  N   UNL     1     -42.094 -51.803  14.922  1.00  0.00    -0.292 N 
ATOM      4  HN  UNL     1     -41.702 -51.540  15.826  1.00  0.00     0.187 HD
HETATM    5  C   UNL     1     -43.544 -52.359  13.380  1.00  0.00     0.141 A 
HETATM    6  N   UNL     1     -43.372 -52.046  14.674  1.00  0.00    -0.305 N 
HETATM    7  C   UNL     1     -44.433 -51.952  15.669  1.00  0.00     0.177 C 
ENDROOT
BRANCH   1   8
HETATM    8  C   UNL     1     -39.930 -51.727  13.608  1.00  0.00     0.274 C 
HETATM    9  N   UNL     1     -39.316 -50.512  13.820  1.00  0.00    -0.340 N 
HETATM   10  C   UNL     1     -37.911 -50.224  13.493  1.00  0.00     0.111 C 
HETATM   11  C   UNL     1     -39.979 -49.281  14.215  1.00  0.00     0.127 C 
HETATM   12  C   UNL     1     -37.811 -48.687  13.605  1.00  0.00     0.029 C 
HETATM   13  C   UNL     1     -39.252 -48.236  13.399  1.00  0.00     0.022 C 
HETATM   14  O   UNL     1     -39.261 -52.668  13.211  1.00  0.00    -0.266 OA
BRANCH  10  15
HETATM   15  C   UNL     1     -37.484 -50.686  12.077  1.00  0.00     0.189 C 
BRANCH  15  16
HETATM   16  O   UNL     1     -36.741 -51.871  12.112  1.00  0.00    -0.399 OA
HETATM   17  H   UNL     1     -36.554 -52.042  13.072  1.00  0.00     0.209 HD
ENDBRANCH  15  16
ENDBRANCH  10  15
ENDBRANCH   1   8
BRANCH   2  18
HETATM   18  N   UNL     1     -42.068 -52.543  11.402  1.00  0.00    -0.396 N 
HETATM   19  H   UNL     1     -41.764 -53.459  11.044  1.00  0.00     0.156 HD
HETATM   20  H   UNL     1     -42.136 -51.762  10.737  1.00  0.00     0.156 HD
ENDBRANCH   2  18
TORSDOF 4
ENDMDL
MODEL 8
REMARK VINA RESULT:      -4.7      4.961      6.687
REMARK  4 active torsions:
REMARK  status: ('A' for Active; 'I' for Inactive)
REMARK    1  A    between atoms: C_1  and  C_2 
REMARK       I    between atoms: C_2  and  N_6 
REMARK    2  A    between atoms: C_3  and  N_11 
REMARK    3  A    between atoms: C_10  and  C_16 
REMARK    4  A    between atoms: O_14  and  C_16 
ROOT
HETATM    1  C   UNL     1     -41.784 -47.909  10.693  1.00  0.00     0.144 A 
HETATM    2  C   UNL     1     -42.915 -47.184  11.077  1.00  0.00     0.077 A 
HETATM    3  N   UNL     1     -41.941 -48.243   9.393  1.00  0.00    -0.292 N 
ATOM      4  HN  UNL     1     -41.278 -48.777   8.831  1.00  0.00     0.187 HD
HETATM    5  C   UNL     1     -43.726 -47.114   9.966  1.00  0.00     0.141 A 
HETATM    6  N   UNL     1     -43.099 -47.761   8.970  1.00  0.00    -0.305 N 
HETATM    7  C   UNL     1     -43.620 -47.940   7.620  1.00  0.00     0.177 C 
ENDROOT
BRANCH   1   8
HETATM    8  C   UNL     1     -40.638 -48.308  11.564  1.00  0.00     0.274 C 
HETATM    9  N   UNL     1     -40.573 -49.501  12.251  1.00  0.00    -0.340 N 
HETATM   10  C   UNL     1     -39.538 -49.831  13.243  1.00  0.00     0.111 C 
HETATM   11  C   UNL     1     -41.593 -50.536  12.258  1.00  0.00     0.127 C 
HETATM   12  C   UNL     1     -40.084 -51.097  13.941  1.00  0.00     0.029 C 
HETATM   13  C   UNL     1     -41.585 -51.000  13.697  1.00  0.00     0.022 C 
HETATM   14  O   UNL     1     -39.739 -47.495  11.701  1.00  0.00    -0.266 OA
BRANCH  10  15
HETATM   15  C   UNL     1     -39.282 -48.714  14.286  1.00  0.00     0.189 C 
BRANCH  15  16
HETATM   16  O   UNL     1     -38.066 -48.059  14.067  1.00  0.00    -0.399 OA
HETATM   17  H   UNL     1     -37.374 -48.623  14.504  1.00  0.00     0.209 HD
ENDBRANCH  15  16
ENDBRANCH  10  15
ENDBRANCH   1   8
BRANCH   2  18
HETATM   18  N   UNL     1     -43.243 -46.664  12.351  1.00  0.00    -0.396 N 
HETATM   19  H   UNL     1     -42.820 -45.796  12.709  1.00  0.00     0.156 HD
HETATM   20  H   UNL     1     -43.869 -47.190  12.973  1.00  0.00     0.156 HD
ENDBRANCH   2  18
TORSDOF 4
ENDMDL
MODEL 9
REMARK VINA RESULT:      -4.6      2.767      4.319
REMARK  4 active torsions:
REMARK  status: ('A' for Active; 'I' for Inactive)
REMARK    1  A    between atoms: C_1  and  C_2 
REMARK       I    between atoms: C_2  and  N_6 
REMARK    2  A    between atoms: C_3  and  N_11 
REMARK    3  A    between atoms: C_10  and  C_16 
REMARK    4  A    between atoms: O_14  and  C_16 
ROOT
HETATM    1  C   UNL     1     -40.598 -49.880  13.059  1.00  0.00     0.144 A 
HETATM    2  C   UNL     1     -40.025 -49.611  11.813  1.00  0.00     0.077 A 
HETATM    3  N   UNL     1     -39.872 -49.220  13.988  1.00  0.00    -0.292 N 
ATOM      4  HN  UNL     1     -40.046 -49.224  14.993  1.00  0.00     0.187 HD
HETATM    5  C   UNL     1     -38.950 -48.784  12.051  1.00  0.00     0.141 A 
HETATM    6  N   UNL     1     -38.896 -48.568  13.376  1.00  0.00    -0.305 N 
HETATM    7  C   UNL     1     -37.895 -47.758  14.059  1.00  0.00     0.177 C 
ENDROOT
BRANCH   1   8
HETATM    8  C   UNL     1     -41.755 -50.783  13.336  1.00  0.00     0.274 C 
HETATM    9  N   UNL     1     -41.629 -52.087  13.765  1.00  0.00    -0.340 N 
HETATM   10  C   UNL     1     -42.747 -53.036  13.874  1.00  0.00     0.111 C 
HETATM   11  C   UNL     1     -40.379 -52.790  13.994  1.00  0.00     0.127 C 
HETATM   12  C   UNL     1     -42.056 -54.403  14.068  1.00  0.00     0.029 C 
HETATM   13  C   UNL     1     -40.674 -54.176  13.467  1.00  0.00     0.022 C 
HETATM   14  O   UNL     1     -42.869 -50.336  13.116  1.00  0.00    -0.266 OA
BRANCH  10  15
HETATM   15  C   UNL     1     -43.668 -53.075  12.628  1.00  0.00     0.189 C 
BRANCH  15  16
HETATM   16  O   UNL     1     -42.961 -52.836  11.445  1.00  0.00    -0.399 OA
HETATM   17  H   UNL     1     -42.319 -52.108  11.658  1.00  0.00     0.209 HD
ENDBRANCH  15  16
ENDBRANCH  10  15
ENDBRANCH   1   8
BRANCH   2  18
HETATM   18  N   UNL     1     -40.392 -50.114  10.543  1.00  0.00    -0.396 N 
HETATM   19  H   UNL     1     -40.872 -51.019  10.435  1.00  0.00     0.156 HD
HETATM   20  H   UNL     1     -40.124 -49.604   9.693  1.00  0.00     0.156 HD
ENDBRANCH   2  18
TORSDOF 4
ENDMDL
