MODEL 1
REMARK VINA RESULT:      -5.9      0.000      0.000
REMARK  5 active torsions:
REMARK  status: ('A' for Active; 'I' for Inactive)
REMARK    1  A    between atoms: O_2  and  C_3 
REMARK    2  A    between atoms: C_6  and  N_7 
REMARK    3  A    between atoms: C_10  and  N_11 
REMARK    4  A    between atoms: C_17  and  C_18 
REMARK    5  A    between atoms: C_18  and  O_19 
ROOT
HETATM    1  C   UNL     1     -45.227 -54.095  14.456  1.00  0.00     0.156 A 
HETATM    2  N   UNL     1     -46.117 -53.567  13.604  1.00  0.00    -0.313 N 
ATOM      3  HN  UNL     1     -47.123 -53.613  13.769  1.00  0.00     0.170 HD
HETATM    4  C   UNL     1     -45.605 -52.983  12.535  1.00  0.00     0.158 A 
HETATM    5  N   UNL     1     -44.309 -52.926  12.257  1.00  0.00    -0.318 N 
ATOM      6  HN  UNL     1     -43.989 -52.467  11.404  1.00  0.00     0.170 HD
HETATM    7  C   UNL     1     -43.412 -53.476  13.105  1.00  0.00     0.118 A 
HETATM    8  C   UNL     1     -43.852 -54.109  14.275  1.00  0.00     0.060 A 
ENDROOT
BRANCH   7   9
HETATM    9  N   UNL     1     -42.100 -53.307  12.738  1.00  0.00    -0.363 N 
HETATM   10  C   UNL     1     -40.986 -54.250  12.818  1.00  0.00     0.150 C 
HETATM   11  C   UNL     1     -39.891 -53.629  13.697  1.00  0.00     0.187 C 
HETATM   12  O   UNL     1     -39.443 -52.378  13.143  1.00  0.00    -0.388 OA
HETATM   13  C   UNL     1     -40.541 -51.448  13.019  1.00  0.00     0.187 C 
HETATM   14  C   UNL     1     -41.686 -52.015  12.157  1.00  0.00     0.150 C 
ENDBRANCH   7   9
BRANCH   8  15
HETATM   15  C   UNL     1     -42.901 -54.667  15.303  1.00  0.00     0.211 C 
BRANCH  15  16
HETATM   16  O   UNL     1     -43.005 -56.041  15.675  1.00  0.00    -0.396 OA
HETATM   17  H   UNL     1     -43.904 -56.347  15.459  1.00  0.00     0.209 HD
ENDBRANCH  15  16
ENDBRANCH   8  15
BRANCH   4  18
HETATM   18  N   UNL     1     -46.487 -52.428  11.629  1.00  0.00    -0.274 NA
HETATM   19  H   UNL     1     -47.359 -52.940  11.650  1.00  0.00     0.127 HD
HETATM   20  H   UNL     1     -46.029 -52.337  10.732  1.00  0.00     0.127 HD
ENDBRANCH   4  18
BRANCH   1  21
HETATM   21  O   UNL     1     -45.739 -54.702  15.592  1.00  0.00    -0.340 OA
HETATM   22  C   UNL     1     -46.020 -53.773  16.638  1.00  0.00     0.211 C 
ENDBRANCH   1  21
TORSDOF 5
ENDMDL
MODEL 2
REMARK VINA RESULT:      -5.6      2.601      5.767
REMARK  5 active torsions:
REMARK  status: ('A' for Active; 'I' for Inactive)
REMARK    1  A    between atoms: O_2  and  C_3 
REMARK    2  A    between atoms: C_6  and  N_7 
REMARK    3  A    between atoms: C_10  and  N_11 
REMARK    4  A    between atoms: C_17  and  C_18 
REMARK    5  A    between atoms: C_18  and  O_19 
ROOT
HETATM    1  C   UNL     1     -39.438 -50.881  12.066  1.00  0.00     0.156 A 
HETATM    2  N   UNL     1     -39.765 -49.908  11.205  1.00  0.00    -0.313 N 
ATOM      3  HN  UNL     1     -39.061 -49.373  10.695  1.00  0.00     0.170 HD
HETATM    4  C   UNL     1     -41.060 -49.686  11.059  1.00  0.00     0.158 A 
HETATM    5  N   UNL     1     -42.012 -50.330  11.723  1.00  0.00    -0.318 N 
ATOM      6  HN  UNL     1     -42.992 -50.095  11.565  1.00  0.00     0.170 HD
HETATM    7  C   UNL     1     -41.683 -51.297  12.607  1.00  0.00     0.118 A 
HETATM    8  C   UNL     1     -40.336 -51.618  12.825  1.00  0.00     0.060 A 
ENDROOT
BRANCH   7   9
HETATM    9  N   UNL     1     -42.754 -51.928  13.190  1.00  0.00    -0.363 N 
HETATM   10  C   UNL     1     -43.373 -53.207  12.850  1.00  0.00     0.150 C 
HETATM   11  C   UNL     1     -44.849 -52.952  12.508  1.00  0.00     0.187 C 
HETATM   12  O   UNL     1     -45.532 -52.350  13.623  1.00  0.00    -0.388 OA
HETATM   13  C   UNL     1     -44.906 -51.104  13.999  1.00  0.00     0.187 C 
HETATM   14  C   UNL     1     -43.415 -51.285  14.343  1.00  0.00     0.150 C 
ENDBRANCH   7   9
BRANCH   8  15
HETATM   15  C   UNL     1     -39.906 -52.741  13.732  1.00  0.00     0.211 C 
BRANCH  15  16
HETATM   16  O   UNL     1     -39.281 -53.893  13.168  1.00  0.00    -0.396 OA
HETATM   17  H   UNL     1     -38.316 -53.783  13.241  1.00  0.00     0.209 HD
ENDBRANCH  15  16
ENDBRANCH   8  15
BRANCH   4  18
HETATM   18  N   UNL     1     -41.440 -48.690  10.183  1.00  0.00    -0.274 NA
HETATM   19  H   UNL     1     -40.965 -48.818   9.299  1.00  0.00     0.127 HD
HETATM   20  H   UNL     1     -41.336 -47.791  10.635  1.00  0.00     0.127 HD
ENDBRANCH   4  18
BRANCH   1  21
HETATM   21  O   UNL     1     -38.086 -51.141  12.226  1.00  0.00    -0.340 OA
HETATM   22  C   UNL     1     -37.263 -50.328  11.393  1.00  0.00     0.211 C 
ENDBRANCH   1  21
TORSDOF 5
ENDMDL
MODEL 3
REMARK VINA RESULT:      -5.5      2.332      3.650
REMARK  5 active torsions:
REMARK  status: ('A' for Active; 'I' for Inactive)
REMARK    1  A    between atoms: O_2  and  C_3 
REMARK    2  A    between atoms: C_6  and  N_7 
REMARK    3  A    between atoms: C_10  and  N_11 
REMARK    4  A    between atoms: C_17  and  C_18 
REMARK    5  A    between atoms: C_18  and  O_19 
ROOT
HETATM    1  C   UNL     1     -43.447 -53.469  12.697  1.00  0.00     0.156 A 
HETATM    2  N   UNL     1     -42.839 -52.681  11.800  1.00  0.00    -0.313 N 
ATOM      3  HN  UNL     1     -43.305 -52.364  10.949  1.00  0.00     0.170 HD
HETATM    4  C   UNL     1     -41.596 -52.340  12.090  1.00  0.00     0.158 A 
HETATM    5  N   UNL     1     -40.935 -52.752  13.165  1.00  0.00    -0.318 N 
ATOM      6  HN  UNL     1     -39.971 -52.455  13.316  1.00  0.00     0.170 HD
HETATM    7  C   UNL     1     -41.540 -53.563  14.059  1.00  0.00     0.118 A 
HETATM    8  C   UNL     1     -42.864 -53.972  13.851  1.00  0.00     0.060 A 
ENDROOT
BRANCH   7   9
HETATM    9  N   UNL     1     -40.775 -53.877  15.156  1.00  0.00    -0.363 N 
HETATM   10  C   UNL     1     -39.878 -55.012  15.365  1.00  0.00     0.150 C 
HETATM   11  C   UNL     1     -40.366 -55.790  16.596  1.00  0.00     0.187 C 
HETATM   12  O   UNL     1     -40.376 -54.944  17.761  1.00  0.00    -0.388 OA
HETATM   13  C   UNL     1     -41.226 -53.794  17.554  1.00  0.00     0.187 C 
HETATM   14  C   UNL     1     -40.800 -52.973  16.322  1.00  0.00     0.150 C 
ENDBRANCH   7   9
BRANCH   8  15
HETATM   15  C   UNL     1     -43.623 -54.807  14.850  1.00  0.00     0.211 C 
BRANCH  15  16
HETATM   16  O   UNL     1     -44.657 -55.676  14.390  1.00  0.00    -0.396 OA
HETATM   17  H   UNL     1     -45.231 -55.893  15.145  1.00  0.00     0.209 HD
ENDBRANCH  15  16
ENDBRANCH   8  15
BRANCH   4  18
HETATM   18  N   UNL     1     -40.932 -51.530  11.191  1.00  0.00    -0.274 NA
HETATM   19  H   UNL     1     -40.754 -50.629  11.615  1.00  0.00     0.127 HD
HETATM   20  H   UNL     1     -41.429 -51.533  10.310  1.00  0.00     0.127 HD
ENDBRANCH   4  18
BRANCH   1  21
HETATM   21  O   UNL     1     -44.757 -53.829  12.421  1.00  0.00    -0.340 OA
HETATM   22  C   UNL     1     -45.671 -52.743  12.560  1.00  0.00     0.211 C 
ENDBRANCH   1  21
TORSDOF 5
ENDMDL
MODEL 4
REMARK VINA RESULT:      -5.5      7.339      8.930
REMARK  5 active torsions:
REMARK  status: ('A' for Active; 'I' for Inactive)
REMARK    1  A    between atoms: O_2  and  C_3 
REMARK    2  A    between atoms: C_6  and  N_7 
REMARK    3  A    between atoms: C_10  and  N_11 
REMARK    4  A    between atoms: C_17  and  C_18 
REMARK    5  A    between atoms: C_18  and  O_19 
ROOT
HETATM    1  C   UNL     1     -42.690 -47.008   9.580  1.00  0.00     0.156 A 
HETATM    2  N   UNL     1     -42.141 -48.227   9.668  1.00  0.00    -0.313 N 
ATOM      3  HN  UNL     1     -42.406 -48.990   9.045  1.00  0.00     0.170 HD
HETATM    4  C   UNL     1     -41.233 -48.375  10.617  1.00  0.00     0.158 A 
HETATM    5  N   UNL     1     -40.878 -47.426  11.473  1.00  0.00    -0.318 N 
ATOM      6  HN  UNL     1     -40.176 -47.620  12.188  1.00  0.00     0.170 HD
HETATM    7  C   UNL     1     -41.447 -46.203  11.398  1.00  0.00     0.118 A 
HETATM    8  C   UNL     1     -42.412 -45.937  10.418  1.00  0.00     0.060 A 
ENDROOT
BRANCH   7   9
HETATM    9  N   UNL     1     -40.960 -45.289  12.301  1.00  0.00    -0.363 N 
HETATM   10  C   UNL     1     -39.934 -44.264  12.120  1.00  0.00     0.150 C 
HETATM   11  C   UNL     1     -38.807 -44.527  13.130  1.00  0.00     0.187 C 
HETATM   12  O   UNL     1     -39.313 -44.490  14.477  1.00  0.00    -0.388 OA
HETATM   13  C   UNL     1     -40.358 -45.470  14.661  1.00  0.00     0.187 C 
HETATM   14  C   UNL     1     -41.519 -45.273  13.667  1.00  0.00     0.150 C 
ENDBRANCH   7   9
BRANCH   8  15
HETATM   15  C   UNL     1     -43.022 -44.573  10.227  1.00  0.00     0.211 C 
BRANCH  15  16
HETATM   16  O   UNL     1     -44.154 -44.429   9.371  1.00  0.00    -0.396 OA
HETATM   17  H   UNL     1     -44.725 -45.210   9.487  1.00  0.00     0.209 HD
ENDBRANCH  15  16
ENDBRANCH   8  15
BRANCH   4  18
HETATM   18  N   UNL     1     -40.644 -49.617  10.745  1.00  0.00    -0.274 NA
HETATM   19  H   UNL     1     -40.734 -49.937  11.700  1.00  0.00     0.127 HD
HETATM   20  H   UNL     1     -39.710 -49.584  10.357  1.00  0.00     0.127 HD
ENDBRANCH   4  18
BRANCH   1  21
HETATM   21  O   UNL     1     -43.636 -46.823   8.583  1.00  0.00    -0.340 OA
HETATM   22  C   UNL     1     -43.639 -47.874   7.620  1.00  0.00     0.211 C 
ENDBRANCH   1  21
TORSDOF 5
ENDMDL
MODEL 5
REMARK VINA RESULT:      -5.4      1.911      2.003
REMARK  5 active torsions:
REMARK  status: ('A' for Active; 'I' for Inactive)
REMARK    1  A    between atoms: O_2  and  C_3 
REMARK    2  A    between atoms: C_6  and  N_7 
REMARK    3  A    between atoms: C_10  and  N_11 
REMARK    4  A    between atoms: C_17  and  C_18 
REMARK    5  A    between atoms: C_18  and  O_19 
ROOT
HETATM    1  C   UNL     1     -45.598 -51.526  14.487  1.00  0.00     0.156 A 
HETATM    2  N   UNL     1     -46.508 -51.683  13.516  1.00  0.00    -0.313 N 
ATOM      3  HN  UNL     1     -47.482 -51.402  13.632  1.00  0.00     0.170 HD
HETATM    4  C   UNL     1     -46.059 -52.224  12.397  1.00  0.00     0.158 A 
HETATM    5  N   UNL     1     -44.812 -52.636  12.208  1.00  0.00    -0.318 N 
ATOM      6  HN  UNL     1     -44.542 -53.057  11.318  1.00  0.00     0.170 HD
HETATM    7  C   UNL     1     -43.899 -52.498  13.194  1.00  0.00     0.118 A 
HETATM    8  C   UNL     1     -44.270 -51.923  14.417  1.00  0.00     0.060 A 
ENDROOT
BRANCH   7   9
HETATM    9  N   UNL     1     -42.632 -52.910  12.862  1.00  0.00    -0.363 N 
HETATM   10  C   UNL     1     -41.953 -54.165  13.179  1.00  0.00     0.150 C 
HETATM   11  C   UNL     1     -40.677 -53.836  13.967  1.00  0.00     0.187 C 
HETATM   12  O   UNL     1     -39.809 -52.984  13.197  1.00  0.00    -0.388 OA
HETATM   13  C   UNL     1     -40.480 -51.756  12.840  1.00  0.00     0.187 C 
HETATM   14  C   UNL     1     -41.782 -52.013  12.056  1.00  0.00     0.150 C 
ENDBRANCH   7   9
BRANCH   8  15
HETATM   15  C   UNL     1     -43.283 -51.663  15.525  1.00  0.00     0.211 C 
BRANCH  15  16
HETATM   16  O   UNL     1     -43.554 -52.167  16.833  1.00  0.00    -0.396 OA
HETATM   17  H   UNL     1     -42.712 -52.445  17.233  1.00  0.00     0.209 HD
ENDBRANCH  15  16
ENDBRANCH   8  15
BRANCH   4  18
HETATM   18  N   UNL     1     -46.964 -52.405  11.371  1.00  0.00    -0.274 NA
HETATM   19  H   UNL     1     -47.537 -51.577  11.275  1.00  0.00     0.127 HD
HETATM   20  H   UNL     1     -47.447 -53.284  11.504  1.00  0.00     0.127 HD
ENDBRANCH   4  18
BRANCH   1  21
HETATM   21  O   UNL     1     -46.041 -50.948  15.667  1.00  0.00    -0.340 OA
HETATM   22  C   UNL     1     -47.293 -51.471  16.104  1.00  0.00     0.211 C 
ENDBRANCH   1  21
TORSDOF 5
ENDMDL
MODEL 6
REMARK VINA RESULT:      -5.3      1.799      4.862
REMARK  5 active torsions:
REMARK  status: ('A' for Active; 'I' for Inactive)
REMARK    1  A    between atoms: O_2  and  C_3 
REMARK    2  A    between atoms: C_6  and  N_7 
REMARK    3  A    between atoms: C_10  and  N_11 
REMARK    4  A    between atoms: C_17  and  C_18 
REMARK    5  A    between atoms: C_18  and  O_19 
ROOT
HETATM    1  C   UNL     1     -41.115 -54.089  14.828  1.00  0.00     0.156 A 
HETATM    2  N   UNL     1     -40.436 -53.919  13.686  1.00  0.00    -0.313 N 
ATOM      3  HN  UNL     1     -39.422 -54.025  13.635  1.00  0.00     0.170 HD
HETATM    4  C   UNL     1     -41.166 -53.608  12.629  1.00  0.00     0.158 A 
HETATM    5  N   UNL     1     -42.480 -53.427  12.650  1.00  0.00    -0.318 N 
ATOM      6  HN  UNL     1     -42.974 -53.175  11.794  1.00  0.00     0.170 HD
HETATM    7  C   UNL     1     -43.163 -53.577  13.806  1.00  0.00     0.118 A 
HETATM    8  C   UNL     1     -42.484 -53.921  14.982  1.00  0.00     0.060 A 
ENDROOT
BRANCH   7   9
HETATM    9  N   UNL     1     -44.523 -53.418  13.691  1.00  0.00    -0.363 N 
HETATM   10  C   UNL     1     -45.313 -52.189  13.668  1.00  0.00     0.150 C 
HETATM   11  C   UNL     1     -46.315 -52.240  14.830  1.00  0.00     0.187 C 
HETATM   12  O   UNL     1     -47.177 -53.386  14.710  1.00  0.00    -0.388 OA
HETATM   13  C   UNL     1     -46.408 -54.608  14.689  1.00  0.00     0.187 C 
HETATM   14  C   UNL     1     -45.369 -54.620  13.551  1.00  0.00     0.150 C 
ENDBRANCH   7   9
BRANCH   8  15
HETATM   15  C   UNL     1     -43.196 -54.186  16.284  1.00  0.00     0.211 C 
BRANCH  15  16
HETATM   16  O   UNL     1     -43.131 -55.489  16.861  1.00  0.00    -0.396 OA
HETATM   17  H   UNL     1     -42.193 -55.730  16.965  1.00  0.00     0.209 HD
ENDBRANCH  15  16
ENDBRANCH   8  15
BRANCH   4  18
HETATM   18  N   UNL     1     -40.504 -53.421  11.432  1.00  0.00    -0.274 NA
HETATM   19  H   UNL     1     -41.172 -53.177  10.712  1.00  0.00     0.127 HD
HETATM   20  H   UNL     1     -39.907 -54.218  11.254  1.00  0.00     0.127 HD
ENDBRANCH   4  18
BRANCH   1  21
HETATM   21  O   UNL     1     -40.373 -54.430  15.949  1.00  0.00    -0.340 OA
HETATM   22  C   UNL     1     -39.257 -55.263  15.641  1.00  0.00     0.211 C 
ENDBRANCH   1  21
TORSDOF 5
ENDMDL
MODEL 7
REMARK VINA RESULT:      -5.3      3.078      5.320
REMARK  5 active torsions:
REMARK  status: ('A' for Active; 'I' for Inactive)
REMARK    1  A    between atoms: O_2  and  C_3 
REMARK    2  A    between atoms: C_6  and  N_7 
REMARK    3  A    between atoms: C_10  and  N_11 
REMARK    4  A    between atoms: C_17  and  C_18 
REMARK    5  A    between atoms: C_18  and  O_19 
ROOT
HETATM    1  C   UNL     1     -40.682 -52.690  12.668  1.00  0.00     0.156 A 
HETATM    2  N   UNL     1     -41.885 -53.273  12.578  1.00  0.00    -0.313 N 
ATOM      3  HN  UNL     1     -42.013 -54.278  12.703  1.00  0.00     0.170 HD
HETATM    4  C   UNL     1     -42.894 -52.461  12.316  1.00  0.00     0.158 A 
HETATM    5  N   UNL     1     -42.775 -51.155  12.112  1.00  0.00    -0.318 N 
ATOM      6  HN  UNL     1     -43.601 -50.594  11.903  1.00  0.00     0.170 HD
HETATM    7  C   UNL     1     -41.560 -50.569  12.183  1.00  0.00     0.118 A 
HETATM    8  C   UNL     1     -40.426 -51.340  12.469  1.00  0.00     0.060 A 
ENDROOT
BRANCH   7   9
HETATM    9  N   UNL     1     -41.571 -49.207  12.009  1.00  0.00    -0.363 N 
HETATM   10  C   UNL     1     -41.716 -48.147  13.004  1.00  0.00     0.150 C 
HETATM   11  C   UNL     1     -42.949 -47.308  12.637  1.00  0.00     0.187 C 
HETATM   12  O   UNL     1     -42.805 -46.738  11.323  1.00  0.00    -0.388 OA
HETATM   13  C   UNL     1     -42.618 -47.772  10.332  1.00  0.00     0.187 C 
HETATM   14  C   UNL     1     -41.401 -48.664  10.646  1.00  0.00     0.150 C 
ENDBRANCH   7   9
BRANCH   8  15
HETATM   15  C   UNL     1     -39.056 -50.736  12.645  1.00  0.00     0.211 C 
BRANCH  15  16
HETATM   16  O   UNL     1     -37.958 -51.275  11.910  1.00  0.00    -0.396 OA
HETATM   17  H   UNL     1     -37.147 -50.819  12.197  1.00  0.00     0.209 HD
ENDBRANCH  15  16
ENDBRANCH   8  15
BRANCH   4  18
HETATM   18  N   UNL     1     -44.151 -53.022  12.212  1.00  0.00    -0.274 NA
HETATM   19  H   UNL     1     -44.132 -53.964  12.581  1.00  0.00     0.127 HD
HETATM   20  H   UNL     1     -44.490 -52.906  11.265  1.00  0.00     0.127 HD
ENDBRANCH   4  18
BRANCH   1  21
HETATM   21  O   UNL     1     -39.608 -53.518  12.956  1.00  0.00    -0.340 OA
HETATM   22  C   UNL     1     -39.842 -54.355  14.087  1.00  0.00     0.211 C 
ENDBRANCH   1  21
TORSDOF 5
ENDMDL
MODEL 8
REMARK VINA RESULT:      -5.3      5.824      7.268
REMARK  5 active torsions:
REMARK  status: ('A' for Active; 'I' for Inactive)
REMARK    1  A    between atoms: O_2  and  C_3 
REMARK    2  A    between atoms: C_6  and  N_7 
REMARK    3  A    between atoms: C_10  and  N_11 
REMARK    4  A    between atoms: C_17  and  C_18 
REMARK    5  A    between atoms: C_18  and  O_19 
ROOT
HETATM    1  C   UNL     1     -42.138 -47.389  10.459  1.00  0.00     0.156 A 
HETATM    2  N   UNL     1     -41.714 -46.226   9.948  1.00  0.00    -0.313 N 
ATOM      3  HN  UNL     1     -42.311 -45.636   9.368  1.00  0.00     0.170 HD
HETATM    4  C   UNL     1     -40.470 -45.892  10.245  1.00  0.00     0.158 A 
HETATM    5  N   UNL     1     -39.644 -46.639  10.967  1.00  0.00    -0.318 N 
ATOM      6  HN  UNL     1     -38.691 -46.320  11.145  1.00  0.00     0.170 HD
HETATM    7  C   UNL     1     -40.064 -47.822  11.465  1.00  0.00     0.118 A 
HETATM    8  C   UNL     1     -41.371 -48.262  11.218  1.00  0.00     0.060 A 
ENDROOT
BRANCH   7   9
HETATM    9  N   UNL     1     -39.138 -48.478  12.239  1.00  0.00    -0.363 N 
HETATM   10  C   UNL     1     -38.172 -49.505  11.856  1.00  0.00     0.150 C 
HETATM   11  C   UNL     1     -38.446 -50.761  12.698  1.00  0.00     0.187 C 
HETATM   12  O   UNL     1     -38.329 -50.467  14.102  1.00  0.00    -0.388 OA
HETATM   13  C   UNL     1     -39.249 -49.423  14.488  1.00  0.00     0.187 C 
HETATM   14  C   UNL     1     -39.038 -48.134  13.671  1.00  0.00     0.150 C 
ENDBRANCH   7   9
BRANCH   8  15
HETATM   15  C   UNL     1     -41.928 -49.529  11.814  1.00  0.00     0.211 C 
BRANCH  15  16
HETATM   16  O   UNL     1     -43.298 -49.568  12.213  1.00  0.00    -0.396 OA
HETATM   17  H   UNL     1     -43.833 -49.826  11.441  1.00  0.00     0.209 HD
ENDBRANCH  15  16
ENDBRANCH   8  15
BRANCH   4  18
HETATM   18  N   UNL     1     -39.992 -44.702   9.737  1.00  0.00    -0.274 NA
HETATM   19  H   UNL     1     -40.616 -43.949   9.995  1.00  0.00     0.127 HD
HETATM   20  H   UNL     1     -39.794 -44.816   8.751  1.00  0.00     0.127 HD
ENDBRANCH   4  18
BRANCH   1  21
HETATM   21  O   UNL     1     -43.445 -47.755  10.172  1.00  0.00    -0.340 OA
HETATM   22  C   UNL     1     -43.812 -47.482   8.822  1.00  0.00     0.211 C 
ENDBRANCH   1  21
TORSDOF 5
ENDMDL
MODEL 9
REMARK VINA RESULT:      -5.3      2.445      4.748
REMARK  5 active torsions:
REMARK  status: ('A' for Active; 'I' for Inactive)
REMARK    1  A    between atoms: O_2  and  C_3 
REMARK    2  A    between atoms: C_6  and  N_7 
REMARK    3  A    between atoms: C_10  and  N_11 
REMARK    4  A    between atoms: C_17  and  C_18 
REMARK    5  A    between atoms: C_18  and  O_19 
ROOT
HETATM    1  C   UNL     1     -41.626 -53.734  12.925  1.00  0.00     0.156 A 
HETATM    2  N   UNL     1     -42.904 -53.762  12.523  1.00  0.00    -0.313 N 
ATOM      3  HN  UNL     1     -43.194 -53.418  11.608  1.00  0.00     0.170 HD
HETATM    4  C   UNL     1     -43.764 -54.265  13.392  1.00  0.00     0.158 A 
HETATM    5  N   UNL     1     -43.442 -54.694  14.606  1.00  0.00    -0.318 N 
ATOM      6  HN  UNL     1     -44.165 -55.059  15.226  1.00  0.00     0.170 HD
HETATM    7  C   UNL     1     -42.157 -54.646  15.020  1.00  0.00     0.118 A 
HETATM    8  C   UNL     1     -41.165 -54.142  14.169  1.00  0.00     0.060 A 
ENDROOT
BRANCH   7   9
HETATM    9  N   UNL     1     -41.941 -55.168  16.272  1.00  0.00    -0.363 N 
HETATM   10  C   UNL     1     -41.774 -54.474  17.548  1.00  0.00     0.150 C 
HETATM   11  C   UNL     1     -40.404 -54.855  18.127  1.00  0.00     0.187 C 
HETATM   12  O   UNL     1     -40.311 -56.279  18.320  1.00  0.00    -0.388 OA
HETATM   13  C   UNL     1     -40.515 -56.981  17.074  1.00  0.00     0.187 C 
HETATM   14  C   UNL     1     -41.870 -56.634  16.428  1.00  0.00     0.150 C 
ENDBRANCH   7   9
BRANCH   8  15
HETATM   15  C   UNL     1     -39.704 -54.140  14.537  1.00  0.00     0.211 C 
BRANCH  15  16
HETATM   16  O   UNL     1     -38.740 -54.554  13.569  1.00  0.00    -0.396 OA
HETATM   17  H   UNL     1     -38.765 -55.525  13.511  1.00  0.00     0.209 HD
ENDBRANCH  15  16
ENDBRANCH   8  15
BRANCH   4  18
HETATM   18  N   UNL     1     -45.092 -54.311  13.018  1.00  0.00    -0.274 NA
HETATM   19  H   UNL     1     -45.323 -55.245  12.705  1.00  0.00     0.127 HD
HETATM   20  H   UNL     1     -45.284 -53.551  12.378  1.00  0.00     0.127 HD
ENDBRANCH   4  18
BRANCH   1  21
HETATM   21  O   UNL     1     -40.702 -53.222  12.027  1.00  0.00    -0.340 OA
HETATM   22  C   UNL     1     -40.816 -51.811  11.859  1.00  0.00     0.211 C 
ENDBRANCH   1  21
TORSDOF 5
ENDMDL
