MODEL 1
REMARK VINA RESULT:      -6.6      0.000      0.000
REMARK  6 active torsions:
REMARK  status: ('A' for Active; 'I' for Inactive)
REMARK    1  A    between atoms: O_1  and  C_2 
REMARK    2  A    between atoms: C_2  and  C_3 
REMARK    3  A    between atoms: N_12  and  C_13 
REMARK    4  A    between atoms: C_13  and  C_14 
REMARK    5  A    between atoms: C_14  and  O_15 
REMARK    6  A    between atoms: C_14  and  C_16 
ROOT
HETATM    1  C   UNL     1     -39.282 -49.496  12.048  1.00  0.00     0.108 A 
HETATM    2  N   UNL     1     -39.337 -48.345  11.402  1.00  0.00    -0.342 N 
ATOM      3  HN  UNL     1     -38.550 -47.804  11.046  1.00  0.00     0.167 HD
HETATM    4  C   UNL     1     -40.665 -48.027  11.309  1.00  0.00     0.060 A 
HETATM    5  C   UNL     1     -41.272 -46.926  10.683  1.00  0.00     0.032 A 
HETATM    6  C   UNL     1     -42.666 -46.817  10.707  1.00  0.00     0.002 A 
HETATM    7  C   UNL     1     -43.442 -47.785  11.344  1.00  0.00     0.002 A 
HETATM    8  C   UNL     1     -42.854 -48.892  11.972  1.00  0.00     0.032 A 
HETATM    9  C   UNL     1     -41.455 -48.986  11.938  1.00  0.00     0.062 A 
HETATM   10  N   UNL     1     -40.547 -49.911  12.417  1.00  0.00    -0.330 N 
ENDROOT
BRANCH  10  11
HETATM   11  C   UNL     1     -40.894 -51.156  13.088  1.00  0.00     0.167 C 
BRANCH  11  12
HETATM   12  C   UNL     1     -41.461 -52.235  12.147  1.00  0.00     0.169 C 
BRANCH  12  13
HETATM   13  O   UNL     1     -40.462 -53.105  11.612  1.00  0.00    -0.389 OA
HETATM   14  H   UNL     1     -40.858 -53.656  10.920  1.00  0.00     0.210 HD
ENDBRANCH  12  13
BRANCH  12  15
HETATM   15  C   UNL     1     -42.478 -53.125  12.840  1.00  0.00    -0.025 A 
HETATM   16  C   UNL     1     -43.828 -53.104  12.453  1.00  0.00     0.010 A 
HETATM   17  C   UNL     1     -44.765 -53.941  13.068  1.00  0.00     0.004 A 
HETATM   18  C   UNL     1     -44.365 -54.811  14.080  1.00  0.00     0.042 A 
HETATM   19  C   UNL     1     -43.032 -54.841  14.464  1.00  0.00     0.117 A 
HETATM   20  F   UNL     1     -42.641 -55.680  15.431  1.00  0.00    -0.206 F 
HETATM   21  C   UNL     1     -42.089 -54.013  13.857  1.00  0.00     0.052 A 
ENDBRANCH  12  15
ENDBRANCH  11  12
ENDBRANCH  10  11
BRANCH   1  22
HETATM   22  C   UNL     1     -38.020 -50.230  12.341  1.00  0.00     0.240 C 
BRANCH  22  23
HETATM   23  O   UNL     1     -37.867 -51.254  11.368  1.00  0.00    -0.393 OA
HETATM   24  H   UNL     1     -37.697 -50.807  10.520  1.00  0.00     0.209 HD
ENDBRANCH  22  23
ENDBRANCH   1  22
TORSDOF 6
ENDMDL
MODEL 2
REMARK VINA RESULT:      -6.2      3.010      5.520
REMARK  6 active torsions:
REMARK  status: ('A' for Active; 'I' for Inactive)
REMARK    1  A    between atoms: O_1  and  C_2 
REMARK    2  A    between atoms: C_2  and  C_3 
REMARK    3  A    between atoms: N_12  and  C_13 
REMARK    4  A    between atoms: C_13  and  C_14 
REMARK    5  A    between atoms: C_14  and  O_15 
REMARK    6  A    between atoms: C_14  and  C_16 
ROOT
HETATM    1  C   UNL     1     -42.305 -53.245  12.970  1.00  0.00     0.108 A 
HETATM    2  N   UNL     1     -43.390 -53.417  12.236  1.00  0.00    -0.342 N 
ATOM      3  HN  UNL     1     -43.467 -53.951  11.370  1.00  0.00     0.167 HD
HETATM    4  C   UNL     1     -44.390 -52.734  12.874  1.00  0.00     0.060 A 
HETATM    5  C   UNL     1     -45.748 -52.626  12.534  1.00  0.00     0.032 A 
HETATM    6  C   UNL     1     -46.594 -51.874  13.355  1.00  0.00     0.002 A 
HETATM    7  C   UNL     1     -46.097 -51.239  14.492  1.00  0.00     0.002 A 
HETATM    8  C   UNL     1     -44.745 -51.337  14.849  1.00  0.00     0.032 A 
HETATM    9  C   UNL     1     -43.911 -52.096  14.015  1.00  0.00     0.062 A 
HETATM   10  N   UNL     1     -42.569 -52.425  14.050  1.00  0.00    -0.330 N 
ENDROOT
BRANCH  10  11
HETATM   11  C   UNL     1     -41.643 -52.057  15.110  1.00  0.00     0.167 C 
BRANCH  11  12
HETATM   12  C   UNL     1     -41.113 -50.615  15.004  1.00  0.00     0.169 C 
BRANCH  12  13
HETATM   13  O   UNL     1     -40.398 -50.186  16.164  1.00  0.00    -0.389 OA
HETATM   14  H   UNL     1     -39.463 -50.075  15.939  1.00  0.00     0.210 HD
ENDBRANCH  12  13
BRANCH  12  15
HETATM   15  C   UNL     1     -40.169 -50.435  13.829  1.00  0.00    -0.025 A 
HETATM   16  C   UNL     1     -40.561 -49.688  12.705  1.00  0.00     0.010 A 
HETATM   17  C   UNL     1     -39.686 -49.495  11.631  1.00  0.00     0.004 A 
HETATM   18  C   UNL     1     -38.407 -50.047  11.663  1.00  0.00     0.042 A 
HETATM   19  C   UNL     1     -38.012 -50.782  12.772  1.00  0.00     0.117 A 
HETATM   20  F   UNL     1     -36.782 -51.309  12.812  1.00  0.00    -0.206 F 
HETATM   21  C   UNL     1     -38.874 -50.979  13.849  1.00  0.00     0.052 A 
ENDBRANCH  12  15
ENDBRANCH  11  12
ENDBRANCH  10  11
BRANCH   1  22
HETATM   22  C   UNL     1     -40.981 -53.851  12.657  1.00  0.00     0.240 C 
BRANCH  22  23
HETATM   23  O   UNL     1     -40.514 -53.290  11.438  1.00  0.00    -0.393 OA
HETATM   24  H   UNL     1     -41.143 -53.565  10.748  1.00  0.00     0.209 HD
ENDBRANCH  22  23
ENDBRANCH   1  22
TORSDOF 6
ENDMDL
MODEL 3
REMARK VINA RESULT:      -6.1      3.340      4.904
REMARK  6 active torsions:
REMARK  status: ('A' for Active; 'I' for Inactive)
REMARK    1  A    between atoms: O_1  and  C_2 
REMARK    2  A    between atoms: C_2  and  C_3 
REMARK    3  A    between atoms: N_12  and  C_13 
REMARK    4  A    between atoms: C_13  and  C_14 
REMARK    5  A    between atoms: C_14  and  O_15 
REMARK    6  A    between atoms: C_14  and  C_16 
ROOT
HETATM    1  C   UNL     1     -42.084 -46.967  10.294  1.00  0.00     0.108 A 
HETATM    2  N   UNL     1     -41.556 -45.769  10.111  1.00  0.00    -0.342 N 
ATOM      3  HN  UNL     1     -41.760 -45.119   9.351  1.00  0.00     0.167 HD
HETATM    4  C   UNL     1     -40.682 -45.579  11.146  1.00  0.00     0.060 A 
HETATM    5  C   UNL     1     -39.891 -44.458  11.444  1.00  0.00     0.032 A 
HETATM    6  C   UNL     1     -39.072 -44.489  12.578  1.00  0.00     0.002 A 
HETATM    7  C   UNL     1     -39.039 -45.617  13.398  1.00  0.00     0.002 A 
HETATM    8  C   UNL     1     -39.824 -46.744  13.117  1.00  0.00     0.032 A 
HETATM    9  C   UNL     1     -40.639 -46.695  11.977  1.00  0.00     0.062 A 
HETATM   10  N   UNL     1     -41.535 -47.578  11.405  1.00  0.00    -0.330 N 
ENDROOT
BRANCH  10  11
HETATM   11  C   UNL     1     -41.906 -48.872  11.958  1.00  0.00     0.167 C 
BRANCH  11  12
HETATM   12  C   UNL     1     -41.032 -50.038  11.461  1.00  0.00     0.169 C 
BRANCH  12  13
HETATM   13  O   UNL     1     -40.570 -49.871  10.119  1.00  0.00    -0.389 OA
HETATM   14  H   UNL     1     -41.330 -49.880   9.518  1.00  0.00     0.210 HD
ENDBRANCH  12  13
BRANCH  12  15
HETATM   15  C   UNL     1     -39.794 -50.235  12.318  1.00  0.00    -0.025 A 
HETATM   16  C   UNL     1     -38.513 -50.014  11.786  1.00  0.00     0.010 A 
HETATM   17  C   UNL     1     -37.370 -50.167  12.578  1.00  0.00     0.004 A 
HETATM   18  C   UNL     1     -37.492 -50.544  13.914  1.00  0.00     0.042 A 
HETATM   19  C   UNL     1     -38.755 -50.759  14.447  1.00  0.00     0.117 A 
HETATM   20  F   UNL     1     -38.878 -51.114  15.732  1.00  0.00    -0.206 F 
HETATM   21  C   UNL     1     -39.900 -50.608  13.669  1.00  0.00     0.052 A 
ENDBRANCH  12  15
ENDBRANCH  11  12
ENDBRANCH  10  11
BRANCH   1  22
HETATM   22  C   UNL     1     -43.121 -47.567   9.410  1.00  0.00     0.240 C 
BRANCH  22  23
HETATM   23  O   UNL     1     -42.461 -48.293   8.382  1.00  0.00    -0.393 OA
HETATM   24  H   UNL     1     -42.924 -48.081   7.553  1.00  0.00     0.209 HD
ENDBRANCH  22  23
ENDBRANCH   1  22
TORSDOF 6
ENDMDL
MODEL 4
REMARK VINA RESULT:      -6.0      3.092      5.936
REMARK  6 active torsions:
REMARK  status: ('A' for Active; 'I' for Inactive)
REMARK    1  A    between atoms: O_1  and  C_2 
REMARK    2  A    between atoms: C_2  and  C_3 
REMARK    3  A    between atoms: N_12  and  C_13 
REMARK    4  A    between atoms: C_13  and  C_14 
REMARK    5  A    between atoms: C_14  and  O_15 
REMARK    6  A    between atoms: C_14  and  C_16 
ROOT
HETATM    1  C   UNL     1     -42.236 -53.475  13.021  1.00  0.00     0.108 A 
HETATM    2  N   UNL     1     -43.378 -54.104  12.807  1.00  0.00    -0.342 N 
ATOM      3  HN  UNL     1     -43.499 -55.035  12.409  1.00  0.00     0.167 HD
HETATM    4  C   UNL     1     -44.363 -53.252  13.227  1.00  0.00     0.060 A 
HETATM    5  C   UNL     1     -45.753 -53.449  13.255  1.00  0.00     0.032 A 
HETATM    6  C   UNL     1     -46.572 -52.427  13.745  1.00  0.00     0.002 A 
HETATM    7  C   UNL     1     -46.017 -51.229  14.198  1.00  0.00     0.002 A 
HETATM    8  C   UNL     1     -44.632 -51.016  14.180  1.00  0.00     0.032 A 
HETATM    9  C   UNL     1     -43.826 -52.052  13.685  1.00  0.00     0.062 A 
HETATM   10  N   UNL     1     -42.461 -52.211  13.531  1.00  0.00    -0.330 N 
ENDROOT
BRANCH  10  11
HETATM   11  C   UNL     1     -41.453 -51.248  13.949  1.00  0.00     0.167 C 
BRANCH  11  12
HETATM   12  C   UNL     1     -41.034 -50.262  12.841  1.00  0.00     0.169 C 
BRANCH  12  13
HETATM   13  O   UNL     1     -41.232 -50.772  11.522  1.00  0.00    -0.389 OA
HETATM   14  H   UNL     1     -40.723 -50.238  10.895  1.00  0.00     0.210 HD
ENDBRANCH  12  13
BRANCH  12  15
HETATM   15  C   UNL     1     -41.801 -48.954  12.915  1.00  0.00    -0.025 A 
HETATM   16  C   UNL     1     -41.899 -48.250  14.127  1.00  0.00     0.010 A 
HETATM   17  C   UNL     1     -42.581 -47.031  14.195  1.00  0.00     0.004 A 
HETATM   18  C   UNL     1     -43.176 -46.498  13.054  1.00  0.00     0.042 A 
HETATM   19  C   UNL     1     -43.079 -47.186  11.853  1.00  0.00     0.117 A 
HETATM   20  F   UNL     1     -43.643 -46.675  10.751  1.00  0.00    -0.206 F 
HETATM   21  C   UNL     1     -42.400 -48.400  11.772  1.00  0.00     0.052 A 
ENDBRANCH  12  15
ENDBRANCH  11  12
ENDBRANCH  10  11
BRANCH   1  22
HETATM   22  C   UNL     1     -40.895 -54.058  12.737  1.00  0.00     0.240 C 
BRANCH  22  23
HETATM   23  O   UNL     1     -40.477 -53.604  11.457  1.00  0.00    -0.393 OA
HETATM   24  H   UNL     1     -40.477 -52.632  11.495  1.00  0.00     0.209 HD
ENDBRANCH  22  23
ENDBRANCH   1  22
TORSDOF 6
ENDMDL
MODEL 5
REMARK VINA RESULT:      -6.0      1.600      1.909
REMARK  6 active torsions:
REMARK  status: ('A' for Active; 'I' for Inactive)
REMARK    1  A    between atoms: O_1  and  C_2 
REMARK    2  A    between atoms: C_2  and  C_3 
REMARK    3  A    between atoms: N_12  and  C_13 
REMARK    4  A    between atoms: C_13  and  C_14 
REMARK    5  A    between atoms: C_14  and  O_15 
REMARK    6  A    between atoms: C_14  and  C_16 
ROOT
HETATM    1  C   UNL     1     -39.596 -49.740  12.149  1.00  0.00     0.108 A 
HETATM    2  N   UNL     1     -39.433 -48.616  11.473  1.00  0.00    -0.342 N 
ATOM      3  HN  UNL     1     -38.556 -48.234  11.120  1.00  0.00     0.167 HD
HETATM    4  C   UNL     1     -40.681 -48.069  11.343  1.00  0.00     0.060 A 
HETATM    5  C   UNL     1     -41.070 -46.896  10.677  1.00  0.00     0.032 A 
HETATM    6  C   UNL     1     -42.423 -46.540  10.668  1.00  0.00     0.002 A 
HETATM    7  C   UNL     1     -43.370 -47.335  11.313  1.00  0.00     0.002 A 
HETATM    8  C   UNL     1     -43.000 -48.511  11.981  1.00  0.00     0.032 A 
HETATM    9  C   UNL     1     -41.640 -48.853  11.979  1.00  0.00     0.062 A 
HETATM   10  N   UNL     1     -40.920 -49.912  12.501  1.00  0.00    -0.330 N 
ENDROOT
BRANCH  10  11
HETATM   11  C   UNL     1     -41.495 -51.055  13.195  1.00  0.00     0.167 C 
BRANCH  11  12
HETATM   12  C   UNL     1     -42.159 -52.084  12.260  1.00  0.00     0.169 C 
BRANCH  12  13
HETATM   13  O   UNL     1     -41.381 -53.267  12.073  1.00  0.00    -0.389 OA
HETATM   14  H   UNL     1     -40.497 -53.020  11.762  1.00  0.00     0.210 HD
ENDBRANCH  12  13
BRANCH  12  15
HETATM   15  C   UNL     1     -43.513 -52.538  12.776  1.00  0.00    -0.025 A 
HETATM   16  C   UNL     1     -43.818 -53.906  12.875  1.00  0.00     0.010 A 
HETATM   17  C   UNL     1     -45.053 -54.331  13.375  1.00  0.00     0.004 A 
HETATM   18  C   UNL     1     -46.002 -53.396  13.782  1.00  0.00     0.042 A 
HETATM   19  C   UNL     1     -45.705 -52.043  13.691  1.00  0.00     0.117 A 
HETATM   20  F   UNL     1     -46.611 -51.140  14.086  1.00  0.00    -0.206 F 
HETATM   21  C   UNL     1     -44.478 -51.607  13.196  1.00  0.00     0.052 A 
ENDBRANCH  12  15
ENDBRANCH  11  12
ENDBRANCH  10  11
BRANCH   1  22
HETATM   22  C   UNL     1     -38.490 -50.678  12.486  1.00  0.00     0.240 C 
BRANCH  22  23
HETATM   23  O   UNL     1     -37.858 -51.073  11.276  1.00  0.00    -0.393 OA
HETATM   24  H   UNL     1     -38.267 -50.547  10.567  1.00  0.00     0.209 HD
ENDBRANCH  22  23
ENDBRANCH   1  22
TORSDOF 6
ENDMDL
MODEL 6
REMARK VINA RESULT:      -6.0      3.469      5.732
REMARK  6 active torsions:
REMARK  status: ('A' for Active; 'I' for Inactive)
REMARK    1  A    between atoms: O_1  and  C_2 
REMARK    2  A    between atoms: C_2  and  C_3 
REMARK    3  A    between atoms: N_12  and  C_13 
REMARK    4  A    between atoms: C_13  and  C_14 
REMARK    5  A    between atoms: C_14  and  O_15 
REMARK    6  A    between atoms: C_14  and  C_16 
ROOT
HETATM    1  C   UNL     1     -42.262 -52.779  12.579  1.00  0.00     0.108 A 
HETATM    2  N   UNL     1     -43.523 -52.835  12.188  1.00  0.00    -0.342 N 
ATOM      3  HN  UNL     1     -43.894 -52.571  11.276  1.00  0.00     0.167 HD
HETATM    4  C   UNL     1     -44.229 -53.320  13.256  1.00  0.00     0.060 A 
HETATM    5  C   UNL     1     -45.599 -53.607  13.357  1.00  0.00     0.032 A 
HETATM    6  C   UNL     1     -46.098 -54.113  14.561  1.00  0.00     0.002 A 
HETATM    7  C   UNL     1     -45.249 -54.327  15.647  1.00  0.00     0.002 A 
HETATM    8  C   UNL     1     -43.877 -54.048  15.564  1.00  0.00     0.032 A 
HETATM    9  C   UNL     1     -43.394 -53.542  14.348  1.00  0.00     0.062 A 
HETATM   10  N   UNL     1     -42.140 -53.175  13.897  1.00  0.00    -0.330 N 
ENDROOT
BRANCH  10  11
HETATM   11  C   UNL     1     -40.905 -53.304  14.657  1.00  0.00     0.167 C 
BRANCH  11  12
HETATM   12  C   UNL     1     -40.117 -54.592  14.355  1.00  0.00     0.169 C 
BRANCH  12  13
HETATM   13  O   UNL     1     -38.934 -54.368  13.588  1.00  0.00    -0.389 OA
HETATM   14  H   UNL     1     -38.258 -53.968  14.155  1.00  0.00     0.210 HD
ENDBRANCH  12  13
BRANCH  12  15
HETATM   15  C   UNL     1     -39.679 -55.307  15.621  1.00  0.00    -0.025 A 
HETATM   16  C   UNL     1     -38.316 -55.430  15.937  1.00  0.00     0.010 A 
HETATM   17  C   UNL     1     -37.906 -56.064  17.115  1.00  0.00     0.004 A 
HETATM   18  C   UNL     1     -38.854 -56.584  17.994  1.00  0.00     0.042 A 
HETATM   19  C   UNL     1     -40.202 -56.461  17.691  1.00  0.00     0.117 A 
HETATM   20  F   UNL     1     -41.117 -56.953  18.535  1.00  0.00    -0.206 F 
HETATM   21  C   UNL     1     -40.622 -55.830  16.521  1.00  0.00     0.052 A 
ENDBRANCH  12  15
ENDBRANCH  11  12
ENDBRANCH  10  11
BRANCH   1  22
HETATM   22  C   UNL     1     -41.137 -52.337  11.709  1.00  0.00     0.240 C 
BRANCH  22  23
HETATM   23  O   UNL     1     -40.534 -53.492  11.143  1.00  0.00    -0.393 OA
HETATM   24  H   UNL     1     -39.818 -53.754  11.747  1.00  0.00     0.209 HD
ENDBRANCH  22  23
ENDBRANCH   1  22
TORSDOF 6
ENDMDL
MODEL 7
REMARK VINA RESULT:      -6.0      2.073      3.658
REMARK  6 active torsions:
REMARK  status: ('A' for Active; 'I' for Inactive)
REMARK    1  A    between atoms: O_1  and  C_2 
REMARK    2  A    between atoms: C_2  and  C_3 
REMARK    3  A    between atoms: N_12  and  C_13 
REMARK    4  A    between atoms: C_13  and  C_14 
REMARK    5  A    between atoms: C_14  and  O_15 
REMARK    6  A    between atoms: C_14  and  C_16 
ROOT
HETATM    1  C   UNL     1     -41.152 -49.149  11.392  1.00  0.00     0.108 A 
HETATM    2  N   UNL     1     -39.919 -48.899  10.989  1.00  0.00    -0.342 N 
ATOM      3  HN  UNL     1     -39.629 -48.219  10.286  1.00  0.00     0.167 HD
HETATM    4  C   UNL     1     -39.109 -49.738  11.705  1.00  0.00     0.060 A 
HETATM    5  C   UNL     1     -37.710 -49.850  11.688  1.00  0.00     0.032 A 
HETATM    6  C   UNL     1     -37.094 -50.783  12.528  1.00  0.00     0.002 A 
HETATM    7  C   UNL     1     -37.858 -51.593  13.368  1.00  0.00     0.002 A 
HETATM    8  C   UNL     1     -39.256 -51.494  13.401  1.00  0.00     0.032 A 
HETATM    9  C   UNL     1     -39.856 -50.552  12.553  1.00  0.00     0.062 A 
HETATM   10  N   UNL     1     -41.164 -50.167  12.325  1.00  0.00    -0.330 N 
ENDROOT
BRANCH  10  11
HETATM   11  C   UNL     1     -42.325 -50.678  13.041  1.00  0.00     0.167 C 
BRANCH  11  12
HETATM   12  C   UNL     1     -43.000 -51.881  12.357  1.00  0.00     0.169 C 
BRANCH  12  13
HETATM   13  O   UNL     1     -42.172 -53.043  12.302  1.00  0.00    -0.389 OA
HETATM   14  H   UNL     1     -41.603 -53.066  13.086  1.00  0.00     0.210 HD
ENDBRANCH  12  13
BRANCH  12  15
HETATM   15  C   UNL     1     -44.279 -52.299  13.062  1.00  0.00    -0.025 A 
HETATM   16  C   UNL     1     -45.179 -51.334  13.543  1.00  0.00     0.010 A 
HETATM   17  C   UNL     1     -46.371 -51.713  14.169  1.00  0.00     0.004 A 
HETATM   18  C   UNL     1     -46.681 -53.062  14.323  1.00  0.00     0.042 A 
HETATM   19  C   UNL     1     -45.798 -54.021  13.846  1.00  0.00     0.117 A 
HETATM   20  F   UNL     1     -46.094 -55.319  13.986  1.00  0.00    -0.206 F 
HETATM   21  C   UNL     1     -44.609 -53.656  13.219  1.00  0.00     0.052 A 
ENDBRANCH  12  15
ENDBRANCH  11  12
ENDBRANCH  10  11
BRANCH   1  22
HETATM   22  C   UNL     1     -42.356 -48.429  10.892  1.00  0.00     0.240 C 
BRANCH  22  23
HETATM   23  O   UNL     1     -42.190 -48.202   9.499  1.00  0.00    -0.393 OA
HETATM   24  H   UNL     1     -41.533 -48.850   9.190  1.00  0.00     0.209 HD
ENDBRANCH  22  23
ENDBRANCH   1  22
TORSDOF 6
ENDMDL
MODEL 8
REMARK VINA RESULT:      -5.9      3.259      6.059
REMARK  6 active torsions:
REMARK  status: ('A' for Active; 'I' for Inactive)
REMARK    1  A    between atoms: O_1  and  C_2 
REMARK    2  A    between atoms: C_2  and  C_3 
REMARK    3  A    between atoms: N_12  and  C_13 
REMARK    4  A    between atoms: C_13  and  C_14 
REMARK    5  A    between atoms: C_14  and  O_15 
REMARK    6  A    between atoms: C_14  and  C_16 
ROOT
HETATM    1  C   UNL     1     -42.301 -52.081  12.421  1.00  0.00     0.108 A 
HETATM    2  N   UNL     1     -43.313 -52.817  11.995  1.00  0.00    -0.342 N 
ATOM      3  HN  UNL     1     -43.301 -53.491  11.230  1.00  0.00     0.167 HD
HETATM    4  C   UNL     1     -44.379 -52.489  12.788  1.00  0.00     0.060 A 
HETATM    5  C   UNL     1     -45.683 -53.009  12.781  1.00  0.00     0.032 A 
HETATM    6  C   UNL     1     -46.612 -52.522  13.706  1.00  0.00     0.002 A 
HETATM    7  C   UNL     1     -46.249 -51.533  14.620  1.00  0.00     0.002 A 
HETATM    8  C   UNL     1     -44.951 -51.004  14.644  1.00  0.00     0.032 A 
HETATM    9  C   UNL     1     -44.033 -51.504  13.710  1.00  0.00     0.062 A 
HETATM   10  N   UNL     1     -42.700 -51.247  13.447  1.00  0.00    -0.330 N 
ENDROOT
BRANCH  10  11
HETATM   11  C   UNL     1     -41.856 -50.339  14.209  1.00  0.00     0.167 C 
BRANCH  11  12
HETATM   12  C   UNL     1     -42.318 -48.870  14.163  1.00  0.00     0.169 C 
BRANCH  12  13
HETATM   13  O   UNL     1     -41.601 -48.020  15.058  1.00  0.00    -0.389 OA
HETATM   14  H   UNL     1     -41.325 -47.220  14.585  1.00  0.00     0.210 HD
ENDBRANCH  12  13
BRANCH  12  15
HETATM   15  C   UNL     1     -42.164 -48.263  12.779  1.00  0.00    -0.025 A 
HETATM   16  C   UNL     1     -43.254 -48.215  11.894  1.00  0.00     0.010 A 
HETATM   17  C   UNL     1     -43.126 -47.632  10.629  1.00  0.00     0.004 A 
HETATM   18  C   UNL     1     -41.906 -47.089  10.230  1.00  0.00     0.042 A 
HETATM   19  C   UNL     1     -40.828 -47.128  11.102  1.00  0.00     0.117 A 
HETATM   20  F   UNL     1     -39.655 -46.602  10.726  1.00  0.00    -0.206 F 
HETATM   21  C   UNL     1     -40.943 -47.704  12.365  1.00  0.00     0.052 A 
ENDBRANCH  12  15
ENDBRANCH  11  12
ENDBRANCH  10  11
BRANCH   1  22
HETATM   22  C   UNL     1     -40.925 -52.146  11.855  1.00  0.00     0.240 C 
BRANCH  22  23
HETATM   23  O   UNL     1     -40.632 -53.503  11.555  1.00  0.00    -0.393 OA
HETATM   24  H   UNL     1     -41.144 -54.042  12.183  1.00  0.00     0.209 HD
ENDBRANCH  22  23
ENDBRANCH   1  22
TORSDOF 6
ENDMDL
MODEL 9
REMARK VINA RESULT:      -5.8      2.914      6.050
REMARK  6 active torsions:
REMARK  status: ('A' for Active; 'I' for Inactive)
REMARK    1  A    between atoms: O_1  and  C_2 
REMARK    2  A    between atoms: C_2  and  C_3 
REMARK    3  A    between atoms: N_12  and  C_13 
REMARK    4  A    between atoms: C_13  and  C_14 
REMARK    5  A    between atoms: C_14  and  O_15 
REMARK    6  A    between atoms: C_14  and  C_16 
ROOT
HETATM    1  C   UNL     1     -43.765 -50.777  13.366  1.00  0.00     0.108 A 
HETATM    2  N   UNL     1     -44.877 -50.933  14.062  1.00  0.00    -0.342 N 
ATOM      3  HN  UNL     1     -45.432 -50.201  14.504  1.00  0.00     0.167 HD
HETATM    4  C   UNL     1     -45.131 -52.278  14.071  1.00  0.00     0.060 A 
HETATM    5  C   UNL     1     -46.209 -52.973  14.640  1.00  0.00     0.032 A 
HETATM    6  C   UNL     1     -46.263 -54.365  14.509  1.00  0.00     0.002 A 
HETATM    7  C   UNL     1     -45.259 -55.052  13.827  1.00  0.00     0.002 A 
HETATM    8  C   UNL     1     -44.175 -54.375  13.251  1.00  0.00     0.032 A 
HETATM    9  C   UNL     1     -44.138 -52.980  13.391  1.00  0.00     0.062 A 
HETATM   10  N   UNL     1     -43.265 -51.999  12.959  1.00  0.00    -0.330 N 
ENDROOT
BRANCH  10  11
HETATM   11  C   UNL     1     -42.095 -52.227  12.125  1.00  0.00     0.167 C 
BRANCH  11  12
HETATM   12  C   UNL     1     -40.826 -52.598  12.915  1.00  0.00     0.169 C 
BRANCH  12  13
HETATM   13  O   UNL     1     -40.202 -53.798  12.458  1.00  0.00    -0.389 OA
HETATM   14  H   UNL     1     -40.065 -54.393  13.210  1.00  0.00     0.210 HD
ENDBRANCH  12  13
BRANCH  12  15
HETATM   15  C   UNL     1     -39.768 -51.511  12.847  1.00  0.00    -0.025 A 
HETATM   16  C   UNL     1     -39.846 -50.498  11.877  1.00  0.00     0.010 A 
HETATM   17  C   UNL     1     -38.889 -49.478  11.826  1.00  0.00     0.004 A 
HETATM   18  C   UNL     1     -37.841 -49.457  12.744  1.00  0.00     0.042 A 
HETATM   19  C   UNL     1     -37.762 -50.452  13.708  1.00  0.00     0.117 A 
HETATM   20  F   UNL     1     -36.760 -50.433  14.596  1.00  0.00    -0.206 F 
HETATM   21  C   UNL     1     -38.709 -51.472  13.770  1.00  0.00     0.052 A 
ENDBRANCH  12  15
ENDBRANCH  11  12
ENDBRANCH  10  11
BRANCH   1  22
HETATM   22  C   UNL     1     -43.141 -49.456  13.075  1.00  0.00     0.240 C 
BRANCH  22  23
HETATM   23  O   UNL     1     -43.565 -49.040  11.784  1.00  0.00    -0.393 OA
HETATM   24  H   UNL     1     -43.644 -49.847  11.246  1.00  0.00     0.209 HD
ENDBRANCH  22  23
ENDBRANCH   1  22
TORSDOF 6
ENDMDL
