MODEL 1
REMARK VINA RESULT:      -5.6      0.000      0.000
REMARK  7 active torsions:
REMARK  status: ('A' for Active; 'I' for Inactive)
REMARK    1  A    between atoms: C_2  and  C_3 
REMARK    2  A    between atoms: C_3  and  C_4 
REMARK    3  A    between atoms: C_4  and  O_5 
REMARK    4  A    between atoms: O_5  and  C_6 
REMARK    5  A    between atoms: C_6  and  C_7 
REMARK       I    between atoms: C_7  and  N_9 
REMARK    6  A    between atoms: N_9  and  C_10 
REMARK    7  A    between atoms: C_13  and  C_18 
ROOT
HETATM    1  C   UNL     1     -41.665 -48.524  11.115  1.00  0.00     0.122 A 
HETATM    2  C   UNL     1     -42.765 -47.959  11.736  1.00  0.00     0.052 A 
HETATM    3  C   UNL     1     -43.827 -47.504  10.950  1.00  0.00     0.030 A 
HETATM    4  C   UNL     1     -43.764 -47.611   9.564  1.00  0.00     0.030 A 
HETATM    5  N   UNL     1     -42.641 -48.097   8.999  1.00  0.00    -0.303 N 
ATOM      6  HN  UNL     1     -42.562 -48.124   7.983  1.00  0.00     0.186 HD
HETATM    7  N   UNL     1     -41.595 -48.558   9.776  1.00  0.00    -0.285 N 
ATOM      8  HN  UNL     1     -40.759 -48.929   9.324  1.00  0.00     0.188 HD
ENDROOT
BRANCH   1   9
HETATM    9  N   UNL     1     -40.660 -49.080  11.916  1.00  0.00    -0.310 N 
HETATM   10  C   UNL     1     -40.511 -50.436  12.144  1.00  0.00     0.246 C 
HETATM   11  O   UNL     1     -41.181 -51.344  11.665  1.00  0.00    -0.271 OA
HETATM   12  H   UNL     1     -40.099 -48.464  12.490  1.00  0.00     0.170 HD
BRANCH  10  13
HETATM   13  C   UNL     1     -39.334 -50.744  13.067  1.00  0.00     0.270 C 
BRANCH  13  14
HETATM   14  O   UNL     1     -38.906 -52.099  12.934  1.00  0.00    -0.382 OA
BRANCH  14  15
HETATM   15  C   UNL     1     -39.112 -52.824  14.150  1.00  0.00     0.168 C 
BRANCH  15  16
HETATM   16  C   UNL     1     -39.622 -54.217  13.800  1.00  0.00     0.026 C 
BRANCH  16  17
HETATM   17  C   UNL     1     -41.139 -54.243  13.636  1.00  0.00    -0.002 C 
HETATM   18  C   UNL     1     -41.825 -53.380  14.680  1.00  0.00     0.005 C 
ENDBRANCH  16  17
ENDBRANCH  15  16
ENDBRANCH  14  15
ENDBRANCH  13  14
ENDBRANCH  10  13
ENDBRANCH   1   9
BRANCH   4  19
HETATM   19  C   UNL     1     -44.927 -47.235   8.681  1.00  0.00     0.037 A 
HETATM   20  C   UNL     1     -46.309 -47.088   9.280  1.00  0.00     0.011 A 
HETATM   21  C   UNL     1     -46.004 -48.260   8.396  1.00  0.00     0.011 A 
ENDBRANCH   4  19
TORSDOF 7
ENDMDL
MODEL 2
REMARK VINA RESULT:      -5.6      4.088      6.154
REMARK  7 active torsions:
REMARK  status: ('A' for Active; 'I' for Inactive)
REMARK    1  A    between atoms: C_2  and  C_3 
REMARK    2  A    between atoms: C_3  and  C_4 
REMARK    3  A    between atoms: C_4  and  O_5 
REMARK    4  A    between atoms: O_5  and  C_6 
REMARK    5  A    between atoms: C_6  and  C_7 
REMARK       I    between atoms: C_7  and  N_9 
REMARK    6  A    between atoms: N_9  and  C_10 
REMARK    7  A    between atoms: C_13  and  C_18 
ROOT
HETATM    1  C   UNL     1     -42.056 -53.053  12.964  1.00  0.00     0.122 A 
HETATM    2  C   UNL     1     -41.001 -52.736  13.802  1.00  0.00     0.052 A 
HETATM    3  C   UNL     1     -40.063 -51.789  13.381  1.00  0.00     0.030 A 
HETATM    4  C   UNL     1     -40.190 -51.190  12.132  1.00  0.00     0.030 A 
HETATM    5  N   UNL     1     -41.189 -51.586  11.319  1.00  0.00    -0.303 N 
ATOM      6  HN  UNL     1     -41.256 -51.195  10.379  1.00  0.00     0.186 HD
HETATM    7  N   UNL     1     -42.125 -52.513  11.738  1.00  0.00    -0.285 N 
ATOM      8  HN  UNL     1     -42.876 -52.790  11.107  1.00  0.00     0.188 HD
ENDROOT
BRANCH   1   9
HETATM    9  N   UNL     1     -43.051 -53.914  13.443  1.00  0.00    -0.310 N 
HETATM   10  C   UNL     1     -44.350 -53.936  12.971  1.00  0.00     0.246 C 
HETATM   11  O   UNL     1     -44.818 -53.262  12.059  1.00  0.00    -0.271 OA
HETATM   12  H   UNL     1     -42.869 -54.449  14.282  1.00  0.00     0.170 HD
BRANCH  10  13
HETATM   13  C   UNL     1     -45.212 -54.973  13.689  1.00  0.00     0.270 C 
BRANCH  13  14
HETATM   14  O   UNL     1     -45.192 -54.779  15.103  1.00  0.00    -0.382 OA
BRANCH  14  15
HETATM   15  C   UNL     1     -46.172 -53.817  15.503  1.00  0.00     0.168 C 
BRANCH  15  16
HETATM   16  C   UNL     1     -45.457 -52.656  16.185  1.00  0.00     0.026 C 
BRANCH  16  17
HETATM   17  C   UNL     1     -45.595 -51.359  15.394  1.00  0.00    -0.002 C 
HETATM   18  C   UNL     1     -46.763 -51.422  14.424  1.00  0.00     0.005 C 
ENDBRANCH  16  17
ENDBRANCH  15  16
ENDBRANCH  14  15
ENDBRANCH  13  14
ENDBRANCH  10  13
ENDBRANCH   1   9
BRANCH   4  19
HETATM   19  C   UNL     1     -39.267 -50.087  11.678  1.00  0.00     0.037 A 
HETATM   20  C   UNL     1     -38.429 -49.342  12.695  1.00  0.00     0.011 A 
HETATM   21  C   UNL     1     -39.590 -48.653  12.043  1.00  0.00     0.011 A 
ENDBRANCH   4  19
TORSDOF 7
ENDMDL
MODEL 3
REMARK VINA RESULT:      -5.5      1.421      2.586
REMARK  7 active torsions:
REMARK  status: ('A' for Active; 'I' for Inactive)
REMARK    1  A    between atoms: C_2  and  C_3 
REMARK    2  A    between atoms: C_3  and  C_4 
REMARK    3  A    between atoms: C_4  and  O_5 
REMARK    4  A    between atoms: O_5  and  C_6 
REMARK    5  A    between atoms: C_6  and  C_7 
REMARK       I    between atoms: C_7  and  N_9 
REMARK    6  A    between atoms: N_9  and  C_10 
REMARK    7  A    between atoms: C_13  and  C_18 
ROOT
HETATM    1  C   UNL     1     -41.491 -49.552  11.926  1.00  0.00     0.122 A 
HETATM    2  C   UNL     1     -42.627 -48.862  12.309  1.00  0.00     0.052 A 
HETATM    3  C   UNL     1     -43.254 -48.023  11.384  1.00  0.00     0.030 A 
HETATM    4  C   UNL     1     -42.729 -47.883  10.103  1.00  0.00     0.030 A 
HETATM    5  N   UNL     1     -41.578 -48.514   9.799  1.00  0.00    -0.303 N 
ATOM      6  HN  UNL     1     -41.154 -48.370   8.883  1.00  0.00     0.186 HD
HETATM    7  N   UNL     1     -40.963 -49.353  10.709  1.00  0.00    -0.285 N 
ATOM      8  HN  UNL     1     -40.096 -49.826  10.452  1.00  0.00     0.188 HD
ENDROOT
BRANCH   1   9
HETATM    9  N   UNL     1     -40.938 -50.476  12.822  1.00  0.00    -0.310 N 
HETATM   10  C   UNL     1     -40.869 -51.837  12.589  1.00  0.00     0.246 C 
HETATM   11  O   UNL     1     -41.226 -52.433  11.578  1.00  0.00    -0.271 OA
HETATM   12  H   UNL     1     -40.713 -50.169  13.760  1.00  0.00     0.170 HD
BRANCH  10  13
HETATM   13  C   UNL     1     -40.225 -52.593  13.749  1.00  0.00     0.270 C 
BRANCH  13  14
HETATM   14  O   UNL     1     -38.801 -52.522  13.693  1.00  0.00    -0.382 OA
BRANCH  14  15
HETATM   15  C   UNL     1     -38.300 -51.542  14.608  1.00  0.00     0.168 C 
BRANCH  15  16
HETATM   16  C   UNL     1     -37.460 -50.539  13.827  1.00  0.00     0.026 C 
BRANCH  16  17
HETATM   17  C   UNL     1     -37.197 -51.006  12.399  1.00  0.00    -0.002 C 
HETATM   18  C   UNL     1     -37.465 -49.898  11.395  1.00  0.00     0.005 C 
ENDBRANCH  16  17
ENDBRANCH  15  16
ENDBRANCH  14  15
ENDBRANCH  13  14
ENDBRANCH  10  13
ENDBRANCH   1   9
BRANCH   4  19
HETATM   19  C   UNL     1     -43.428 -47.076   9.038  1.00  0.00     0.037 A 
HETATM   20  C   UNL     1     -44.913 -47.260   8.809  1.00  0.00     0.011 A 
HETATM   21  C   UNL     1     -43.937 -47.775   7.794  1.00  0.00     0.011 A 
ENDBRANCH   4  19
TORSDOF 7
ENDMDL
MODEL 4
REMARK VINA RESULT:      -5.4      1.292      1.782
REMARK  7 active torsions:
REMARK  status: ('A' for Active; 'I' for Inactive)
REMARK    1  A    between atoms: C_2  and  C_3 
REMARK    2  A    between atoms: C_3  and  C_4 
REMARK    3  A    between atoms: C_4  and  O_5 
REMARK    4  A    between atoms: O_5  and  C_6 
REMARK    5  A    between atoms: C_6  and  C_7 
REMARK       I    between atoms: C_7  and  N_9 
REMARK    6  A    between atoms: N_9  and  C_10 
REMARK    7  A    between atoms: C_13  and  C_18 
ROOT
HETATM    1  C   UNL     1     -41.310 -49.731  11.911  1.00  0.00     0.122 A 
HETATM    2  C   UNL     1     -42.425 -49.045  12.359  1.00  0.00     0.052 A 
HETATM    3  C   UNL     1     -43.066 -48.154  11.494  1.00  0.00     0.030 A 
HETATM    4  C   UNL     1     -42.577 -47.959  10.207  1.00  0.00     0.030 A 
HETATM    5  N   UNL     1     -41.443 -48.590   9.839  1.00  0.00    -0.303 N 
ATOM      6  HN  UNL     1     -41.044 -48.407   8.918  1.00  0.00     0.186 HD
HETATM    7  N   UNL     1     -40.815 -49.479  10.689  1.00  0.00    -0.285 N 
ATOM      8  HN  UNL     1     -39.963 -49.950  10.385  1.00  0.00     0.188 HD
ENDROOT
BRANCH   1   9
HETATM    9  N   UNL     1     -40.745 -50.703  12.745  1.00  0.00    -0.310 N 
HETATM   10  C   UNL     1     -39.397 -50.785  13.037  1.00  0.00     0.246 C 
HETATM   11  O   UNL     1     -38.511 -50.023  12.665  1.00  0.00    -0.271 OA
HETATM   12  H   UNL     1     -41.316 -51.487  13.035  1.00  0.00     0.170 HD
BRANCH  10  13
HETATM   13  C   UNL     1     -39.073 -51.955  13.966  1.00  0.00     0.270 C 
BRANCH  13  14
HETATM   14  O   UNL     1     -39.202 -53.207  13.293  1.00  0.00    -0.382 OA
BRANCH  14  15
HETATM   15  C   UNL     1     -40.163 -54.042  13.945  1.00  0.00     0.168 C 
BRANCH  15  16
HETATM   16  C   UNL     1     -41.361 -54.213  13.018  1.00  0.00     0.026 C 
BRANCH  16  17
HETATM   17  C   UNL     1     -42.682 -54.152  13.779  1.00  0.00    -0.002 C 
HETATM   18  C   UNL     1     -43.848 -53.873  12.846  1.00  0.00     0.005 C 
ENDBRANCH  16  17
ENDBRANCH  15  16
ENDBRANCH  14  15
ENDBRANCH  13  14
ENDBRANCH  10  13
ENDBRANCH   1   9
BRANCH   4  19
HETATM   19  C   UNL     1     -43.294 -47.094   9.202  1.00  0.00     0.037 A 
HETATM   20  C   UNL     1     -44.804 -47.154   9.101  1.00  0.00     0.011 A 
HETATM   21  C   UNL     1     -43.963 -47.742   8.008  1.00  0.00     0.011 A 
ENDBRANCH   4  19
TORSDOF 7
ENDMDL
MODEL 5
REMARK VINA RESULT:      -5.3      2.009      7.377
REMARK  7 active torsions:
REMARK  status: ('A' for Active; 'I' for Inactive)
REMARK    1  A    between atoms: C_2  and  C_3 
REMARK    2  A    between atoms: C_3  and  C_4 
REMARK    3  A    between atoms: C_4  and  O_5 
REMARK    4  A    between atoms: O_5  and  C_6 
REMARK    5  A    between atoms: C_6  and  C_7 
REMARK       I    between atoms: C_7  and  N_9 
REMARK    6  A    between atoms: N_9  and  C_10 
REMARK    7  A    between atoms: C_13  and  C_18 
ROOT
HETATM    1  C   UNL     1     -41.741 -51.146  12.054  1.00  0.00     0.122 A 
HETATM    2  C   UNL     1     -42.079 -51.359  13.378  1.00  0.00     0.052 A 
HETATM    3  C   UNL     1     -41.667 -52.540  14.002  1.00  0.00     0.030 A 
HETATM    4  C   UNL     1     -40.936 -53.485  13.289  1.00  0.00     0.030 A 
HETATM    5  N   UNL     1     -40.696 -53.270  11.980  1.00  0.00    -0.303 N 
ATOM      6  HN  UNL     1     -40.214 -53.984  11.435  1.00  0.00     0.186 HD
HETATM    7  N   UNL     1     -41.094 -52.098  11.365  1.00  0.00    -0.285 N 
ATOM      8  HN  UNL     1     -40.893 -51.956  10.375  1.00  0.00     0.188 HD
ENDROOT
BRANCH   1   9
HETATM    9  N   UNL     1     -42.060 -49.911  11.475  1.00  0.00    -0.310 N 
HETATM   10  C   UNL     1     -41.136 -48.920  11.204  1.00  0.00     0.246 C 
HETATM   11  O   UNL     1     -39.923 -48.972  11.378  1.00  0.00    -0.271 OA
HETATM   12  H   UNL     1     -43.034 -49.654  11.384  1.00  0.00     0.170 HD
BRANCH  10  13
HETATM   13  C   UNL     1     -41.778 -47.681  10.582  1.00  0.00     0.270 C 
BRANCH  13  14
HETATM   14  O   UNL     1     -43.166 -47.886  10.324  1.00  0.00    -0.382 OA
BRANCH  14  15
HETATM   15  C   UNL     1     -43.805 -46.660   9.952  1.00  0.00     0.168 C 
BRANCH  15  16
HETATM   16  C   UNL     1     -44.694 -46.928   8.743  1.00  0.00     0.026 C 
BRANCH  16  17
HETATM   17  C   UNL     1     -46.168 -47.010   9.127  1.00  0.00    -0.002 C 
HETATM   18  C   UNL     1     -46.717 -48.412   8.926  1.00  0.00     0.005 C 
ENDBRANCH  16  17
ENDBRANCH  15  16
ENDBRANCH  14  15
ENDBRANCH  13  14
ENDBRANCH  10  13
ENDBRANCH   1   9
BRANCH   4  19
HETATM   19  C   UNL     1     -40.376 -54.722  13.945  1.00  0.00     0.037 A 
HETATM   20  C   UNL     1     -40.177 -54.752  15.445  1.00  0.00     0.011 A 
HETATM   21  C   UNL     1     -38.984 -54.680  14.540  1.00  0.00     0.011 A 
ENDBRANCH   4  19
TORSDOF 7
ENDMDL
MODEL 6
REMARK VINA RESULT:      -5.3      2.960      4.277
REMARK  7 active torsions:
REMARK  status: ('A' for Active; 'I' for Inactive)
REMARK    1  A    between atoms: C_2  and  C_3 
REMARK    2  A    between atoms: C_3  and  C_4 
REMARK    3  A    between atoms: C_4  and  O_5 
REMARK    4  A    between atoms: O_5  and  C_6 
REMARK    5  A    between atoms: C_6  and  C_7 
REMARK       I    between atoms: C_7  and  N_9 
REMARK    6  A    between atoms: N_9  and  C_10 
REMARK    7  A    between atoms: C_13  and  C_18 
ROOT
HETATM    1  C   UNL     1     -41.851 -49.258  11.725  1.00  0.00     0.122 A 
HETATM    2  C   UNL     1     -42.334 -48.227  12.512  1.00  0.00     0.052 A 
HETATM    3  C   UNL     1     -42.010 -46.910  12.177  1.00  0.00     0.030 A 
HETATM    4  C   UNL     1     -41.205 -46.650  11.073  1.00  0.00     0.030 A 
HETATM    5  N   UNL     1     -40.693 -47.688  10.382  1.00  0.00    -0.303 N 
ATOM      6  HN  UNL     1     -40.054 -47.509   9.608  1.00  0.00     0.186 HD
HETATM    7  N   UNL     1     -41.021 -48.991  10.705  1.00  0.00    -0.285 N 
ATOM      8  HN  UNL     1     -40.628 -49.759  10.162  1.00  0.00     0.188 HD
ENDROOT
BRANCH   1   9
HETATM    9  N   UNL     1     -42.275 -50.563  12.003  1.00  0.00    -0.310 N 
HETATM   10  C   UNL     1     -41.421 -51.610  12.297  1.00  0.00     0.246 C 
HETATM   11  O   UNL     1     -40.200 -51.561  12.404  1.00  0.00    -0.271 OA
HETATM   12  H   UNL     1     -43.242 -50.807  11.833  1.00  0.00     0.170 HD
BRANCH  10  13
HETATM   13  C   UNL     1     -42.169 -52.919  12.545  1.00  0.00     0.270 C 
BRANCH  13  14
HETATM   14  O   UNL     1     -43.499 -52.866  12.030  1.00  0.00    -0.382 OA
BRANCH  14  15
HETATM   15  C   UNL     1     -44.387 -53.660  12.822  1.00  0.00     0.168 C 
BRANCH  15  16
HETATM   16  C   UNL     1     -45.734 -52.950  12.893  1.00  0.00     0.026 C 
BRANCH  16  17
HETATM   17  C   UNL     1     -45.626 -51.592  13.581  1.00  0.00    -0.002 C 
HETATM   18  C   UNL     1     -46.771 -51.369  14.553  1.00  0.00     0.005 C 
ENDBRANCH  16  17
ENDBRANCH  15  16
ENDBRANCH  14  15
ENDBRANCH  13  14
ENDBRANCH  10  13
ENDBRANCH   1   9
BRANCH   4  19
HETATM   19  C   UNL     1     -40.917 -45.245  10.608  1.00  0.00     0.037 A 
HETATM   20  C   UNL     1     -39.549 -44.901  10.057  1.00  0.00     0.011 A 
HETATM   21  C   UNL     1     -39.958 -44.383  11.403  1.00  0.00     0.011 A 
ENDBRANCH   4  19
TORSDOF 7
ENDMDL
MODEL 7
REMARK VINA RESULT:      -5.2      2.436      3.757
REMARK  7 active torsions:
REMARK  status: ('A' for Active; 'I' for Inactive)
REMARK    1  A    between atoms: C_2  and  C_3 
REMARK    2  A    between atoms: C_3  and  C_4 
REMARK    3  A    between atoms: C_4  and  O_5 
REMARK    4  A    between atoms: O_5  and  C_6 
REMARK    5  A    between atoms: C_6  and  C_7 
REMARK       I    between atoms: C_7  and  N_9 
REMARK    6  A    between atoms: N_9  and  C_10 
REMARK    7  A    between atoms: C_13  and  C_18 
ROOT
HETATM    1  C   UNL     1     -41.700 -48.033  10.471  1.00  0.00     0.122 A 
HETATM    2  C   UNL     1     -42.725 -47.413  11.164  1.00  0.00     0.052 A 
HETATM    3  C   UNL     1     -43.946 -47.199  10.518  1.00  0.00     0.030 A 
HETATM    4  C   UNL     1     -44.114 -47.596   9.196  1.00  0.00     0.030 A 
HETATM    5  N   UNL     1     -43.064 -48.125   8.537  1.00  0.00    -0.303 N 
ATOM      6  HN  UNL     1     -43.160 -48.365   7.550  1.00  0.00     0.186 HD
HETATM    7  N   UNL     1     -41.859 -48.348   9.177  1.00  0.00    -0.285 N 
ATOM      8  HN  UNL     1     -41.082 -48.758   8.658  1.00  0.00     0.188 HD
ENDROOT
BRANCH   1   9
HETATM    9  N   UNL     1     -40.522 -48.345  11.162  1.00  0.00    -0.310 N 
HETATM   10  C   UNL     1     -40.184 -49.618  11.581  1.00  0.00     0.246 C 
HETATM   11  O   UNL     1     -40.813 -50.652  11.387  1.00  0.00    -0.271 OA
HETATM   12  H   UNL     1     -39.951 -47.589  11.516  1.00  0.00     0.170 HD
BRANCH  10  13
HETATM   13  C   UNL     1     -38.846 -49.650  12.319  1.00  0.00     0.270 C 
BRANCH  13  14
HETATM   14  O   UNL     1     -38.497 -48.363  12.824  1.00  0.00    -0.382 OA
BRANCH  14  15
HETATM   15  C   UNL     1     -38.603 -48.325  14.250  1.00  0.00     0.168 C 
BRANCH  15  16
HETATM   16  C   UNL     1     -38.258 -46.917  14.722  1.00  0.00     0.026 C 
BRANCH  16  17
HETATM   17  C   UNL     1     -39.380 -45.927  14.426  1.00  0.00    -0.002 C 
HETATM   18  C   UNL     1     -38.951 -44.893  13.399  1.00  0.00     0.005 C 
ENDBRANCH  16  17
ENDBRANCH  15  16
ENDBRANCH  14  15
ENDBRANCH  13  14
ENDBRANCH  10  13
ENDBRANCH   1   9
BRANCH   4  19
HETATM   19  C   UNL     1     -45.442 -47.486   8.492  1.00  0.00     0.037 A 
HETATM   20  C   UNL     1     -46.676 -47.086   9.273  1.00  0.00     0.011 A 
HETATM   21  C   UNL     1     -46.527 -48.499   8.793  1.00  0.00     0.011 A 
ENDBRANCH   4  19
TORSDOF 7
ENDMDL
MODEL 8
REMARK VINA RESULT:      -4.9      2.837      3.375
REMARK  7 active torsions:
REMARK  status: ('A' for Active; 'I' for Inactive)
REMARK    1  A    between atoms: C_2  and  C_3 
REMARK    2  A    between atoms: C_3  and  C_4 
REMARK    3  A    between atoms: C_4  and  O_5 
REMARK    4  A    between atoms: O_5  and  C_6 
REMARK    5  A    between atoms: C_6  and  C_7 
REMARK       I    between atoms: C_7  and  N_9 
REMARK    6  A    between atoms: N_9  and  C_10 
REMARK    7  A    between atoms: C_13  and  C_18 
ROOT
HETATM    1  C   UNL     1     -40.320 -49.622  11.337  1.00  0.00     0.122 A 
HETATM    2  C   UNL     1     -39.546 -48.717  12.042  1.00  0.00     0.052 A 
HETATM    3  C   UNL     1     -39.715 -47.350  11.804  1.00  0.00     0.030 A 
HETATM    4  C   UNL     1     -40.643 -46.917  10.863  1.00  0.00     0.030 A 
HETATM    5  N   UNL     1     -41.319 -47.836  10.145  1.00  0.00    -0.303 N 
ATOM      6  HN  UNL     1     -41.958 -47.528   9.412  1.00  0.00     0.186 HD
HETATM    7  N   UNL     1     -41.161 -49.187  10.387  1.00  0.00    -0.285 N 
ATOM      8  HN  UNL     1     -41.691 -49.862   9.836  1.00  0.00     0.188 HD
ENDROOT
BRANCH   1   9
HETATM    9  N   UNL     1     -40.224 -50.980  11.666  1.00  0.00    -0.310 N 
HETATM   10  C   UNL     1     -41.268 -51.731  12.172  1.00  0.00     0.246 C 
HETATM   11  O   UNL     1     -42.420 -51.358  12.369  1.00  0.00    -0.271 OA
HETATM   12  H   UNL     1     -39.309 -51.412  11.684  1.00  0.00     0.170 HD
BRANCH  10  13
HETATM   13  C   UNL     1     -40.863 -53.179  12.445  1.00  0.00     0.270 C 
BRANCH  13  14
HETATM   14  O   UNL     1     -39.544 -53.260  12.982  1.00  0.00    -0.382 OA
BRANCH  14  15
HETATM   15  C   UNL     1     -39.531 -54.010  14.201  1.00  0.00     0.168 C 
BRANCH  15  16
HETATM   16  C   UNL     1     -39.750 -53.046  15.361  1.00  0.00     0.026 C 
BRANCH  16  17
HETATM   17  C   UNL     1     -38.801 -51.853  15.297  1.00  0.00    -0.002 C 
HETATM   18  C   UNL     1     -39.560 -50.538  15.315  1.00  0.00     0.005 C 
ENDBRANCH  16  17
ENDBRANCH  15  16
ENDBRANCH  14  15
ENDBRANCH  13  14
ENDBRANCH  10  13
ENDBRANCH   1   9
BRANCH   4  19
HETATM   19  C   UNL     1     -40.939 -45.454  10.649  1.00  0.00     0.037 A 
HETATM   20  C   UNL     1     -40.597 -44.452  11.731  1.00  0.00     0.011 A 
HETATM   21  C   UNL     1     -42.033 -44.792  11.461  1.00  0.00     0.011 A 
ENDBRANCH   4  19
TORSDOF 7
ENDMDL
MODEL 9
REMARK VINA RESULT:      -4.9      4.211      6.567
REMARK  7 active torsions:
REMARK  status: ('A' for Active; 'I' for Inactive)
REMARK    1  A    between atoms: C_2  and  C_3 
REMARK    2  A    between atoms: C_3  and  C_4 
REMARK    3  A    between atoms: C_4  and  O_5 
REMARK    4  A    between atoms: O_5  and  C_6 
REMARK    5  A    between atoms: C_6  and  C_7 
REMARK       I    between atoms: C_7  and  N_9 
REMARK    6  A    between atoms: N_9  and  C_10 
REMARK    7  A    between atoms: C_13  and  C_18 
ROOT
HETATM    1  C   UNL     1     -42.029 -52.130  13.361  1.00  0.00     0.122 A 
HETATM    2  C   UNL     1     -41.759 -51.482  12.168  1.00  0.00     0.052 A 
HETATM    3  C   UNL     1     -40.534 -50.825  12.017  1.00  0.00     0.030 A 
HETATM    4  C   UNL     1     -39.613 -50.820  13.059  1.00  0.00     0.030 A 
HETATM    5  N   UNL     1     -39.950 -51.398  14.229  1.00  0.00    -0.303 N 
ATOM      6  HN  UNL     1     -39.306 -51.347  15.018  1.00  0.00     0.186 HD
HETATM    7  N   UNL     1     -41.156 -52.057  14.377  1.00  0.00    -0.285 N 
ATOM      8  HN  UNL     1     -41.385 -52.493  15.270  1.00  0.00     0.188 HD
ENDROOT
BRANCH   1   9
HETATM    9  N   UNL     1     -43.208 -52.879  13.459  1.00  0.00    -0.310 N 
HETATM   10  C   UNL     1     -43.280 -54.140  14.020  1.00  0.00     0.246 C 
HETATM   11  O   UNL     1     -42.367 -54.770  14.544  1.00  0.00    -0.271 OA
HETATM   12  H   UNL     1     -44.029 -52.561  12.961  1.00  0.00     0.170 HD
BRANCH  10  13
HETATM   13  C   UNL     1     -44.695 -54.715  13.977  1.00  0.00     0.270 C 
BRANCH  13  14
HETATM   14  O   UNL     1     -45.241 -54.856  15.288  1.00  0.00    -0.382 OA
BRANCH  14  15
HETATM   15  C   UNL     1     -45.879 -53.648  15.710  1.00  0.00     0.168 C 
BRANCH  15  16
HETATM   16  C   UNL     1     -46.829 -53.194  14.608  1.00  0.00     0.026 C 
BRANCH  16  17
HETATM   17  C   UNL     1     -46.630 -51.723  14.255  1.00  0.00    -0.002 C 
HETATM   18  C   UNL     1     -46.534 -51.521  12.753  1.00  0.00     0.005 C 
ENDBRANCH  16  17
ENDBRANCH  15  16
ENDBRANCH  14  15
ENDBRANCH  13  14
ENDBRANCH  10  13
ENDBRANCH   1   9
BRANCH   4  19
HETATM   19  C   UNL     1     -38.238 -50.220  12.906  1.00  0.00     0.037 A 
HETATM   20  C   UNL     1     -37.619 -50.100  11.530  1.00  0.00     0.011 A 
HETATM   21  C   UNL     1     -37.082 -51.110  12.498  1.00  0.00     0.011 A 
ENDBRANCH   4  19
TORSDOF 7
ENDMDL
