MODEL 1
REMARK VINA RESULT:      -6.0      0.000      0.000
REMARK  3 active torsions:
REMARK  status: ('A' for Active; 'I' for Inactive)
REMARK    1  A    between atoms: C_5  and  C_6 
REMARK    2  A    between atoms: C_6  and  N_7 
REMARK       I    between atoms: N_7  and  C_8 
REMARK       I    between atoms: C_8  and  N_10 
REMARK    3  A    between atoms: N_10  and  C_11 
ROOT
HETATM    1  N   UNL     1     -40.775 -51.183  11.352  1.00  0.00    -0.342 N 
HETATM    2  C   UNL     1     -41.865 -51.427  12.157  1.00  0.00     0.321 C 
HETATM    3  O   UNL     1     -42.180 -50.702  13.094  1.00  0.00    -0.247 OA
HETATM    4  N   UNL     1     -42.487 -52.602  11.814  1.00  0.00    -0.295 N 
HETATM    5  H   UNL     1     -40.842 -51.520  10.402  1.00  0.00     0.164 HD
HETATM    6  H   UNL     1     -41.864 -53.339  11.514  1.00  0.00     0.172 HD
ENDROOT
BRANCH   1   7
HETATM    7  C   UNL     1     -39.879 -50.073  11.621  1.00  0.00     0.129 C 
BRANCH   7   8
HETATM    8  C   UNL     1     -38.510 -50.544  12.137  1.00  0.00     0.007 C 
HETATM    9  C   UNL     1     -38.603 -51.421  13.399  1.00  0.00     0.036 C 
HETATM   10  C   UNL     1     -39.001 -50.614  14.641  1.00  0.00     0.272 C 
HETATM   11  N   UNL     1     -38.139 -49.452  14.894  1.00  0.00     0.084 N 
HETATM   12  C   UNL     1     -36.840 -49.832  15.443  1.00  0.00     0.309 C 
HETATM   13  C   UNL     1     -38.016 -48.597  13.710  1.00  0.00     0.272 C 
HETATM   14  C   UNL     1     -37.599 -49.342  12.436  1.00  0.00     0.036 C 
ENDBRANCH   7   8
ENDBRANCH   1   7
BRANCH   4  15
HETATM   15  C   UNL     1     -43.575 -53.100  12.539  1.00  0.00     0.108 A 
HETATM   16  C   UNL     1     -43.456 -54.211  13.367  1.00  0.00     0.049 A 
HETATM   17  C   UNL     1     -44.593 -54.684  14.017  1.00  0.00     0.005 A 
HETATM   18  C   UNL     1     -45.808 -54.049  13.800  1.00  0.00     0.017 A 
HETATM   19  C   UNL     1     -45.827 -52.936  12.974  1.00  0.00     0.089 A 
HETATM   20  N   UNL     1     -44.729 -52.424  12.370  1.00  0.00    -0.352 N 
ATOM     21  HN  UNL     1     -44.773 -51.570  11.815  1.00  0.00     0.166 HD
ENDBRANCH   4  15
TORSDOF 3
ENDMDL
MODEL 2
REMARK VINA RESULT:      -5.9      3.949      5.067
REMARK  3 active torsions:
REMARK  status: ('A' for Active; 'I' for Inactive)
REMARK    1  A    between atoms: C_5  and  C_6 
REMARK    2  A    between atoms: C_6  and  N_7 
REMARK       I    between atoms: N_7  and  C_8 
REMARK       I    between atoms: C_8  and  N_10 
REMARK    3  A    between atoms: N_10  and  C_11 
ROOT
HETATM    1  N   UNL     1     -40.740 -49.315  10.418  1.00  0.00    -0.342 N 
HETATM    2  C   UNL     1     -41.894 -48.573  10.526  1.00  0.00     0.321 C 
HETATM    3  O   UNL     1     -42.472 -48.385  11.591  1.00  0.00    -0.247 OA
HETATM    4  N   UNL     1     -42.331 -48.146   9.296  1.00  0.00    -0.295 N 
HETATM    5  H   UNL     1     -40.117 -49.059   9.666  1.00  0.00     0.164 HD
HETATM    6  H   UNL     1     -42.182 -48.802   8.543  1.00  0.00     0.172 HD
ENDROOT
BRANCH   1   7
HETATM    7  C   UNL     1     -40.174 -49.992  11.572  1.00  0.00     0.129 C 
BRANCH   7   8
HETATM    8  C   UNL     1     -38.823 -49.394  11.991  1.00  0.00     0.007 C 
HETATM    9  C   UNL     1     -37.742 -50.456  12.260  1.00  0.00     0.036 C 
HETATM   10  C   UNL     1     -38.005 -51.240  13.552  1.00  0.00     0.272 C 
HETATM   11  N   UNL     1     -38.185 -50.389  14.735  1.00  0.00     0.084 N 
HETATM   12  C   UNL     1     -36.923 -49.836  15.219  1.00  0.00     0.309 C 
HETATM   13  C   UNL     1     -39.199 -49.355  14.513  1.00  0.00     0.272 C 
HETATM   14  C   UNL     1     -38.981 -48.520  13.247  1.00  0.00     0.036 C 
ENDBRANCH   7   8
ENDBRANCH   1   7
BRANCH   4  15
HETATM   15  C   UNL     1     -43.527 -47.437   9.143  1.00  0.00     0.108 A 
HETATM   16  C   UNL     1     -43.547 -46.053   9.018  1.00  0.00     0.049 A 
HETATM   17  C   UNL     1     -44.778 -45.409   8.921  1.00  0.00     0.005 A 
HETATM   18  C   UNL     1     -45.942 -46.164   8.977  1.00  0.00     0.017 A 
HETATM   19  C   UNL     1     -45.824 -47.541   9.082  1.00  0.00     0.089 A 
HETATM   20  N   UNL     1     -44.641 -48.197   9.126  1.00  0.00    -0.352 N 
ATOM     21  HN  UNL     1     -44.594 -49.215   9.146  1.00  0.00     0.166 HD
ENDBRANCH   4  15
TORSDOF 3
ENDMDL
MODEL 3
REMARK VINA RESULT:      -5.8      1.699      6.891
REMARK  3 active torsions:
REMARK  status: ('A' for Active; 'I' for Inactive)
REMARK    1  A    between atoms: C_5  and  C_6 
REMARK    2  A    between atoms: C_6  and  N_7 
REMARK       I    between atoms: N_7  and  C_8 
REMARK       I    between atoms: C_8  and  N_10 
REMARK    3  A    between atoms: N_10  and  C_11 
ROOT
HETATM    1  N   UNL     1     -43.316 -52.803  11.978  1.00  0.00    -0.342 N 
HETATM    2  C   UNL     1     -42.147 -52.220  12.411  1.00  0.00     0.321 C 
HETATM    3  O   UNL     1     -41.646 -52.457  13.504  1.00  0.00    -0.247 OA
HETATM    4  N   UNL     1     -41.674 -51.311  11.498  1.00  0.00    -0.295 N 
HETATM    5  H   UNL     1     -43.412 -52.918  10.979  1.00  0.00     0.164 HD
HETATM    6  H   UNL     1     -42.388 -50.786  11.014  1.00  0.00     0.172 HD
ENDROOT
BRANCH   1   7
HETATM    7  C   UNL     1     -44.076 -53.689  12.842  1.00  0.00     0.129 C 
BRANCH   7   8
HETATM    8  C   UNL     1     -45.536 -53.236  12.998  1.00  0.00     0.007 C 
HETATM    9  C   UNL     1     -45.688 -51.713  13.162  1.00  0.00     0.036 C 
HETATM   10  C   UNL     1     -45.195 -51.223  14.529  1.00  0.00     0.272 C 
HETATM   11  N   UNL     1     -45.811 -51.918  15.666  1.00  0.00     0.084 N 
HETATM   12  C   UNL     1     -47.186 -51.486  15.904  1.00  0.00     0.309 C 
HETATM   13  C   UNL     1     -45.698 -53.374  15.540  1.00  0.00     0.272 C 
HETATM   14  C   UNL     1     -46.195 -53.931  14.202  1.00  0.00     0.036 C 
ENDBRANCH   7   8
ENDBRANCH   1   7
BRANCH   4  15
HETATM   15  C   UNL     1     -40.537 -50.535  11.750  1.00  0.00     0.108 A 
HETATM   16  C   UNL     1     -40.572 -49.146  11.697  1.00  0.00     0.049 A 
HETATM   17  C   UNL     1     -39.390 -48.440  11.906  1.00  0.00     0.005 A 
HETATM   18  C   UNL     1     -38.215 -49.143  12.136  1.00  0.00     0.017 A 
HETATM   19  C   UNL     1     -38.280 -50.526  12.192  1.00  0.00     0.089 A 
HETATM   20  N   UNL     1     -39.423 -51.236  12.042  1.00  0.00    -0.352 N 
ATOM     21  HN  UNL     1     -39.441 -52.250  12.146  1.00  0.00     0.166 HD
ENDBRANCH   4  15
TORSDOF 3
ENDMDL
MODEL 4
REMARK VINA RESULT:      -5.8      3.338      4.170
REMARK  3 active torsions:
REMARK  status: ('A' for Active; 'I' for Inactive)
REMARK    1  A    between atoms: C_5  and  C_6 
REMARK    2  A    between atoms: C_6  and  N_7 
REMARK       I    between atoms: N_7  and  C_8 
REMARK       I    between atoms: C_8  and  N_10 
REMARK    3  A    between atoms: N_10  and  C_11 
ROOT
HETATM    1  N   UNL     1     -40.907 -48.868  10.598  1.00  0.00    -0.342 N 
HETATM    2  C   UNL     1     -41.492 -49.771  11.455  1.00  0.00     0.321 C 
HETATM    3  O   UNL     1     -42.293 -49.448  12.325  1.00  0.00    -0.247 OA
HETATM    4  N   UNL     1     -41.011 -51.041  11.249  1.00  0.00    -0.295 N 
HETATM    5  H   UNL     1     -40.649 -49.223   9.688  1.00  0.00     0.164 HD
HETATM    6  H   UNL     1     -40.032 -51.088  11.004  1.00  0.00     0.172 HD
ENDROOT
BRANCH   1   7
HETATM    7  C   UNL     1     -41.154 -47.443  10.729  1.00  0.00     0.129 C 
BRANCH   7   8
HETATM    8  C   UNL     1     -39.894 -46.672  11.151  1.00  0.00     0.007 C 
HETATM    9  C   UNL     1     -39.780 -46.475  12.673  1.00  0.00     0.036 C 
HETATM   10  C   UNL     1     -40.801 -45.464  13.207  1.00  0.00     0.272 C 
HETATM   11  N   UNL     1     -40.763 -44.165  12.524  1.00  0.00     0.084 N 
HETATM   12  C   UNL     1     -39.614 -43.357  12.929  1.00  0.00     0.309 C 
HETATM   13  C   UNL     1     -40.856 -44.311  11.069  1.00  0.00     0.272 C 
HETATM   14  C   UNL     1     -39.845 -45.294  10.468  1.00  0.00     0.036 C 
ENDBRANCH   7   8
ENDBRANCH   1   7
BRANCH   4  15
HETATM   15  C   UNL     1     -41.401 -52.118  12.051  1.00  0.00     0.108 A 
HETATM   16  C   UNL     1     -40.502 -52.774  12.885  1.00  0.00     0.049 A 
HETATM   17  C   UNL     1     -40.947 -53.872  13.615  1.00  0.00     0.005 A 
HETATM   18  C   UNL     1     -42.263 -54.291  13.471  1.00  0.00     0.017 A 
HETATM   19  C   UNL     1     -43.093 -53.563  12.633  1.00  0.00     0.089 A 
HETATM   20  N   UNL     1     -42.701 -52.462  11.950  1.00  0.00    -0.352 N 
ATOM     21  HN  UNL     1     -43.356 -51.920  11.387  1.00  0.00     0.166 HD
ENDBRANCH   4  15
TORSDOF 3
ENDMDL
MODEL 5
REMARK VINA RESULT:      -5.7      1.932      6.666
REMARK  3 active torsions:
REMARK  status: ('A' for Active; 'I' for Inactive)
REMARK    1  A    between atoms: C_5  and  C_6 
REMARK    2  A    between atoms: C_6  and  N_7 
REMARK       I    between atoms: N_7  and  C_8 
REMARK       I    between atoms: C_8  and  N_10 
REMARK    3  A    between atoms: N_10  and  C_11 
ROOT
HETATM    1  N   UNL     1     -42.899 -53.224  12.082  1.00  0.00    -0.342 N 
HETATM    2  C   UNL     1     -42.427 -51.944  12.261  1.00  0.00     0.321 C 
HETATM    3  O   UNL     1     -43.068 -51.067  12.829  1.00  0.00    -0.247 OA
HETATM    4  N   UNL     1     -41.199 -51.777  11.669  1.00  0.00    -0.295 N 
HETATM    5  H   UNL     1     -42.201 -53.952  12.036  1.00  0.00     0.164 HD
HETATM    6  H   UNL     1     -41.077 -52.278  10.801  1.00  0.00     0.172 HD
ENDROOT
BRANCH   1   7
HETATM    7  C   UNL     1     -44.242 -53.592  12.497  1.00  0.00     0.129 C 
BRANCH   7   8
HETATM    8  C   UNL     1     -44.235 -54.563  13.688  1.00  0.00     0.007 C 
HETATM    9  C   UNL     1     -45.642 -55.029  14.103  1.00  0.00     0.036 C 
HETATM   10  C   UNL     1     -46.450 -53.914  14.778  1.00  0.00     0.272 C 
HETATM   11  N   UNL     1     -45.764 -53.295  15.920  1.00  0.00     0.084 N 
HETATM   12  C   UNL     1     -45.776 -54.148  17.105  1.00  0.00     0.309 C 
HETATM   13  C   UNL     1     -44.414 -52.848  15.568  1.00  0.00     0.272 C 
HETATM   14  C   UNL     1     -43.547 -53.925  14.906  1.00  0.00     0.036 C 
ENDBRANCH   7   8
ENDBRANCH   1   7
BRANCH   4  15
HETATM   15  C   UNL     1     -40.550 -50.537  11.652  1.00  0.00     0.108 A 
HETATM   16  C   UNL     1     -39.250 -50.386  12.120  1.00  0.00     0.049 A 
HETATM   17  C   UNL     1     -38.686 -49.113  12.122  1.00  0.00     0.005 A 
HETATM   18  C   UNL     1     -39.444 -48.037  11.681  1.00  0.00     0.017 A 
HETATM   19  C   UNL     1     -40.724 -48.287  11.213  1.00  0.00     0.089 A 
HETATM   20  N   UNL     1     -41.279 -49.519  11.152  1.00  0.00    -0.352 N 
ATOM     21  HN  UNL     1     -42.203 -49.671  10.748  1.00  0.00     0.166 HD
ENDBRANCH   4  15
TORSDOF 3
ENDMDL
MODEL 6
REMARK VINA RESULT:      -5.7      2.904      6.285
REMARK  3 active torsions:
REMARK  status: ('A' for Active; 'I' for Inactive)
REMARK    1  A    between atoms: C_5  and  C_6 
REMARK    2  A    between atoms: C_6  and  N_7 
REMARK       I    between atoms: N_7  and  C_8 
REMARK       I    between atoms: C_8  and  N_10 
REMARK    3  A    between atoms: N_10  and  C_11 
ROOT
HETATM    1  N   UNL     1     -40.799 -51.399  11.401  1.00  0.00    -0.342 N 
HETATM    2  C   UNL     1     -40.833 -50.046  11.653  1.00  0.00     0.321 C 
HETATM    3  O   UNL     1     -40.624 -49.566  12.761  1.00  0.00    -0.247 OA
HETATM    4  N   UNL     1     -41.193 -49.337  10.533  1.00  0.00    -0.295 N 
HETATM    5  H   UNL     1     -40.535 -51.669  10.464  1.00  0.00     0.164 HD
HETATM    6  H   UNL     1     -41.878 -49.792   9.946  1.00  0.00     0.172 HD
ENDROOT
BRANCH   1   7
HETATM    7  C   UNL     1     -40.585 -52.355  12.472  1.00  0.00     0.129 C 
BRANCH   7   8
HETATM    8  C   UNL     1     -41.715 -53.393  12.558  1.00  0.00     0.007 C 
HETATM    9  C   UNL     1     -43.121 -52.770  12.495  1.00  0.00     0.036 C 
HETATM   10  C   UNL     1     -43.477 -52.004  13.774  1.00  0.00     0.272 C 
HETATM   11  N   UNL     1     -43.329 -52.797  15.001  1.00  0.00     0.084 N 
HETATM   12  C   UNL     1     -44.410 -53.765  15.170  1.00  0.00     0.309 C 
HETATM   13  C   UNL     1     -42.005 -53.418  15.092  1.00  0.00     0.272 C 
HETATM   14  C   UNL     1     -41.598 -54.219  13.850  1.00  0.00     0.036 C 
ENDBRANCH   7   8
ENDBRANCH   1   7
BRANCH   4  15
HETATM   15  C   UNL     1     -41.369 -47.950  10.562  1.00  0.00     0.108 A 
HETATM   16  C   UNL     1     -42.624 -47.368  10.427  1.00  0.00     0.049 A 
HETATM   17  C   UNL     1     -42.719 -45.979  10.412  1.00  0.00     0.005 A 
HETATM   18  C   UNL     1     -41.558 -45.222  10.508  1.00  0.00     0.017 A 
HETATM   19  C   UNL     1     -40.353 -45.889  10.661  1.00  0.00     0.089 A 
HETATM   20  N   UNL     1     -40.238 -47.236  10.729  1.00  0.00    -0.352 N 
ATOM     21  HN  UNL     1     -39.340 -47.688  10.899  1.00  0.00     0.166 HD
ENDBRANCH   4  15
TORSDOF 3
ENDMDL
MODEL 7
REMARK VINA RESULT:      -5.5      3.018      7.173
REMARK  3 active torsions:
REMARK  status: ('A' for Active; 'I' for Inactive)
REMARK    1  A    between atoms: C_5  and  C_6 
REMARK    2  A    between atoms: C_6  and  N_7 
REMARK       I    between atoms: N_7  and  C_8 
REMARK       I    between atoms: C_8  and  N_10 
REMARK    3  A    between atoms: N_10  and  C_11 
ROOT
HETATM    1  N   UNL     1     -42.318 -51.174  11.987  1.00  0.00    -0.342 N 
HETATM    2  C   UNL     1     -41.953 -49.853  12.121  1.00  0.00     0.321 C 
HETATM    3  O   UNL     1     -41.874 -49.287  13.205  1.00  0.00    -0.247 OA
HETATM    4  N   UNL     1     -41.765 -49.260  10.896  1.00  0.00    -0.295 N 
HETATM    5  H   UNL     1     -41.940 -51.660  11.186  1.00  0.00     0.164 HD
HETATM    6  H   UNL     1     -42.398 -49.573  10.173  1.00  0.00     0.172 HD
ENDROOT
BRANCH   1   7
HETATM    7  C   UNL     1     -42.710 -51.963  13.141  1.00  0.00     0.129 C 
BRANCH   7   8
HETATM    8  C   UNL     1     -44.226 -51.919  13.386  1.00  0.00     0.007 C 
HETATM    9  C   UNL     1     -44.609 -52.064  14.870  1.00  0.00     0.036 C 
HETATM   10  C   UNL     1     -44.379 -53.486  15.395  1.00  0.00     0.272 C 
HETATM   11  N   UNL     1     -45.040 -54.527  14.597  1.00  0.00     0.084 N 
HETATM   12  C   UNL     1     -46.481 -54.575  14.832  1.00  0.00     0.309 C 
HETATM   13  C   UNL     1     -44.710 -54.415  13.174  1.00  0.00     0.272 C 
HETATM   14  C   UNL     1     -44.939 -53.020  12.582  1.00  0.00     0.036 C 
ENDBRANCH   7   8
ENDBRANCH   1   7
BRANCH   4  15
HETATM   15  C   UNL     1     -41.463 -47.900  10.774  1.00  0.00     0.108 A 
HETATM   16  C   UNL     1     -42.403 -46.979  10.325  1.00  0.00     0.049 A 
HETATM   17  C   UNL     1     -42.017 -45.649  10.177  1.00  0.00     0.005 A 
HETATM   18  C   UNL     1     -40.705 -45.292  10.458  1.00  0.00     0.017 A 
HETATM   19  C   UNL     1     -39.844 -46.274  10.920  1.00  0.00     0.089 A 
HETATM   20  N   UNL     1     -40.205 -47.562  11.121  1.00  0.00    -0.352 N 
ATOM     21  HN  UNL     1     -39.558 -48.244  11.516  1.00  0.00     0.166 HD
ENDBRANCH   4  15
TORSDOF 3
ENDMDL
MODEL 8
REMARK VINA RESULT:      -5.4      2.792      3.959
REMARK  3 active torsions:
REMARK  status: ('A' for Active; 'I' for Inactive)
REMARK    1  A    between atoms: C_5  and  C_6 
REMARK    2  A    between atoms: C_6  and  N_7 
REMARK       I    between atoms: N_7  and  C_8 
REMARK       I    between atoms: C_8  and  N_10 
REMARK    3  A    between atoms: N_10  and  C_11 
ROOT
HETATM    1  N   UNL     1     -41.473 -50.419  11.307  1.00  0.00    -0.342 N 
HETATM    2  C   UNL     1     -41.906 -51.213  12.345  1.00  0.00     0.321 C 
HETATM    3  O   UNL     1     -41.637 -50.986  13.519  1.00  0.00    -0.247 OA
HETATM    4  N   UNL     1     -42.602 -52.303  11.884  1.00  0.00    -0.295 N 
HETATM    5  H   UNL     1     -42.067 -50.394  10.491  1.00  0.00     0.164 HD
HETATM    6  H   UNL     1     -42.256 -52.692  11.018  1.00  0.00     0.172 HD
ENDROOT
BRANCH   1   7
HETATM    7  C   UNL     1     -40.593 -49.289  11.545  1.00  0.00     0.129 C 
BRANCH   7   8
HETATM    8  C   UNL     1     -41.322 -48.120  12.225  1.00  0.00     0.007 C 
HETATM    9  C   UNL     1     -42.644 -47.740  11.536  1.00  0.00     0.036 C 
HETATM   10  C   UNL     1     -42.420 -47.055  10.183  1.00  0.00     0.272 C 
HETATM   11  N   UNL     1     -41.531 -45.889  10.249  1.00  0.00     0.084 N 
HETATM   12  C   UNL     1     -42.187 -44.722  10.834  1.00  0.00     0.309 C 
HETATM   13  C   UNL     1     -40.263 -46.207  10.911  1.00  0.00     0.272 C 
HETATM   14  C   UNL     1     -40.419 -46.875  12.281  1.00  0.00     0.036 C 
ENDBRANCH   7   8
ENDBRANCH   1   7
BRANCH   4  15
HETATM   15  C   UNL     1     -43.077 -53.295  12.748  1.00  0.00     0.108 A 
HETATM   16  C   UNL     1     -44.407 -53.702  12.736  1.00  0.00     0.049 A 
HETATM   17  C   UNL     1     -44.822 -54.656  13.661  1.00  0.00     0.005 A 
HETATM   18  C   UNL     1     -43.905 -55.153  14.577  1.00  0.00     0.017 A 
HETATM   19  C   UNL     1     -42.595 -54.705  14.500  1.00  0.00     0.089 A 
HETATM   20  N   UNL     1     -42.153 -53.816  13.581  1.00  0.00    -0.352 N 
ATOM     21  HN  UNL     1     -41.170 -53.553  13.519  1.00  0.00     0.166 HD
ENDBRANCH   4  15
TORSDOF 3
ENDMDL
MODEL 9
REMARK VINA RESULT:      -5.3      2.015      2.388
REMARK  3 active torsions:
REMARK  status: ('A' for Active; 'I' for Inactive)
REMARK    1  A    between atoms: C_5  and  C_6 
REMARK    2  A    between atoms: C_6  and  N_7 
REMARK       I    between atoms: N_7  and  C_8 
REMARK       I    between atoms: C_8  and  N_10 
REMARK    3  A    between atoms: N_10  and  C_11 
ROOT
HETATM    1  N   UNL     1     -41.764 -50.101  11.699  1.00  0.00    -0.342 N 
HETATM    2  C   UNL     1     -42.507 -50.677  12.703  1.00  0.00     0.321 C 
HETATM    3  O   UNL     1     -42.034 -51.457  13.523  1.00  0.00    -0.247 OA
HETATM    4  N   UNL     1     -43.830 -50.319  12.616  1.00  0.00    -0.295 N 
HETATM    5  H   UNL     1     -42.074 -49.193  11.383  1.00  0.00     0.164 HD
HETATM    6  H   UNL     1     -44.181 -50.225  11.674  1.00  0.00     0.172 HD
ENDROOT
BRANCH   1   7
HETATM    7  C   UNL     1     -40.368 -50.450  11.504  1.00  0.00     0.129 C 
BRANCH   7   8
HETATM    8  C   UNL     1     -39.449 -49.220  11.554  1.00  0.00     0.007 C 
HETATM    9  C   UNL     1     -37.970 -49.572  11.794  1.00  0.00     0.036 C 
HETATM   10  C   UNL     1     -37.711 -50.055  13.226  1.00  0.00     0.272 C 
HETATM   11  N   UNL     1     -38.184 -49.125  14.260  1.00  0.00     0.084 N 
HETATM   12  C   UNL     1     -37.315 -47.958  14.397  1.00  0.00     0.309 C 
HETATM   13  C   UNL     1     -39.587 -48.755  14.058  1.00  0.00     0.272 C 
HETATM   14  C   UNL     1     -39.908 -48.243  12.650  1.00  0.00     0.036 C 
ENDBRANCH   7   8
ENDBRANCH   1   7
BRANCH   4  15
HETATM   15  C   UNL     1     -44.795 -50.841  13.484  1.00  0.00     0.108 A 
HETATM   16  C   UNL     1     -45.939 -51.473  13.011  1.00  0.00     0.049 A 
HETATM   17  C   UNL     1     -46.883 -51.921  13.931  1.00  0.00     0.005 A 
HETATM   18  C   UNL     1     -46.664 -51.701  15.284  1.00  0.00     0.017 A 
HETATM   19  C   UNL     1     -45.485 -51.081  15.664  1.00  0.00     0.089 A 
HETATM   20  N   UNL     1     -44.527 -50.681  14.796  1.00  0.00    -0.352 N 
ATOM     21  HN  UNL     1     -43.647 -50.279  15.117  1.00  0.00     0.166 HD
ENDBRANCH   4  15
TORSDOF 3
ENDMDL
