MODEL 1
REMARK VINA RESULT:      -5.8      0.000      0.000
REMARK  4 active torsions:
REMARK  status: ('A' for Active; 'I' for Inactive)
REMARK    1  A    between atoms: O_2  and  C_3 
REMARK    2  A    between atoms: C_6  and  N_7 
REMARK       I    between atoms: N_7  and  C_8 
REMARK    3  A    between atoms: C_8  and  C_10 
REMARK    4  A    between atoms: C_10  and  N_11 
ROOT
HETATM    1  N   UNL     1     -43.696 -50.273  12.619  1.00  0.00    -0.354 N 
HETATM    2  C   UNL     1     -43.081 -49.031  12.577  1.00  0.00     0.237 C 
HETATM    3  O   UNL     1     -43.113 -48.237  13.516  1.00  0.00    -0.272 OA
HETATM    4  H   UNL     1     -43.820 -50.743  11.725  1.00  0.00     0.162 HD
ENDROOT
BRANCH   1   5
HETATM    5  C   UNL     1     -44.441 -50.734  13.818  1.00  0.00     0.098 C 
HETATM    6  C   UNL     1     -43.817 -51.978  14.505  1.00  0.00     0.064 C 
HETATM    7  C   UNL     1     -44.805 -52.891  13.715  1.00  0.00     0.067 C 
HETATM    8  C   UNL     1     -44.122 -53.481  12.475  1.00  0.00     0.047 C 
HETATM    9  C   UNL     1     -45.725 -51.601  13.558  1.00  0.00     0.004 C 
HETATM   10  C   UNL     1     -46.445 -51.439  12.221  1.00  0.00     0.020 C 
HETATM   11  C   UNL     1     -46.741 -51.406  14.704  1.00  0.00     0.020 C 
BRANCH   7  12
HETATM   12  O   UNL     1     -45.363 -53.965  14.522  1.00  0.00    -0.384 OA
HETATM   13  C   UNL     1     -45.602 -55.217  13.893  1.00  0.00     0.202 C 
ENDBRANCH   7  12
ENDBRANCH   1   5
BRANCH   2  14
HETATM   14  C   UNL     1     -42.336 -48.731  11.304  1.00  0.00     0.250 C 
BRANCH  14  15
HETATM   15  N   UNL     1     -43.049 -47.756  10.514  1.00  0.00    -0.295 N 
HETATM   16  C   UNL     1     -42.588 -46.540  10.098  1.00  0.00     0.112 A 
HETATM   17  C   UNL     1     -43.599 -45.984   9.352  1.00  0.00     0.037 A 
HETATM   18  C   UNL     1     -44.625 -46.948   9.369  1.00  0.00     0.108 A 
HETATM   19  N   UNL     1     -44.294 -48.034  10.073  1.00  0.00    -0.310 N 
ATOM     20  HN  UNL     1     -44.850 -48.874  10.238  1.00  0.00     0.186 HD
ENDBRANCH  14  15
ENDBRANCH   2  14
TORSDOF 4
ENDMDL
MODEL 2
REMARK VINA RESULT:      -5.6      3.155      4.378
REMARK  4 active torsions:
REMARK  status: ('A' for Active; 'I' for Inactive)
REMARK    1  A    between atoms: O_2  and  C_3 
REMARK    2  A    between atoms: C_6  and  N_7 
REMARK       I    between atoms: N_7  and  C_8 
REMARK    3  A    between atoms: C_8  and  C_10 
REMARK    4  A    between atoms: C_10  and  N_11 
ROOT
HETATM    1  N   UNL     1     -42.561 -51.800  12.177  1.00  0.00    -0.354 N 
HETATM    2  C   UNL     1     -41.210 -51.617  11.925  1.00  0.00     0.237 C 
HETATM    3  O   UNL     1     -40.375 -52.507  12.075  1.00  0.00    -0.272 OA
HETATM    4  H   UNL     1     -43.122 -50.955  12.258  1.00  0.00     0.162 HD
ENDROOT
BRANCH   1   5
HETATM    5  C   UNL     1     -43.096 -53.103  12.648  1.00  0.00     0.098 C 
HETATM    6  C   UNL     1     -44.606 -53.307  12.348  1.00  0.00     0.064 C 
HETATM    7  C   UNL     1     -44.944 -52.808  13.787  1.00  0.00     0.067 C 
HETATM    8  C   UNL     1     -45.344 -51.328  13.765  1.00  0.00     0.047 C 
HETATM    9  C   UNL     1     -43.452 -53.206  14.176  1.00  0.00     0.004 C 
HETATM   10  C   UNL     1     -42.731 -52.274  15.147  1.00  0.00     0.020 C 
HETATM   11  C   UNL     1     -43.292 -54.662  14.663  1.00  0.00     0.020 C 
BRANCH   7  12
HETATM   12  O   UNL     1     -45.989 -53.587  14.434  1.00  0.00    -0.384 OA
HETATM   13  C   UNL     1     -47.027 -52.884  15.103  1.00  0.00     0.202 C 
ENDBRANCH   7  12
ENDBRANCH   1   5
BRANCH   2  14
HETATM   14  C   UNL     1     -40.836 -50.250  11.417  1.00  0.00     0.250 C 
BRANCH  14  15
HETATM   15  N   UNL     1     -39.467 -49.941  11.751  1.00  0.00    -0.295 N 
HETATM   16  C   UNL     1     -39.006 -49.409  12.922  1.00  0.00     0.112 A 
HETATM   17  C   UNL     1     -37.641 -49.326  12.792  1.00  0.00     0.037 A 
HETATM   18  C   UNL     1     -37.374 -49.840  11.510  1.00  0.00     0.108 A 
HETATM   19  N   UNL     1     -38.484 -50.222  10.871  1.00  0.00    -0.310 N 
ATOM     20  HN  UNL     1     -38.567 -50.629   9.939  1.00  0.00     0.186 HD
ENDBRANCH  14  15
ENDBRANCH   2  14
TORSDOF 4
ENDMDL
MODEL 3
REMARK VINA RESULT:      -5.5      1.759      2.714
REMARK  4 active torsions:
REMARK  status: ('A' for Active; 'I' for Inactive)
REMARK    1  A    between atoms: O_2  and  C_3 
REMARK    2  A    between atoms: C_6  and  N_7 
REMARK       I    between atoms: N_7  and  C_8 
REMARK    3  A    between atoms: C_8  and  C_10 
REMARK    4  A    between atoms: C_10  and  N_11 
ROOT
HETATM    1  N   UNL     1     -43.885 -50.271  12.788  1.00  0.00    -0.354 N 
HETATM    2  C   UNL     1     -43.080 -49.147  12.887  1.00  0.00     0.237 C 
HETATM    3  O   UNL     1     -42.925 -48.525  13.937  1.00  0.00    -0.272 OA
HETATM    4  H   UNL     1     -44.137 -50.561  11.846  1.00  0.00     0.162 HD
ENDROOT
BRANCH   1   5
HETATM    5  C   UNL     1     -44.622 -50.807  13.961  1.00  0.00     0.098 C 
HETATM    6  C   UNL     1     -43.956 -52.053  14.605  1.00  0.00     0.064 C 
HETATM    7  C   UNL     1     -44.900 -52.971  13.770  1.00  0.00     0.067 C 
HETATM    8  C   UNL     1     -44.183 -53.485  12.515  1.00  0.00     0.047 C 
HETATM    9  C   UNL     1     -45.869 -51.713  13.653  1.00  0.00     0.004 C 
HETATM   10  C   UNL     1     -46.583 -51.527  12.316  1.00  0.00     0.020 C 
HETATM   11  C   UNL     1     -46.902 -51.603  14.795  1.00  0.00     0.020 C 
BRANCH   7  12
HETATM   12  O   UNL     1     -45.423 -54.097  14.528  1.00  0.00    -0.384 OA
HETATM   13  C   UNL     1     -45.607 -55.332  13.848  1.00  0.00     0.202 C 
ENDBRANCH   7  12
ENDBRANCH   1   5
BRANCH   2  14
HETATM   14  C   UNL     1     -42.373 -48.755  11.616  1.00  0.00     0.250 C 
BRANCH  14  15
HETATM   15  N   UNL     1     -40.947 -48.926  11.754  1.00  0.00    -0.295 N 
HETATM   16  C   UNL     1     -40.191 -49.952  11.264  1.00  0.00     0.112 A 
HETATM   17  C   UNL     1     -38.893 -49.669  11.613  1.00  0.00     0.037 A 
HETATM   18  C   UNL     1     -38.968 -48.445  12.303  1.00  0.00     0.108 A 
HETATM   19  N   UNL     1     -40.219 -47.983  12.389  1.00  0.00    -0.310 N 
ATOM     20  HN  UNL     1     -40.546 -47.123  12.829  1.00  0.00     0.186 HD
ENDBRANCH  14  15
ENDBRANCH   2  14
TORSDOF 4
ENDMDL
MODEL 4
REMARK VINA RESULT:      -5.1      1.352      2.342
REMARK  4 active torsions:
REMARK  status: ('A' for Active; 'I' for Inactive)
REMARK    1  A    between atoms: O_2  and  C_3 
REMARK    2  A    between atoms: C_6  and  N_7 
REMARK       I    between atoms: N_7  and  C_8 
REMARK    3  A    between atoms: C_8  and  C_10 
REMARK    4  A    between atoms: C_10  and  N_11 
ROOT
HETATM    1  N   UNL     1     -43.435 -50.212  12.618  1.00  0.00    -0.354 N 
HETATM    2  C   UNL     1     -42.507 -49.336  12.076  1.00  0.00     0.237 C 
HETATM    3  O   UNL     1     -41.351 -49.665  11.812  1.00  0.00    -0.272 OA
HETATM    4  H   UNL     1     -44.269 -49.790  13.019  1.00  0.00     0.162 HD
ENDROOT
BRANCH   1   5
HETATM    5  C   UNL     1     -43.090 -51.625  12.917  1.00  0.00     0.098 C 
HETATM    6  C   UNL     1     -44.205 -52.637  12.540  1.00  0.00     0.064 C 
HETATM    7  C   UNL     1     -44.719 -52.597  14.012  1.00  0.00     0.067 C 
HETATM    8  C   UNL     1     -45.909 -51.640  14.144  1.00  0.00     0.047 C 
HETATM    9  C   UNL     1     -43.263 -52.090  14.409  1.00  0.00     0.004 C 
HETATM   10  C   UNL     1     -43.188 -51.031  15.507  1.00  0.00     0.020 C 
HETATM   11  C   UNL     1     -42.264 -53.222  14.733  1.00  0.00     0.020 C 
BRANCH   7  12
HETATM   12  O   UNL     1     -45.088 -53.907  14.526  1.00  0.00    -0.384 OA
HETATM   13  C   UNL     1     -46.448 -54.131  14.870  1.00  0.00     0.202 C 
ENDBRANCH   7  12
ENDBRANCH   1   5
BRANCH   2  14
HETATM   14  C   UNL     1     -43.025 -47.950  11.797  1.00  0.00     0.250 C 
BRANCH  14  15
HETATM   15  N   UNL     1     -43.439 -47.829  10.420  1.00  0.00    -0.295 N 
HETATM   16  C   UNL     1     -44.670 -47.456   9.962  1.00  0.00     0.112 A 
HETATM   17  C   UNL     1     -44.581 -47.452   8.591  1.00  0.00     0.037 A 
HETATM   18  C   UNL     1     -43.253 -47.828   8.319  1.00  0.00     0.108 A 
HETATM   19  N   UNL     1     -42.548 -48.056   9.432  1.00  0.00    -0.310 N 
ATOM     20  HN  UNL     1     -41.570 -48.334   9.514  1.00  0.00     0.186 HD
ENDBRANCH  14  15
ENDBRANCH   2  14
TORSDOF 4
ENDMDL
MODEL 5
REMARK VINA RESULT:      -5.1      3.928      8.001
REMARK  4 active torsions:
REMARK  status: ('A' for Active; 'I' for Inactive)
REMARK    1  A    between atoms: O_2  and  C_3 
REMARK    2  A    between atoms: C_6  and  N_7 
REMARK       I    between atoms: N_7  and  C_8 
REMARK    3  A    between atoms: C_8  and  C_10 
REMARK    4  A    between atoms: C_10  and  N_11 
ROOT
HETATM    1  N   UNL     1     -39.929 -47.119  11.215  1.00  0.00    -0.354 N 
HETATM    2  C   UNL     1     -40.473 -48.390  11.126  1.00  0.00     0.237 C 
HETATM    3  O   UNL     1     -41.554 -48.618  10.585  1.00  0.00    -0.272 OA
HETATM    4  H   UNL     1     -39.169 -47.002  11.882  1.00  0.00     0.162 HD
ENDROOT
BRANCH   1   5
HETATM    5  C   UNL     1     -40.623 -45.932  10.654  1.00  0.00     0.098 C 
HETATM    6  C   UNL     1     -39.679 -44.738  10.348  1.00  0.00     0.064 C 
HETATM    7  C   UNL     1     -40.038 -44.118  11.734  1.00  0.00     0.067 C 
HETATM    8  C   UNL     1     -38.958 -44.448  12.770  1.00  0.00     0.047 C 
HETATM    9  C   UNL     1     -41.363 -45.000  11.682  1.00  0.00     0.004 C 
HETATM   10  C   UNL     1     -41.827 -45.608  13.003  1.00  0.00     0.020 C 
HETATM   11  C   UNL     1     -42.561 -44.302  11.001  1.00  0.00     0.020 C 
BRANCH   7  12
HETATM   12  O   UNL     1     -40.241 -42.678  11.682  1.00  0.00    -0.384 OA
HETATM   13  C   UNL     1     -39.862 -41.910  12.816  1.00  0.00     0.202 C 
ENDBRANCH   7  12
ENDBRANCH   1   5
BRANCH   2  14
HETATM   14  C   UNL     1     -39.627 -49.490  11.710  1.00  0.00     0.250 C 
BRANCH  14  15
HETATM   15  N   UNL     1     -40.454 -50.580  12.167  1.00  0.00    -0.295 N 
HETATM   16  C   UNL     1     -40.905 -50.792  13.439  1.00  0.00     0.112 A 
HETATM   17  C   UNL     1     -41.679 -51.926  13.385  1.00  0.00     0.037 A 
HETATM   18  C   UNL     1     -41.640 -52.319  12.034  1.00  0.00     0.108 A 
HETATM   19  N   UNL     1     -40.898 -51.499  11.284  1.00  0.00    -0.310 N 
ATOM     20  HN  UNL     1     -40.712 -51.554  10.283  1.00  0.00     0.186 HD
ENDBRANCH  14  15
ENDBRANCH   2  14
TORSDOF 4
ENDMDL
MODEL 6
REMARK VINA RESULT:      -5.1      4.594      5.945
REMARK  4 active torsions:
REMARK  status: ('A' for Active; 'I' for Inactive)
REMARK    1  A    between atoms: O_2  and  C_3 
REMARK    2  A    between atoms: C_6  and  N_7 
REMARK       I    between atoms: N_7  and  C_8 
REMARK    3  A    between atoms: C_8  and  C_10 
REMARK    4  A    between atoms: C_10  and  N_11 
ROOT
HETATM    1  N   UNL     1     -39.942 -48.462  12.308  1.00  0.00    -0.354 N 
HETATM    2  C   UNL     1     -41.149 -48.134  11.710  1.00  0.00     0.237 C 
HETATM    3  O   UNL     1     -42.190 -48.753  11.921  1.00  0.00    -0.272 OA
HETATM    4  H   UNL     1     -39.109 -48.055  11.890  1.00  0.00     0.162 HD
ENDROOT
BRANCH   1   5
HETATM    5  C   UNL     1     -39.827 -49.598  13.258  1.00  0.00     0.098 C 
HETATM    6  C   UNL     1     -39.567 -49.164  14.726  1.00  0.00     0.064 C 
HETATM    7  C   UNL     1     -38.038 -49.379  14.503  1.00  0.00     0.067 C 
HETATM    8  C   UNL     1     -37.344 -48.047  14.197  1.00  0.00     0.047 C 
HETATM    9  C   UNL     1     -38.442 -50.341  13.300  1.00  0.00     0.004 C 
HETATM   10  C   UNL     1     -37.557 -50.285  12.058  1.00  0.00     0.020 C 
HETATM   11  C   UNL     1     -38.643 -51.816  13.710  1.00  0.00     0.020 C 
BRANCH   7  12
HETATM   12  O   UNL     1     -37.380 -50.025  15.628  1.00  0.00    -0.384 OA
HETATM   13  C   UNL     1     -36.198 -49.426  16.143  1.00  0.00     0.202 C 
ENDBRANCH   7  12
ENDBRANCH   1   5
BRANCH   2  14
HETATM   14  C   UNL     1     -41.105 -46.934  10.801  1.00  0.00     0.250 C 
BRANCH  14  15
HETATM   15  N   UNL     1     -42.258 -46.909   9.935  1.00  0.00    -0.295 N 
HETATM   16  C   UNL     1     -43.151 -45.887   9.783  1.00  0.00     0.112 A 
HETATM   17  C   UNL     1     -44.052 -46.305   8.833  1.00  0.00     0.037 A 
HETATM   18  C   UNL     1     -43.610 -47.590   8.465  1.00  0.00     0.108 A 
HETATM   19  N   UNL     1     -42.513 -47.963   9.130  1.00  0.00    -0.310 N 
ATOM     20  HN  UNL     1     -41.992 -48.836   9.050  1.00  0.00     0.186 HD
ENDBRANCH  14  15
ENDBRANCH   2  14
TORSDOF 4
ENDMDL
MODEL 7
REMARK VINA RESULT:      -5.0      2.591      3.549
REMARK  4 active torsions:
REMARK  status: ('A' for Active; 'I' for Inactive)
REMARK    1  A    between atoms: O_2  and  C_3 
REMARK    2  A    between atoms: C_6  and  N_7 
REMARK       I    between atoms: N_7  and  C_8 
REMARK    3  A    between atoms: C_8  and  C_10 
REMARK    4  A    between atoms: C_10  and  N_11 
ROOT
HETATM    1  N   UNL     1     -41.535 -50.373  11.556  1.00  0.00    -0.354 N 
HETATM    2  C   UNL     1     -40.980 -49.138  11.255  1.00  0.00     0.237 C 
HETATM    3  O   UNL     1     -39.852 -48.807  11.615  1.00  0.00    -0.272 OA
HETATM    4  H   UNL     1     -42.541 -50.456  11.429  1.00  0.00     0.162 HD
ENDROOT
BRANCH   1   5
HETATM    5  C   UNL     1     -40.791 -51.391  12.341  1.00  0.00     0.098 C 
HETATM    6  C   UNL     1     -41.138 -52.855  11.958  1.00  0.00     0.064 C 
HETATM    7  C   UNL     1     -42.163 -52.903  13.132  1.00  0.00     0.067 C 
HETATM    8  C   UNL     1     -43.585 -52.644  12.620  1.00  0.00     0.047 C 
HETATM    9  C   UNL     1     -41.338 -51.706  13.780  1.00  0.00     0.004 C 
HETATM   10  C   UNL     1     -42.150 -50.628  14.494  1.00  0.00     0.020 C 
HETATM   11  C   UNL     1     -40.183 -52.158  14.701  1.00  0.00     0.020 C 
BRANCH   7  12
HETATM   12  O   UNL     1     -42.132 -54.157  13.870  1.00  0.00    -0.384 OA
HETATM   13  C   UNL     1     -43.350 -54.635  14.425  1.00  0.00     0.202 C 
ENDBRANCH   7  12
ENDBRANCH   1   5
BRANCH   2  14
HETATM   14  C   UNL     1     -41.849 -48.235  10.421  1.00  0.00     0.250 C 
BRANCH  14  15
HETATM   15  N   UNL     1     -41.527 -46.850  10.667  1.00  0.00    -0.295 N 
HETATM   16  C   UNL     1     -42.283 -45.939  11.348  1.00  0.00     0.112 A 
HETATM   17  C   UNL     1     -41.560 -44.772  11.354  1.00  0.00     0.037 A 
HETATM   18  C   UNL     1     -40.376 -45.083  10.660  1.00  0.00     0.108 A 
HETATM   19  N   UNL     1     -40.347 -46.351  10.242  1.00  0.00    -0.310 N 
ATOM     20  HN  UNL     1     -39.609 -46.829   9.724  1.00  0.00     0.186 HD
ENDBRANCH  14  15
ENDBRANCH   2  14
TORSDOF 4
ENDMDL
MODEL 8
REMARK VINA RESULT:      -5.0      1.970      2.627
REMARK  4 active torsions:
REMARK  status: ('A' for Active; 'I' for Inactive)
REMARK    1  A    between atoms: O_2  and  C_3 
REMARK    2  A    between atoms: C_6  and  N_7 
REMARK       I    between atoms: N_7  and  C_8 
REMARK    3  A    between atoms: C_8  and  C_10 
REMARK    4  A    between atoms: C_10  and  N_11 
ROOT
HETATM    1  N   UNL     1     -41.503 -51.936  12.869  1.00  0.00    -0.354 N 
HETATM    2  C   UNL     1     -40.767 -50.761  12.898  1.00  0.00     0.237 C 
HETATM    3  O   UNL     1     -40.341 -50.265  13.940  1.00  0.00    -0.272 OA
HETATM    4  H   UNL     1     -42.008 -52.127  12.007  1.00  0.00     0.162 HD
ENDROOT
BRANCH   1   5
HETATM    5  C   UNL     1     -41.826 -52.684  14.110  1.00  0.00     0.098 C 
HETATM    6  C   UNL     1     -42.139 -54.187  13.874  1.00  0.00     0.064 C 
HETATM    7  C   UNL     1     -43.662 -53.850  13.848  1.00  0.00     0.067 C 
HETATM    8  C   UNL     1     -44.163 -53.724  12.405  1.00  0.00     0.047 C 
HETATM    9  C   UNL     1     -43.291 -52.532  14.661  1.00  0.00     0.004 C 
HETATM   10  C   UNL     1     -44.069 -51.269  14.301  1.00  0.00     0.020 C 
HETATM   11  C   UNL     1     -43.303 -52.711  16.195  1.00  0.00     0.020 C 
BRANCH   7  12
HETATM   12  O   UNL     1     -44.476 -54.820  14.564  1.00  0.00    -0.384 OA
HETATM   13  C   UNL     1     -45.651 -55.304  13.929  1.00  0.00     0.202 C 
ENDBRANCH   7  12
ENDBRANCH   1   5
BRANCH   2  14
HETATM   14  C   UNL     1     -40.494 -50.145  11.552  1.00  0.00     0.250 C 
BRANCH  14  15
HETATM   15  N   UNL     1     -41.524 -49.195  11.208  1.00  0.00    -0.295 N 
HETATM   16  C   UNL     1     -42.550 -48.772  12.004  1.00  0.00     0.112 A 
HETATM   17  C   UNL     1     -43.250 -47.849  11.265  1.00  0.00     0.037 A 
HETATM   18  C   UNL     1     -42.560 -47.777  10.040  1.00  0.00     0.108 A 
HETATM   19  N   UNL     1     -41.503 -48.593  10.001  1.00  0.00    -0.310 N 
ATOM     20  HN  UNL     1     -40.838 -48.729   9.239  1.00  0.00     0.186 HD
ENDBRANCH  14  15
ENDBRANCH   2  14
TORSDOF 4
ENDMDL
MODEL 9
REMARK VINA RESULT:      -5.0      3.584      4.680
REMARK  4 active torsions:
REMARK  status: ('A' for Active; 'I' for Inactive)
REMARK    1  A    between atoms: O_2  and  C_3 
REMARK    2  A    between atoms: C_6  and  N_7 
REMARK       I    between atoms: N_7  and  C_8 
REMARK    3  A    between atoms: C_8  and  C_10 
REMARK    4  A    between atoms: C_10  and  N_11 
ROOT
HETATM    1  N   UNL     1     -41.662 -49.579  11.989  1.00  0.00    -0.354 N 
HETATM    2  C   UNL     1     -42.081 -48.562  11.145  1.00  0.00     0.237 C 
HETATM    3  O   UNL     1     -41.493 -48.272  10.104  1.00  0.00    -0.272 OA
HETATM    4  H   UNL     1     -42.061 -49.578  12.925  1.00  0.00     0.162 HD
ENDROOT
BRANCH   1   5
HETATM    5  C   UNL     1     -40.461 -50.398  11.687  1.00  0.00     0.098 C 
HETATM    6  C   UNL     1     -40.660 -51.918  11.932  1.00  0.00     0.064 C 
HETATM    7  C   UNL     1     -40.021 -51.758  13.346  1.00  0.00     0.067 C 
HETATM    8  C   UNL     1     -41.109 -51.646  14.421  1.00  0.00     0.047 C 
HETATM    9  C   UNL     1     -39.339 -50.432  12.787  1.00  0.00     0.004 C 
HETATM   10  C   UNL     1     -39.243 -49.256  13.756  1.00  0.00     0.020 C 
HETATM   11  C   UNL     1     -37.959 -50.659  12.133  1.00  0.00     0.020 C 
BRANCH   7  12
HETATM   12  O   UNL     1     -39.107 -52.837  13.688  1.00  0.00    -0.384 OA
HETATM   13  C   UNL     1     -39.141 -53.345  15.015  1.00  0.00     0.202 C 
ENDBRANCH   7  12
ENDBRANCH   1   5
BRANCH   2  14
HETATM   14  C   UNL     1     -43.337 -47.852  11.575  1.00  0.00     0.250 C 
BRANCH  14  15
HETATM   15  N   UNL     1     -43.934 -47.155  10.462  1.00  0.00    -0.295 N 
HETATM   16  C   UNL     1     -45.038 -47.533   9.752  1.00  0.00     0.112 A 
HETATM   17  C   UNL     1     -45.247 -46.548   8.818  1.00  0.00     0.037 A 
HETATM   18  C   UNL     1     -44.221 -45.613   9.051  1.00  0.00     0.108 A 
HETATM   19  N   UNL     1     -43.419 -45.976  10.056  1.00  0.00    -0.310 N 
ATOM     20  HN  UNL     1     -42.609 -45.479  10.429  1.00  0.00     0.186 HD
ENDBRANCH  14  15
ENDBRANCH   2  14
TORSDOF 4
ENDMDL
