MODEL 1
REMARK VINA RESULT:      -6.2      0.000      0.000
REMARK  4 active torsions:
REMARK  status: ('A' for Active; 'I' for Inactive)
REMARK    1  A    between atoms: O_2  and  C_3 
REMARK    2  A    between atoms: C_3  and  C_4 
REMARK    3  A    between atoms: C_4  and  N_5 
REMARK    4  A    between atoms: C_6  and  N_18 
ROOT
HETATM    1  N   UNL     1     -41.508 -51.576  12.561  1.00  0.00    -0.172 N 
HETATM    2  C   UNL     1     -42.844 -51.292  12.842  1.00  0.00     0.684 A 
HETATM    3  N   UNL     1     -43.127 -50.053  12.479  1.00  0.00    -0.174 N 
ATOM      4  HN  UNL     1     -44.042 -49.602  12.493  1.00  0.00     0.186 HD
HETATM    5  C   UNL     1     -41.950 -49.500  12.085  1.00  0.00     0.160 A 
HETATM    6  N   UNL     1     -41.744 -48.198  11.671  1.00  0.00    -0.287 N 
HETATM    7  C   UNL     1     -42.808 -47.220  11.614  1.00  0.00     0.163 C 
HETATM    8  C   UNL     1     -40.463 -47.806  11.297  1.00  0.00     0.330 A 
HETATM    9  O   UNL     1     -40.180 -46.666  10.921  1.00  0.00    -0.246 OA
HETATM   10  N   UNL     1     -39.469 -48.758  11.365  1.00  0.00    -0.273 N 
HETATM   11  C   UNL     1     -39.596 -50.068  11.755  1.00  0.00     0.280 A 
HETATM   12  O   UNL     1     -38.633 -50.826  11.763  1.00  0.00    -0.265 OA
HETATM   13  C   UNL     1     -40.930 -50.407  12.130  1.00  0.00     0.164 A 
HETATM   14  H   UNL     1     -38.546 -48.456  11.092  1.00  0.00     0.173 HD
ENDROOT
BRANCH   2  15
HETATM   15  N   UNL     1     -43.734 -52.192  13.351  1.00  0.00    -0.217 N 
HETATM   16  C   UNL     1     -43.785 -52.394  14.803  1.00  0.00     0.141 C 
HETATM   17  C   UNL     1     -43.772 -53.881  15.170  1.00  0.00     0.024 C 
HETATM   18  C   UNL     1     -44.798 -54.706  14.383  1.00  0.00    -0.015 C 
HETATM   19  C   UNL     1     -46.240 -54.407  14.804  1.00  0.00     0.010 C 
HETATM   20  C   UNL     1     -44.577 -54.466  12.891  1.00  0.00     0.024 C 
HETATM   21  C   UNL     1     -44.634 -52.988  12.524  1.00  0.00     0.141 C 
ENDBRANCH   2  15
BRANCH   1  22
HETATM   22  C   UNL     1     -40.850 -52.866  12.581  1.00  0.00     0.174 C 
BRANCH  22  23
HETATM   23  C   UNL     1     -40.178 -53.195  13.909  1.00  0.00     0.187 C 
BRANCH  23  24
HETATM   24  O   UNL     1     -39.169 -54.179  13.675  1.00  0.00    -0.394 OA
HETATM   25  C   UNL     1     -38.939 -54.969  14.835  1.00  0.00     0.201 C 
ENDBRANCH  23  24
ENDBRANCH  22  23
ENDBRANCH   1  22
TORSDOF 4
ENDMDL
MODEL 2
REMARK VINA RESULT:      -6.0      1.879      2.645
REMARK  4 active torsions:
REMARK  status: ('A' for Active; 'I' for Inactive)
REMARK    1  A    between atoms: O_2  and  C_3 
REMARK    2  A    between atoms: C_3  and  C_4 
REMARK    3  A    between atoms: C_4  and  N_5 
REMARK    4  A    between atoms: C_6  and  N_18 
ROOT
HETATM    1  N   UNL     1     -40.796 -49.593  12.999  1.00  0.00    -0.172 N 
HETATM    2  C   UNL     1     -41.936 -50.210  12.484  1.00  0.00     0.684 A 
HETATM    3  N   UNL     1     -42.424 -49.492  11.487  1.00  0.00    -0.174 N 
ATOM      4  HN  UNL     1     -43.203 -49.740  10.875  1.00  0.00     0.186 HD
HETATM    5  C   UNL     1     -41.679 -48.356  11.443  1.00  0.00     0.160 A 
HETATM    6  N   UNL     1     -41.858 -47.282  10.592  1.00  0.00    -0.287 N 
HETATM    7  C   UNL     1     -42.916 -47.233   9.607  1.00  0.00     0.163 C 
HETATM    8  C   UNL     1     -40.990 -46.199  10.687  1.00  0.00     0.330 A 
HETATM    9  O   UNL     1     -41.073 -45.194   9.978  1.00  0.00    -0.246 OA
HETATM   10  N   UNL     1     -39.994 -46.272  11.636  1.00  0.00    -0.273 N 
HETATM   11  C   UNL     1     -39.748 -47.304  12.507  1.00  0.00     0.280 A 
HETATM   12  O   UNL     1     -38.818 -47.257  13.304  1.00  0.00    -0.265 OA
HETATM   13  C   UNL     1     -40.672 -48.381  12.365  1.00  0.00     0.164 A 
HETATM   14  H   UNL     1     -39.375 -45.477  11.693  1.00  0.00     0.173 HD
ENDROOT
BRANCH   2  15
HETATM   15  N   UNL     1     -42.422 -51.411  12.910  1.00  0.00    -0.217 N 
HETATM   16  C   UNL     1     -43.238 -51.453  14.128  1.00  0.00     0.141 C 
HETATM   17  C   UNL     1     -42.780 -52.562  15.080  1.00  0.00     0.024 C 
HETATM   18  C   UNL     1     -42.611 -53.920  14.388  1.00  0.00    -0.015 C 
HETATM   19  C   UNL     1     -43.949 -54.544  13.983  1.00  0.00     0.010 C 
HETATM   20  C   UNL     1     -41.676 -53.746  13.193  1.00  0.00     0.024 C 
HETATM   21  C   UNL     1     -42.159 -52.673  12.226  1.00  0.00     0.141 C 
ENDBRANCH   2  15
BRANCH   1  22
HETATM   22  C   UNL     1     -39.829 -50.144  13.926  1.00  0.00     0.174 C 
BRANCH  22  23
HETATM   23  C   UNL     1     -38.825 -51.091  13.279  1.00  0.00     0.187 C 
BRANCH  23  24
HETATM   24  O   UNL     1     -37.641 -50.354  12.969  1.00  0.00    -0.394 OA
HETATM   25  C   UNL     1     -37.459 -50.235  11.564  1.00  0.00     0.201 C 
ENDBRANCH  23  24
ENDBRANCH  22  23
ENDBRANCH   1  22
TORSDOF 4
ENDMDL
MODEL 3
REMARK VINA RESULT:      -5.7      2.596      5.578
REMARK  4 active torsions:
REMARK  status: ('A' for Active; 'I' for Inactive)
REMARK    1  A    between atoms: O_2  and  C_3 
REMARK    2  A    between atoms: C_3  and  C_4 
REMARK    3  A    between atoms: C_4  and  N_5 
REMARK    4  A    between atoms: C_6  and  N_18 
ROOT
HETATM    1  N   UNL     1     -41.793 -52.641  14.689  1.00  0.00    -0.172 N 
HETATM    2  C   UNL     1     -42.773 -53.244  15.476  1.00  0.00     0.684 A 
HETATM    3  N   UNL     1     -42.255 -54.266  16.136  1.00  0.00    -0.174 N 
ATOM      4  HN  UNL     1     -42.717 -54.838  16.843  1.00  0.00     0.186 HD
HETATM    5  C   UNL     1     -40.981 -54.398  15.681  1.00  0.00     0.160 A 
HETATM    6  N   UNL     1     -40.069 -55.369  16.047  1.00  0.00    -0.287 N 
HETATM    7  C   UNL     1     -40.380 -56.416  16.996  1.00  0.00     0.163 C 
HETATM    8  C   UNL     1     -38.800 -55.347  15.477  1.00  0.00     0.330 A 
HETATM    9  O   UNL     1     -37.921 -56.173  15.735  1.00  0.00    -0.246 OA
HETATM   10  N   UNL     1     -38.533 -54.341  14.575  1.00  0.00    -0.273 N 
HETATM   11  C   UNL     1     -39.380 -53.340  14.170  1.00  0.00     0.280 A 
HETATM   12  O   UNL     1     -39.021 -52.489  13.363  1.00  0.00    -0.265 OA
HETATM   13  C   UNL     1     -40.665 -53.419  14.784  1.00  0.00     0.164 A 
HETATM   14  H   UNL     1     -37.609 -54.341  14.170  1.00  0.00     0.173 HD
ENDROOT
BRANCH   2  15
HETATM   15  N   UNL     1     -44.056 -52.794  15.591  1.00  0.00    -0.217 N 
HETATM   16  C   UNL     1     -45.056 -53.248  14.618  1.00  0.00     0.141 C 
HETATM   17  C   UNL     1     -45.876 -52.080  14.062  1.00  0.00     0.024 C 
HETATM   18  C   UNL     1     -46.433 -51.158  15.153  1.00  0.00    -0.015 C 
HETATM   19  C   UNL     1     -47.549 -51.818  15.968  1.00  0.00     0.010 C 
HETATM   20  C   UNL     1     -45.277 -50.696  16.039  1.00  0.00     0.024 C 
HETATM   21  C   UNL     1     -44.490 -51.862  16.626  1.00  0.00     0.141 C 
ENDBRANCH   2  15
BRANCH   1  22
HETATM   22  C   UNL     1     -41.865 -51.370  13.997  1.00  0.00     0.174 C 
BRANCH  22  23
HETATM   23  C   UNL     1     -42.249 -51.492  12.527  1.00  0.00     0.187 C 
BRANCH  23  24
HETATM   24  O   UNL     1     -41.575 -50.464  11.796  1.00  0.00    -0.394 OA
HETATM   25  C   UNL     1     -40.893 -49.574  12.668  1.00  0.00     0.201 C 
ENDBRANCH  23  24
ENDBRANCH  22  23
ENDBRANCH   1  22
TORSDOF 4
ENDMDL
MODEL 4
REMARK VINA RESULT:      -5.7      2.066      5.838
REMARK  4 active torsions:
REMARK  status: ('A' for Active; 'I' for Inactive)
REMARK    1  A    between atoms: O_2  and  C_3 
REMARK    2  A    between atoms: C_3  and  C_4 
REMARK    3  A    between atoms: C_4  and  N_5 
REMARK    4  A    between atoms: C_6  and  N_18 
ROOT
HETATM    1  N   UNL     1     -41.378 -50.824  12.225  1.00  0.00    -0.172 N 
HETATM    2  C   UNL     1     -42.310 -49.787  12.203  1.00  0.00     0.684 A 
HETATM    3  N   UNL     1     -43.489 -50.233  12.602  1.00  0.00    -0.174 N 
ATOM      4  HN  UNL     1     -44.333 -49.681  12.760  1.00  0.00     0.186 HD
HETATM    5  C   UNL     1     -43.349 -51.575  12.759  1.00  0.00     0.160 A 
HETATM    6  N   UNL     1     -44.335 -52.475  13.114  1.00  0.00    -0.287 N 
HETATM    7  C   UNL     1     -45.703 -52.075  13.364  1.00  0.00     0.163 C 
HETATM    8  C   UNL     1     -44.006 -53.821  13.232  1.00  0.00     0.330 A 
HETATM    9  O   UNL     1     -44.817 -54.698  13.537  1.00  0.00    -0.246 OA
HETATM   10  N   UNL     1     -42.697 -54.173  12.984  1.00  0.00    -0.273 N 
HETATM   11  C   UNL     1     -41.663 -53.340  12.637  1.00  0.00     0.280 A 
HETATM   12  O   UNL     1     -40.531 -53.772  12.452  1.00  0.00    -0.265 OA
HETATM   13  C   UNL     1     -42.064 -51.975  12.528  1.00  0.00     0.164 A 
HETATM   14  H   UNL     1     -42.476 -55.153  13.072  1.00  0.00     0.173 HD
ENDROOT
BRANCH   2  15
HETATM   15  N   UNL     1     -42.018 -48.494  11.882  1.00  0.00    -0.217 N 
HETATM   16  C   UNL     1     -41.771 -47.533  12.962  1.00  0.00     0.141 C 
HETATM   17  C   UNL     1     -42.558 -46.235  12.758  1.00  0.00     0.024 C 
HETATM   18  C   UNL     1     -42.404 -45.650  11.348  1.00  0.00    -0.015 C 
HETATM   19  C   UNL     1     -41.005 -45.079  11.099  1.00  0.00     0.010 C 
HETATM   20  C   UNL     1     -42.770 -46.728  10.330  1.00  0.00     0.024 C 
HETATM   21  C   UNL     1     -41.954 -48.002  10.509  1.00  0.00     0.141 C 
ENDBRANCH   2  15
BRANCH   1  22
HETATM   22  C   UNL     1     -39.939 -50.729  12.092  1.00  0.00     0.174 C 
BRANCH  22  23
HETATM   23  C   UNL     1     -39.194 -50.763  13.422  1.00  0.00     0.187 C 
BRANCH  23  24
HETATM   24  O   UNL     1     -38.078 -51.647  13.294  1.00  0.00    -0.394 OA
HETATM   25  C   UNL     1     -37.099 -51.119  12.410  1.00  0.00     0.201 C 
ENDBRANCH  23  24
ENDBRANCH  22  23
ENDBRANCH   1  22
TORSDOF 4
ENDMDL
MODEL 5
REMARK VINA RESULT:      -5.5      1.710      2.509
REMARK  4 active torsions:
REMARK  status: ('A' for Active; 'I' for Inactive)
REMARK    1  A    between atoms: O_2  and  C_3 
REMARK    2  A    between atoms: C_3  and  C_4 
REMARK    3  A    between atoms: C_4  and  N_5 
REMARK    4  A    between atoms: C_6  and  N_18 
ROOT
HETATM    1  N   UNL     1     -41.571 -52.299  13.546  1.00  0.00    -0.172 N 
HETATM    2  C   UNL     1     -42.748 -51.595  13.294  1.00  0.00     0.684 A 
HETATM    3  N   UNL     1     -42.488 -50.537  12.545  1.00  0.00    -0.174 N 
ATOM      4  HN  UNL     1     -43.165 -49.889  12.142  1.00  0.00     0.186 HD
HETATM    5  C   UNL     1     -41.136 -50.488  12.422  1.00  0.00     0.160 A 
HETATM    6  N   UNL     1     -40.399 -49.520  11.767  1.00  0.00    -0.287 N 
HETATM    7  C   UNL     1     -41.009 -48.383  11.113  1.00  0.00     0.163 C 
HETATM    8  C   UNL     1     -39.013 -49.635  11.739  1.00  0.00     0.330 A 
HETATM    9  O   UNL     1     -38.271 -48.820  11.187  1.00  0.00    -0.246 OA
HETATM   10  N   UNL     1     -38.459 -50.726  12.373  1.00  0.00    -0.273 N 
HETATM   11  C   UNL     1     -39.122 -51.730  13.033  1.00  0.00     0.280 A 
HETATM   12  O   UNL     1     -38.516 -52.660  13.552  1.00  0.00    -0.265 OA
HETATM   13  C   UNL     1     -40.538 -51.553  13.032  1.00  0.00     0.164 A 
HETATM   14  H   UNL     1     -37.453 -50.793  12.344  1.00  0.00     0.173 HD
ENDROOT
BRANCH   2  15
HETATM   15  N   UNL     1     -43.986 -51.990  13.707  1.00  0.00    -0.217 N 
HETATM   16  C   UNL     1     -44.895 -52.607  12.734  1.00  0.00     0.141 C 
HETATM   17  C   UNL     1     -46.295 -51.988  12.795  1.00  0.00     0.024 C 
HETATM   18  C   UNL     1     -46.859 -51.907  14.218  1.00  0.00    -0.015 C 
HETATM   19  C   UNL     1     -47.221 -53.282  14.787  1.00  0.00     0.010 C 
HETATM   20  C   UNL     1     -45.851 -51.172  15.101  1.00  0.00     0.024 C 
HETATM   21  C   UNL     1     -44.471 -51.817  15.072  1.00  0.00     0.141 C 
ENDBRANCH   2  15
BRANCH   1  22
HETATM   22  C   UNL     1     -41.431 -53.623  14.118  1.00  0.00     0.174 C 
BRANCH  22  23
HETATM   23  C   UNL     1     -41.312 -53.627  15.637  1.00  0.00     0.187 C 
BRANCH  23  24
HETATM   24  O   UNL     1     -41.806 -54.876  16.127  1.00  0.00    -0.394 OA
HETATM   25  C   UNL     1     -42.965 -55.288  15.413  1.00  0.00     0.201 C 
ENDBRANCH  23  24
ENDBRANCH  22  23
ENDBRANCH   1  22
TORSDOF 4
ENDMDL
MODEL 6
REMARK VINA RESULT:      -5.5      2.339      3.179
REMARK  4 active torsions:
REMARK  status: ('A' for Active; 'I' for Inactive)
REMARK    1  A    between atoms: O_2  and  C_3 
REMARK    2  A    between atoms: C_3  and  C_4 
REMARK    3  A    between atoms: C_4  and  N_5 
REMARK    4  A    between atoms: C_6  and  N_18 
ROOT
HETATM    1  N   UNL     1     -43.096 -51.989  14.338  1.00  0.00    -0.172 N 
HETATM    2  C   UNL     1     -44.063 -50.984  14.310  1.00  0.00     0.684 A 
HETATM    3  N   UNL     1     -43.762 -50.096  13.378  1.00  0.00    -0.174 N 
ATOM      4  HN  UNL     1     -44.329 -49.301  13.081  1.00  0.00     0.186 HD
HETATM    5  C   UNL     1     -42.544 -50.458  12.895  1.00  0.00     0.160 A 
HETATM    6  N   UNL     1     -41.802 -49.791  11.939  1.00  0.00    -0.287 N 
HETATM    7  C   UNL     1     -42.251 -48.566  11.316  1.00  0.00     0.163 C 
HETATM    8  C   UNL     1     -40.569 -50.314  11.561  1.00  0.00     0.330 A 
HETATM    9  O   UNL     1     -39.833 -49.788  10.723  1.00  0.00    -0.246 OA
HETATM   10  N   UNL     1     -40.166 -51.480  12.173  1.00  0.00    -0.273 N 
HETATM   11  C   UNL     1     -40.848 -52.202  13.120  1.00  0.00     0.280 A 
HETATM   12  O   UNL     1     -40.387 -53.238  13.586  1.00  0.00    -0.265 OA
HETATM   13  C   UNL     1     -42.100 -51.614  13.469  1.00  0.00     0.164 A 
HETATM   14  H   UNL     1     -39.269 -51.844  11.889  1.00  0.00     0.173 HD
ENDROOT
BRANCH   2  15
HETATM   15  N   UNL     1     -45.183 -50.970  15.088  1.00  0.00    -0.217 N 
HETATM   16  C   UNL     1     -45.070 -50.540  16.486  1.00  0.00     0.141 C 
HETATM   17  C   UNL     1     -45.774 -51.513  17.437  1.00  0.00     0.024 C 
HETATM   18  C   UNL     1     -47.202 -51.859  16.999  1.00  0.00    -0.015 C 
HETATM   19  C   UNL     1     -48.169 -50.683  17.162  1.00  0.00     0.010 C 
HETATM   20  C   UNL     1     -47.161 -52.369  15.559  1.00  0.00     0.024 C 
HETATM   21  C   UNL     1     -46.499 -51.379  14.609  1.00  0.00     0.141 C 
ENDBRANCH   2  15
BRANCH   1  22
HETATM   22  C   UNL     1     -43.153 -53.259  15.033  1.00  0.00     0.174 C 
BRANCH  22  23
HETATM   23  C   UNL     1     -43.741 -54.391  14.199  1.00  0.00     0.187 C 
BRANCH  23  24
HETATM   24  O   UNL     1     -43.646 -55.604  14.950  1.00  0.00    -0.394 OA
HETATM   25  C   UNL     1     -42.504 -55.599  15.796  1.00  0.00     0.201 C 
ENDBRANCH  23  24
ENDBRANCH  22  23
ENDBRANCH   1  22
TORSDOF 4
ENDMDL
MODEL 7
REMARK VINA RESULT:      -5.3      4.351      6.142
REMARK  4 active torsions:
REMARK  status: ('A' for Active; 'I' for Inactive)
REMARK    1  A    between atoms: O_2  and  C_3 
REMARK    2  A    between atoms: C_3  and  C_4 
REMARK    3  A    between atoms: C_4  and  N_5 
REMARK    4  A    between atoms: C_6  and  N_18 
ROOT
HETATM    1  N   UNL     1     -39.290 -48.475  13.595  1.00  0.00    -0.172 N 
HETATM    2  C   UNL     1     -38.684 -47.539  14.432  1.00  0.00     0.684 A 
HETATM    3  N   UNL     1     -38.914 -46.317  13.981  1.00  0.00    -0.174 N 
ATOM      4  HN  UNL     1     -38.660 -45.438  14.434  1.00  0.00     0.186 HD
HETATM    5  C   UNL     1     -39.556 -46.470  12.794  1.00  0.00     0.160 A 
HETATM    6  N   UNL     1     -39.951 -45.466  11.931  1.00  0.00    -0.287 N 
HETATM    7  C   UNL     1     -39.707 -44.066  12.199  1.00  0.00     0.163 C 
HETATM    8  C   UNL     1     -40.605 -45.811  10.753  1.00  0.00     0.330 A 
HETATM    9  O   UNL     1     -40.990 -44.988   9.919  1.00  0.00    -0.246 OA
HETATM   10  N   UNL     1     -40.821 -47.152  10.523  1.00  0.00    -0.273 N 
HETATM   11  C   UNL     1     -40.468 -48.203  11.333  1.00  0.00     0.280 A 
HETATM   12  O   UNL     1     -40.725 -49.361  11.022  1.00  0.00    -0.265 OA
HETATM   13  C   UNL     1     -39.797 -47.786  12.521  1.00  0.00     0.164 A 
HETATM   14  H   UNL     1     -41.294 -47.385   9.663  1.00  0.00     0.173 HD
ENDROOT
BRANCH   2  15
HETATM   15  N   UNL     1     -38.014 -47.849  15.579  1.00  0.00    -0.217 N 
HETATM   16  C   UNL     1     -36.548 -47.905  15.551  1.00  0.00     0.141 C 
HETATM   17  C   UNL     1     -36.018 -49.178  16.218  1.00  0.00     0.024 C 
HETATM   18  C   UNL     1     -36.632 -49.439  17.598  1.00  0.00    -0.015 C 
HETATM   19  C   UNL     1     -36.147 -48.442  18.655  1.00  0.00     0.010 C 
HETATM   20  C   UNL     1     -38.153 -49.435  17.465  1.00  0.00     0.024 C 
HETATM   21  C   UNL     1     -38.681 -48.148  16.842  1.00  0.00     0.141 C 
ENDBRANCH   2  15
BRANCH   1  22
HETATM   22  C   UNL     1     -39.486 -49.890  13.838  1.00  0.00     0.174 C 
BRANCH  22  23
HETATM   23  C   UNL     1     -38.245 -50.736  13.576  1.00  0.00     0.187 C 
BRANCH  23  24
HETATM   24  O   UNL     1     -38.257 -51.146  12.207  1.00  0.00    -0.394 OA
HETATM   25  C   UNL     1     -37.322 -50.401  11.438  1.00  0.00     0.201 C 
ENDBRANCH  23  24
ENDBRANCH  22  23
ENDBRANCH   1  22
TORSDOF 4
ENDMDL
MODEL 8
REMARK VINA RESULT:      -5.3      3.110      5.064
REMARK  4 active torsions:
REMARK  status: ('A' for Active; 'I' for Inactive)
REMARK    1  A    between atoms: O_2  and  C_3 
REMARK    2  A    between atoms: C_3  and  C_4 
REMARK    3  A    between atoms: C_4  and  N_5 
REMARK    4  A    between atoms: C_6  and  N_18 
ROOT
HETATM    1  N   UNL     1     -41.907 -53.912  14.608  1.00  0.00    -0.172 N 
HETATM    2  C   UNL     1     -40.788 -53.827  15.436  1.00  0.00     0.684 A 
HETATM    3  N   UNL     1     -40.016 -52.827  15.048  1.00  0.00    -0.174 N 
ATOM      4  HN  UNL     1     -39.176 -52.483  15.515  1.00  0.00     0.186 HD
HETATM    5  C   UNL     1     -40.568 -52.350  13.902  1.00  0.00     0.160 A 
HETATM    6  N   UNL     1     -40.075 -51.334  13.106  1.00  0.00    -0.287 N 
HETATM    7  C   UNL     1     -38.847 -50.631  13.410  1.00  0.00     0.163 C 
HETATM    8  C   UNL     1     -40.780 -50.973  11.963  1.00  0.00     0.330 A 
HETATM    9  O   UNL     1     -40.417 -50.085  11.189  1.00  0.00    -0.246 OA
HETATM   10  N   UNL     1     -41.943 -51.662  11.698  1.00  0.00    -0.273 N 
HETATM   11  C   UNL     1     -42.501 -52.672  12.442  1.00  0.00     0.280 A 
HETATM   12  O   UNL     1     -43.553 -53.205  12.107  1.00  0.00    -0.265 OA
HETATM   13  C   UNL     1     -41.730 -53.000  13.597  1.00  0.00     0.164 A 
HETATM   14  H   UNL     1     -42.441 -51.389  10.865  1.00  0.00     0.173 HD
ENDROOT
BRANCH   2  15
HETATM   15  N   UNL     1     -40.571 -54.622  16.523  1.00  0.00    -0.217 N 
HETATM   16  C   UNL     1     -39.796 -55.856  16.355  1.00  0.00     0.141 C 
HETATM   17  C   UNL     1     -40.489 -57.055  17.010  1.00  0.00     0.024 C 
HETATM   18  C   UNL     1     -40.934 -56.783  18.452  1.00  0.00    -0.015 C 
HETATM   19  C   UNL     1     -39.753 -56.678  19.422  1.00  0.00     0.010 C 
HETATM   20  C   UNL     1     -41.797 -55.523  18.467  1.00  0.00     0.024 C 
HETATM   21  C   UNL     1     -41.087 -54.322  17.854  1.00  0.00     0.141 C 
ENDBRANCH   2  15
BRANCH   1  22
HETATM   22  C   UNL     1     -43.106 -54.700  14.810  1.00  0.00     0.174 C 
BRANCH  22  23
HETATM   23  C   UNL     1     -44.198 -53.971  15.585  1.00  0.00     0.187 C 
BRANCH  23  24
HETATM   24  O   UNL     1     -45.432 -54.666  15.391  1.00  0.00    -0.394 OA
HETATM   25  C   UNL     1     -45.591 -55.068  14.037  1.00  0.00     0.201 C 
ENDBRANCH  23  24
ENDBRANCH  22  23
ENDBRANCH   1  22
TORSDOF 4
ENDMDL
MODEL 9
REMARK VINA RESULT:      -5.2      3.248      5.522
REMARK  4 active torsions:
REMARK  status: ('A' for Active; 'I' for Inactive)
REMARK    1  A    between atoms: O_2  and  C_3 
REMARK    2  A    between atoms: C_3  and  C_4 
REMARK    3  A    between atoms: C_4  and  N_5 
REMARK    4  A    between atoms: C_6  and  N_18 
ROOT
HETATM    1  N   UNL     1     -40.801 -48.120  11.733  1.00  0.00    -0.172 N 
HETATM    2  C   UNL     1     -40.037 -47.574  12.764  1.00  0.00     0.684 A 
HETATM    3  N   UNL     1     -40.341 -46.298  12.922  1.00  0.00    -0.174 N 
ATOM      4  HN  UNL     1     -39.998 -45.671  13.651  1.00  0.00     0.186 HD
HETATM    5  C   UNL     1     -41.203 -45.991  11.918  1.00  0.00     0.160 A 
HETATM    6  N   UNL     1     -41.751 -44.752  11.647  1.00  0.00    -0.287 N 
HETATM    7  C   UNL     1     -41.450 -43.576  12.434  1.00  0.00     0.163 C 
HETATM    8  C   UNL     1     -42.624 -44.623  10.572  1.00  0.00     0.330 A 
HETATM    9  O   UNL     1     -43.157 -43.560  10.248  1.00  0.00    -0.246 OA
HETATM   10  N   UNL     1     -42.889 -45.759   9.838  1.00  0.00    -0.273 N 
HETATM   11  C   UNL     1     -42.394 -47.021  10.049  1.00  0.00     0.280 A 
HETATM   12  O   UNL     1     -42.714 -47.961   9.330  1.00  0.00    -0.265 OA
HETATM   13  C   UNL     1     -41.502 -47.087  11.161  1.00  0.00     0.164 A 
HETATM   14  H   UNL     1     -43.523 -45.648   9.061  1.00  0.00     0.173 HD
ENDROOT
BRANCH   2  15
HETATM   15  N   UNL     1     -39.159 -48.282  13.532  1.00  0.00    -0.217 N 
HETATM   16  C   UNL     1     -37.959 -48.843  12.902  1.00  0.00     0.141 C 
HETATM   17  C   UNL     1     -37.752 -50.312  13.284  1.00  0.00     0.024 C 
HETATM   18  C   UNL     1     -37.847 -50.563  14.794  1.00  0.00    -0.015 C 
HETATM   19  C   UNL     1     -36.654 -49.986  15.562  1.00  0.00     0.010 C 
HETATM   20  C   UNL     1     -39.176 -50.004  15.300  1.00  0.00     0.024 C 
HETATM   21  C   UNL     1     -39.357 -48.531  14.956  1.00  0.00     0.141 C 
ENDBRANCH   2  15
BRANCH   1  22
HETATM   22  C   UNL     1     -40.955 -49.518  11.385  1.00  0.00     0.174 C 
BRANCH  22  23
HETATM   23  C   UNL     1     -41.904 -50.280  12.303  1.00  0.00     0.187 C 
BRANCH  23  24
HETATM   24  O   UNL     1     -41.189 -51.370  12.889  1.00  0.00    -0.394 OA
HETATM   25  C   UNL     1     -41.151 -52.491  12.016  1.00  0.00     0.201 C 
ENDBRANCH  23  24
ENDBRANCH  22  23
ENDBRANCH   1  22
TORSDOF 4
ENDMDL
