MODEL 1
REMARK VINA RESULT:      -7.0      0.000      0.000
REMARK  8 active torsions:
REMARK  status: ('A' for Active; 'I' for Inactive)
REMARK    1  A    between atoms: N_2  and  C_10 
REMARK    2  A    between atoms: C_6  and  N_7 
REMARK    3  A    between atoms: C_9  and  C_10 
REMARK    4  A    between atoms: C_9  and  O_25 
REMARK    5  A    between atoms: C_20  and  C_30 
REMARK    6  A    between atoms: C_23  and  C_31 
REMARK    7  A    between atoms: O_28  and  C_31 
REMARK    8  A    between atoms: O_28  and  C_30 
ROOT
HETATM    1  C   UNL     1     -41.337 -49.693  12.052  1.00  0.00     0.117 A 
HETATM    2  N   UNL     1     -41.546 -47.690  11.204  1.00  0.00    -0.324 N 
HETATM    3  C   UNL     1     -40.619 -48.662  11.467  1.00  0.00     0.140 A 
HETATM    4  N   UNL     1     -42.675 -49.350  12.144  1.00  0.00    -0.346 N 
ATOM      5  HN  UNL     1     -43.429 -49.908  12.544  1.00  0.00     0.167 HD
HETATM    6  C   UNL     1     -40.622 -50.862  12.421  1.00  0.00     0.114 A 
HETATM    7  C   UNL     1     -42.767 -48.157  11.608  1.00  0.00     0.185 A 
HETATM    8  N   UNL     1     -39.303 -48.629  11.209  1.00  0.00    -0.336 N 
ATOM      9  HN  UNL     1     -38.811 -47.831  10.807  1.00  0.00     0.168 HD
HETATM   10  N   UNL     1     -39.289 -50.883  12.124  1.00  0.00    -0.341 N 
ATOM     11  HN  UNL     1     -38.728 -51.710  12.329  1.00  0.00     0.167 HD
HETATM   12  C   UNL     1     -38.721 -49.796  11.554  1.00  0.00     0.183 A 
ENDROOT
BRANCH   6  13
HETATM   13  N   UNL     1     -41.240 -51.974  12.998  1.00  0.00    -0.263 NA
HETATM   14  C   UNL     1     -42.454 -52.481  12.339  1.00  0.00     0.131 C 
HETATM   15  C   UNL     1     -43.126 -53.526  13.260  1.00  0.00     0.158 C 
HETATM   16  O   UNL     1     -42.193 -54.594  13.572  1.00  0.00    -0.381 OA
HETATM   17  C   UNL     1     -41.050 -54.067  14.259  1.00  0.00     0.183 C 
HETATM   18  C   UNL     1     -40.309 -53.054  13.380  1.00  0.00     0.123 C 
BRANCH  15  19
HETATM   19  C   UNL     1     -44.352 -54.140  12.581  1.00  0.00     0.200 C 
BRANCH  19  20
HETATM   20  O   UNL     1     -45.307 -53.109  12.304  1.00  0.00    -0.388 OA
BRANCH  20  21
HETATM   21  C   UNL     1     -46.333 -53.058  13.289  1.00  0.00     0.172 C 
BRANCH  21  22
HETATM   22  C   UNL     1     -46.447 -51.648  13.774  1.00  0.00     0.009 A 
HETATM   23  C   UNL     1     -45.479 -51.122  14.802  1.00  0.00     0.007 A 
HETATM   24  C   UNL     1     -46.919 -51.348  15.173  1.00  0.00     0.007 A 
ENDBRANCH  21  22
ENDBRANCH  20  21
ENDBRANCH  19  20
ENDBRANCH  15  19
ENDBRANCH   6  13
BRANCH   2  25
HETATM   25  C   UNL     1     -41.312 -46.441  10.514  1.00  0.00     0.172 C 
BRANCH  25  26
HETATM   26  C   UNL     1     -40.958 -45.252  11.421  1.00  0.00     0.102 C 
HETATM   27  C   UNL     1     -42.153 -44.454  11.993  1.00  0.00     0.153 C 
HETATM   28  O   UNL     1     -41.741 -43.067  12.064  1.00  0.00    -0.383 OA
HETATM   29  C   UNL     1     -42.628 -44.856  13.381  1.00  0.00     0.042 C 
HETATM   30  C   UNL     1     -40.424 -42.960  11.511  1.00  0.00     0.171 C 
HETATM   31  C   UNL     1     -40.265 -44.163  10.612  1.00  0.00     0.068 C 
BRANCH  26  32
HETATM   32  O   UNL     1     -40.029 -45.647  12.439  1.00  0.00    -0.385 OA
HETATM   33  H   UNL     1     -39.126 -45.649  12.071  1.00  0.00     0.210 HD
ENDBRANCH  26  32
ENDBRANCH  25  26
ENDBRANCH   2  25
TORSDOF 8
ENDMDL
MODEL 2
REMARK VINA RESULT:      -6.9      1.876      2.575
REMARK  8 active torsions:
REMARK  status: ('A' for Active; 'I' for Inactive)
REMARK    1  A    between atoms: N_2  and  C_10 
REMARK    2  A    between atoms: C_6  and  N_7 
REMARK    3  A    between atoms: C_9  and  C_10 
REMARK    4  A    between atoms: C_9  and  O_25 
REMARK    5  A    between atoms: C_20  and  C_30 
REMARK    6  A    between atoms: C_23  and  C_31 
REMARK    7  A    between atoms: O_28  and  C_31 
REMARK    8  A    between atoms: O_28  and  C_30 
ROOT
HETATM    1  C   UNL     1     -41.773 -50.726  13.956  1.00  0.00     0.117 A 
HETATM    2  N   UNL     1     -41.651 -48.600  13.464  1.00  0.00    -0.324 N 
HETATM    3  C   UNL     1     -40.955 -49.775  13.370  1.00  0.00     0.140 A 
HETATM    4  N   UNL     1     -42.945 -50.138  14.400  1.00  0.00    -0.346 N 
ATOM      5  HN  UNL     1     -43.721 -50.593  14.881  1.00  0.00     0.167 HD
HETATM    6  C   UNL     1     -41.306 -52.066  13.985  1.00  0.00     0.114 A 
HETATM    7  C   UNL     1     -42.848 -48.872  14.070  1.00  0.00     0.185 A 
HETATM    8  N   UNL     1     -39.745 -49.966  12.823  1.00  0.00    -0.336 N 
ATOM      9  HN  UNL     1     -39.161 -49.227  12.432  1.00  0.00     0.168 HD
HETATM   10  N   UNL     1     -40.101 -52.305  13.389  1.00  0.00    -0.341 N 
ATOM     11  HN  UNL     1     -39.727 -53.254  13.343  1.00  0.00     0.167 HD
HETATM   12  C   UNL     1     -39.407 -51.272  12.860  1.00  0.00     0.183 A 
ENDROOT
BRANCH   6  13
HETATM   13  N   UNL     1     -42.051 -53.114  14.529  1.00  0.00    -0.263 NA
HETATM   14  C   UNL     1     -43.222 -53.570  13.763  1.00  0.00     0.131 C 
HETATM   15  C   UNL     1     -44.052 -54.535  14.641  1.00  0.00     0.158 C 
HETATM   16  O   UNL     1     -43.228 -55.646  15.082  1.00  0.00    -0.381 OA
HETATM   17  C   UNL     1     -42.129 -55.165  15.868  1.00  0.00     0.183 C 
HETATM   18  C   UNL     1     -41.237 -54.234  15.041  1.00  0.00     0.123 C 
BRANCH  15  19
HETATM   19  C   UNL     1     -45.239 -55.098  13.857  1.00  0.00     0.200 C 
BRANCH  19  20
HETATM   20  O   UNL     1     -46.439 -54.920  14.620  1.00  0.00    -0.388 OA
BRANCH  20  21
HETATM   21  C   UNL     1     -46.334 -53.827  15.525  1.00  0.00     0.172 C 
BRANCH  21  22
HETATM   22  C   UNL     1     -47.134 -52.689  14.977  1.00  0.00     0.009 A 
HETATM   23  C   UNL     1     -46.444 -51.546  14.278  1.00  0.00     0.007 A 
HETATM   24  C   UNL     1     -47.084 -51.327  15.621  1.00  0.00     0.007 A 
ENDBRANCH  21  22
ENDBRANCH  20  21
ENDBRANCH  19  20
ENDBRANCH  15  19
ENDBRANCH   6  13
BRANCH   2  25
HETATM   25  C   UNL     1     -41.260 -47.320  12.918  1.00  0.00     0.172 C 
BRANCH  25  26
HETATM   26  C   UNL     1     -41.422 -47.184  11.396  1.00  0.00     0.102 C 
HETATM   27  C   UNL     1     -41.327 -45.749  10.828  1.00  0.00     0.153 C 
HETATM   28  O   UNL     1     -42.247 -45.674   9.711  1.00  0.00    -0.383 OA
HETATM   29  C   UNL     1     -39.961 -45.316  10.318  1.00  0.00     0.042 C 
HETATM   30  C   UNL     1     -42.939 -46.924   9.614  1.00  0.00     0.171 C 
HETATM   31  C   UNL     1     -42.844 -47.546  10.986  1.00  0.00     0.068 C 
BRANCH  26  32
HETATM   32  O   UNL     1     -40.561 -48.101  10.708  1.00  0.00    -0.385 OA
HETATM   33  H   UNL     1     -39.657 -48.028  11.066  1.00  0.00     0.210 HD
ENDBRANCH  26  32
ENDBRANCH  25  26
ENDBRANCH   2  25
TORSDOF 8
ENDMDL
MODEL 3
REMARK VINA RESULT:      -6.7      2.636      7.450
REMARK  8 active torsions:
REMARK  status: ('A' for Active; 'I' for Inactive)
REMARK    1  A    between atoms: N_2  and  C_10 
REMARK    2  A    between atoms: C_6  and  N_7 
REMARK    3  A    between atoms: C_9  and  C_10 
REMARK    4  A    between atoms: C_9  and  O_25 
REMARK    5  A    between atoms: C_20  and  C_30 
REMARK    6  A    between atoms: C_23  and  C_31 
REMARK    7  A    between atoms: O_28  and  C_31 
REMARK    8  A    between atoms: O_28  and  C_30 
ROOT
HETATM    1  C   UNL     1     -42.812 -51.106  12.550  1.00  0.00     0.117 A 
HETATM    2  N   UNL     1     -44.357 -52.531  13.145  1.00  0.00    -0.324 N 
HETATM    3  C   UNL     1     -43.058 -52.458  12.722  1.00  0.00     0.140 A 
HETATM    4  N   UNL     1     -43.944 -50.372  12.861  1.00  0.00    -0.346 N 
ATOM      5  HN  UNL     1     -44.056 -49.359  12.811  1.00  0.00     0.167 HD
HETATM    6  C   UNL     1     -41.513 -50.725  12.125  1.00  0.00     0.114 A 
HETATM    7  C   UNL     1     -44.840 -51.253  13.234  1.00  0.00     0.185 A 
HETATM    8  N   UNL     1     -42.204 -53.474  12.524  1.00  0.00    -0.336 N 
ATOM      9  HN  UNL     1     -42.441 -54.460  12.631  1.00  0.00     0.168 HD
HETATM   10  N   UNL     1     -40.602 -51.730  11.964  1.00  0.00    -0.341 N 
ATOM     11  HN  UNL     1     -39.641 -51.518  11.697  1.00  0.00     0.167 HD
HETATM   12  C   UNL     1     -40.989 -53.011  12.164  1.00  0.00     0.183 A 
ENDROOT
BRANCH   6  13
HETATM   13  N   UNL     1     -41.140 -49.392  11.937  1.00  0.00    -0.263 NA
HETATM   14  C   UNL     1     -42.024 -48.562  11.103  1.00  0.00     0.131 C 
HETATM   15  C   UNL     1     -41.316 -47.221  10.801  1.00  0.00     0.158 C 
HETATM   16  O   UNL     1     -40.957 -46.553  12.039  1.00  0.00    -0.381 OA
HETATM   17  C   UNL     1     -40.056 -47.370  12.799  1.00  0.00     0.183 C 
HETATM   18  C   UNL     1     -40.713 -48.702  13.171  1.00  0.00     0.123 C 
BRANCH  15  19
HETATM   19  C   UNL     1     -42.231 -46.291  10.000  1.00  0.00     0.200 C 
BRANCH  19  20
HETATM   20  O   UNL     1     -43.015 -47.069   9.088  1.00  0.00    -0.388 OA
BRANCH  20  21
HETATM   21  C   UNL     1     -44.284 -46.475   8.838  1.00  0.00     0.172 C 
BRANCH  21  22
HETATM   22  C   UNL     1     -45.340 -47.375   9.394  1.00  0.00     0.009 A 
HETATM   23  C   UNL     1     -46.129 -48.272   8.476  1.00  0.00     0.007 A 
HETATM   24  C   UNL     1     -46.800 -47.102   9.140  1.00  0.00     0.007 A 
ENDBRANCH  21  22
ENDBRANCH  20  21
ENDBRANCH  19  20
ENDBRANCH  15  19
ENDBRANCH   6  13
BRANCH   2  25
HETATM   25  C   UNL     1     -45.067 -53.725  13.547  1.00  0.00     0.172 C 
BRANCH  25  26
HETATM   26  C   UNL     1     -45.211 -53.918  15.065  1.00  0.00     0.102 C 
HETATM   27  C   UNL     1     -45.390 -52.629  15.899  1.00  0.00     0.153 C 
HETATM   28  O   UNL     1     -44.712 -52.844  17.161  1.00  0.00    -0.383 OA
HETATM   29  C   UNL     1     -46.821 -52.227  16.219  1.00  0.00     0.042 C 
HETATM   30  C   UNL     1     -44.079 -54.127  17.119  1.00  0.00     0.171 C 
HETATM   31  C   UNL     1     -43.908 -54.445  15.652  1.00  0.00     0.068 C 
BRANCH  26  32
HETATM   32  O   UNL     1     -46.211 -54.902  15.361  1.00  0.00    -0.385 OA
HETATM   33  H   UNL     1     -47.076 -54.465  15.464  1.00  0.00     0.210 HD
ENDBRANCH  26  32
ENDBRANCH  25  26
ENDBRANCH   2  25
TORSDOF 8
ENDMDL
MODEL 4
REMARK VINA RESULT:      -6.5      2.560      7.439
REMARK  8 active torsions:
REMARK  status: ('A' for Active; 'I' for Inactive)
REMARK    1  A    between atoms: N_2  and  C_10 
REMARK    2  A    between atoms: C_6  and  N_7 
REMARK    3  A    between atoms: C_9  and  C_10 
REMARK    4  A    between atoms: C_9  and  O_25 
REMARK    5  A    between atoms: C_20  and  C_30 
REMARK    6  A    between atoms: C_23  and  C_31 
REMARK    7  A    between atoms: O_28  and  C_31 
REMARK    8  A    between atoms: O_28  and  C_30 
ROOT
HETATM    1  C   UNL     1     -41.752 -52.827  13.028  1.00  0.00     0.117 A 
HETATM    2  N   UNL     1     -43.669 -53.867  13.171  1.00  0.00    -0.324 N 
HETATM    3  C   UNL     1     -42.450 -53.754  13.785  1.00  0.00     0.140 A 
HETATM    4  N   UNL     1     -42.533 -52.388  11.973  1.00  0.00    -0.346 N 
ATOM      5  HN  UNL     1     -42.272 -51.719  11.249  1.00  0.00     0.167 HD
HETATM    6  C   UNL     1     -40.439 -52.494  13.449  1.00  0.00     0.114 A 
HETATM    7  C   UNL     1     -43.679 -53.013  12.102  1.00  0.00     0.185 A 
HETATM    8  N   UNL     1     -42.026 -54.395  14.884  1.00  0.00    -0.336 N 
ATOM      9  HN  UNL     1     -42.565 -55.098  15.390  1.00  0.00     0.168 HD
HETATM   10  N   UNL     1     -39.995 -53.089  14.595  1.00  0.00    -0.341 N 
ATOM     11  HN  UNL     1     -39.073 -52.862  14.971  1.00  0.00     0.167 HD
HETATM   12  C   UNL     1     -40.789 -53.982  15.228  1.00  0.00     0.183 A 
ENDROOT
BRANCH   6  13
HETATM   13  N   UNL     1     -39.646 -51.558  12.780  1.00  0.00    -0.263 NA
HETATM   14  C   UNL     1     -40.188 -50.196  12.648  1.00  0.00     0.131 C 
HETATM   15  C   UNL     1     -39.301 -49.396  11.666  1.00  0.00     0.158 C 
HETATM   16  O   UNL     1     -37.924 -49.389  12.126  1.00  0.00    -0.381 OA
HETATM   17  C   UNL     1     -37.417 -50.728  12.191  1.00  0.00     0.183 C 
HETATM   18  C   UNL     1     -38.227 -51.567  13.185  1.00  0.00     0.123 C 
BRANCH  15  19
HETATM   19  C   UNL     1     -39.781 -47.947  11.558  1.00  0.00     0.200 C 
BRANCH  19  20
HETATM   20  O   UNL     1     -41.204 -47.930  11.393  1.00  0.00    -0.388 OA
BRANCH  20  21
HETATM   21  C   UNL     1     -41.606 -47.057  10.342  1.00  0.00     0.172 C 
BRANCH  21  22
HETATM   22  C   UNL     1     -43.009 -47.402   9.959  1.00  0.00     0.009 A 
HETATM   23  C   UNL     1     -43.374 -47.584   8.509  1.00  0.00     0.007 A 
HETATM   24  C   UNL     1     -43.892 -46.394   9.269  1.00  0.00     0.007 A 
ENDBRANCH  21  22
ENDBRANCH  20  21
ENDBRANCH  19  20
ENDBRANCH  15  19
ENDBRANCH   6  13
BRANCH   2  25
HETATM   25  C   UNL     1     -44.795 -54.651  13.628  1.00  0.00     0.172 C 
BRANCH  25  26
HETATM   26  C   UNL     1     -45.756 -53.919  14.578  1.00  0.00     0.102 C 
HETATM   27  C   UNL     1     -45.635 -52.378  14.611  1.00  0.00     0.153 C 
HETATM   28  O   UNL     1     -45.907 -51.960  15.971  1.00  0.00    -0.383 OA
HETATM   29  C   UNL     1     -46.584 -51.609  13.705  1.00  0.00     0.042 C 
HETATM   30  C   UNL     1     -46.107 -53.132  16.770  1.00  0.00     0.171 C 
HETATM   31  C   UNL     1     -45.415 -54.250  16.026  1.00  0.00     0.068 C 
BRANCH  26  32
HETATM   32  O   UNL     1     -47.106 -54.356  14.374  1.00  0.00    -0.385 OA
HETATM   33  H   UNL     1     -47.127 -55.330  14.325  1.00  0.00     0.210 HD
ENDBRANCH  26  32
ENDBRANCH  25  26
ENDBRANCH   2  25
TORSDOF 8
ENDMDL
MODEL 5
REMARK VINA RESULT:      -6.5      2.275      3.855
REMARK  8 active torsions:
REMARK  status: ('A' for Active; 'I' for Inactive)
REMARK    1  A    between atoms: N_2  and  C_10 
REMARK    2  A    between atoms: C_6  and  N_7 
REMARK    3  A    between atoms: C_9  and  C_10 
REMARK    4  A    between atoms: C_9  and  O_25 
REMARK    5  A    between atoms: C_20  and  C_30 
REMARK    6  A    between atoms: C_23  and  C_31 
REMARK    7  A    between atoms: O_28  and  C_31 
REMARK    8  A    between atoms: O_28  and  C_30 
ROOT
HETATM    1  C   UNL     1     -40.652 -47.561  12.604  1.00  0.00     0.117 A 
HETATM    2  N   UNL     1     -41.801 -45.737  12.958  1.00  0.00    -0.324 N 
HETATM    3  C   UNL     1     -41.626 -46.747  12.051  1.00  0.00     0.140 A 
HETATM    4  N   UNL     1     -40.240 -47.051  13.824  1.00  0.00    -0.346 N 
ATOM      5  HN  UNL     1     -39.526 -47.433  14.444  1.00  0.00     0.167 HD
HETATM    6  C   UNL     1     -40.275 -48.720  11.877  1.00  0.00     0.114 A 
HETATM    7  C   UNL     1     -40.963 -45.974  14.014  1.00  0.00     0.185 A 
HETATM    8  N   UNL     1     -42.265 -46.918  10.884  1.00  0.00    -0.336 N 
ATOM      9  HN  UNL     1     -42.955 -46.271  10.500  1.00  0.00     0.168 HD
HETATM   10  N   UNL     1     -40.943 -48.952  10.709  1.00  0.00    -0.341 N 
ATOM     11  HN  UNL     1     -40.745 -49.788  10.158  1.00  0.00     0.167 HD
HETATM   12  C   UNL     1     -41.871 -48.063  10.289  1.00  0.00     0.183 A 
ENDROOT
BRANCH   6  13
HETATM   13  N   UNL     1     -39.319 -49.626  12.342  1.00  0.00    -0.263 NA
HETATM   14  C   UNL     1     -39.818 -50.844  13.001  1.00  0.00     0.131 C 
HETATM   15  C   UNL     1     -38.632 -51.575  13.669  1.00  0.00     0.158 C 
HETATM   16  O   UNL     1     -37.608 -51.874  12.684  1.00  0.00    -0.381 OA
HETATM   17  C   UNL     1     -37.110 -50.661  12.104  1.00  0.00     0.183 C 
HETATM   18  C   UNL     1     -38.232 -49.905  11.383  1.00  0.00     0.123 C 
BRANCH  15  19
HETATM   19  C   UNL     1     -39.091 -52.892  14.301  1.00  0.00     0.200 C 
BRANCH  19  20
HETATM   20  O   UNL     1     -39.860 -53.633  13.346  1.00  0.00    -0.388 OA
BRANCH  20  21
HETATM   21  C   UNL     1     -40.947 -54.318  13.958  1.00  0.00     0.172 C 
BRANCH  21  22
HETATM   22  C   UNL     1     -42.187 -54.018  13.179  1.00  0.00     0.009 A 
HETATM   23  C   UNL     1     -42.961 -52.753  13.447  1.00  0.00     0.007 A 
HETATM   24  C   UNL     1     -43.545 -54.084  13.831  1.00  0.00     0.007 A 
ENDBRANCH  21  22
ENDBRANCH  20  21
ENDBRANCH  19  20
ENDBRANCH  15  19
ENDBRANCH   6  13
BRANCH   2  25
HETATM   25  C   UNL     1     -42.776 -44.671  12.884  1.00  0.00     0.172 C 
BRANCH  25  26
HETATM   26  C   UNL     1     -42.480 -43.589  11.833  1.00  0.00     0.102 C 
HETATM   27  C   UNL     1     -41.011 -43.117  11.740  1.00  0.00     0.153 C 
HETATM   28  O   UNL     1     -41.039 -41.706  11.416  1.00  0.00    -0.383 OA
HETATM   29  C   UNL     1     -40.149 -43.803  10.692  1.00  0.00     0.042 C 
HETATM   30  C   UNL     1     -42.406 -41.280  11.382  1.00  0.00     0.171 C 
HETATM   31  C   UNL     1     -43.163 -42.283  12.220  1.00  0.00     0.068 C 
BRANCH  26  32
HETATM   32  O   UNL     1     -43.017 -43.959  10.556  1.00  0.00    -0.385 OA
HETATM   33  H   UNL     1     -43.984 -43.838  10.564  1.00  0.00     0.210 HD
ENDBRANCH  26  32
ENDBRANCH  25  26
ENDBRANCH   2  25
TORSDOF 8
ENDMDL
MODEL 6
REMARK VINA RESULT:      -6.4      1.724      2.955
REMARK  8 active torsions:
REMARK  status: ('A' for Active; 'I' for Inactive)
REMARK    1  A    between atoms: N_2  and  C_10 
REMARK    2  A    between atoms: C_6  and  N_7 
REMARK    3  A    between atoms: C_9  and  C_10 
REMARK    4  A    between atoms: C_9  and  O_25 
REMARK    5  A    between atoms: C_20  and  C_30 
REMARK    6  A    between atoms: C_23  and  C_31 
REMARK    7  A    between atoms: O_28  and  C_31 
REMARK    8  A    between atoms: O_28  and  C_30 
ROOT
HETATM    1  C   UNL     1     -40.515 -47.264  11.595  1.00  0.00     0.117 A 
HETATM    2  N   UNL     1     -40.249 -45.119  11.273  1.00  0.00    -0.324 N 
HETATM    3  C   UNL     1     -40.966 -46.199  10.833  1.00  0.00     0.140 A 
HETATM    4  N   UNL     1     -39.539 -46.838  12.480  1.00  0.00    -0.346 N 
ATOM      5  HN  UNL     1     -39.022 -47.407  13.149  1.00  0.00     0.167 HD
HETATM    6  C   UNL     1     -41.107 -48.533  11.364  1.00  0.00     0.114 A 
HETATM    7  C   UNL     1     -39.421 -45.548  12.275  1.00  0.00     0.185 A 
HETATM    8  N   UNL     1     -41.908 -46.221   9.878  1.00  0.00    -0.336 N 
ATOM      9  HN  UNL     1     -42.184 -45.415   9.317  1.00  0.00     0.168 HD
HETATM   10  N   UNL     1     -42.107 -48.581  10.434  1.00  0.00    -0.341 N 
ATOM     11  HN  UNL     1     -42.598 -49.456  10.249  1.00  0.00     0.167 HD
HETATM   12  C   UNL     1     -42.439 -47.456   9.761  1.00  0.00     0.183 A 
ENDROOT
BRANCH   6  13
HETATM   13  N   UNL     1     -40.750 -49.676  12.084  1.00  0.00    -0.263 NA
HETATM   14  C   UNL     1     -41.716 -50.786  12.096  1.00  0.00     0.131 C 
HETATM   15  C   UNL     1     -41.266 -51.831  13.143  1.00  0.00     0.158 C 
HETATM   16  O   UNL     1     -39.920 -52.288  12.849  1.00  0.00    -0.381 OA
HETATM   17  C   UNL     1     -39.002 -51.187  12.898  1.00  0.00     0.183 C 
HETATM   18  C   UNL     1     -39.365 -50.131  11.850  1.00  0.00     0.123 C 
BRANCH  15  19
HETATM   19  C   UNL     1     -42.199 -53.045  13.136  1.00  0.00     0.200 C 
BRANCH  19  20
HETATM   20  O   UNL     1     -43.396 -52.717  12.420  1.00  0.00    -0.388 OA
BRANCH  20  21
HETATM   21  C   UNL     1     -44.558 -52.889  13.224  1.00  0.00     0.172 C 
BRANCH  21  22
HETATM   22  C   UNL     1     -45.365 -51.632  13.154  1.00  0.00     0.009 A 
HETATM   23  C   UNL     1     -46.638 -51.506  13.950  1.00  0.00     0.007 A 
HETATM   24  C   UNL     1     -46.699 -51.609  12.451  1.00  0.00     0.007 A 
ENDBRANCH  21  22
ENDBRANCH  20  21
ENDBRANCH  19  20
ENDBRANCH  15  19
ENDBRANCH   6  13
BRANCH   2  25
HETATM   25  C   UNL     1     -40.412 -43.746  10.849  1.00  0.00     0.172 C 
BRANCH  25  26
HETATM   26  C   UNL     1     -41.296 -42.883  11.764  1.00  0.00     0.102 C 
HETATM   27  C   UNL     1     -41.903 -43.598  12.993  1.00  0.00     0.153 C 
HETATM   28  O   UNL     1     -43.213 -43.020  13.215  1.00  0.00    -0.383 OA
HETATM   29  C   UNL     1     -41.128 -43.473  14.295  1.00  0.00     0.042 C 
HETATM   30  C   UNL     1     -43.467 -42.071  12.173  1.00  0.00     0.171 C 
HETATM   31  C   UNL     1     -42.566 -42.474  11.030  1.00  0.00     0.068 C 
BRANCH  26  32
HETATM   32  O   UNL     1     -40.627 -41.665  12.116  1.00  0.00    -0.385 OA
HETATM   33  H   UNL     1     -41.236 -41.094  12.620  1.00  0.00     0.210 HD
ENDBRANCH  26  32
ENDBRANCH  25  26
ENDBRANCH   2  25
TORSDOF 8
ENDMDL
MODEL 7
REMARK VINA RESULT:      -5.9      2.525      4.366
REMARK  8 active torsions:
REMARK  status: ('A' for Active; 'I' for Inactive)
REMARK    1  A    between atoms: N_2  and  C_10 
REMARK    2  A    between atoms: C_6  and  N_7 
REMARK    3  A    between atoms: C_9  and  C_10 
REMARK    4  A    between atoms: C_9  and  O_25 
REMARK    5  A    between atoms: C_20  and  C_30 
REMARK    6  A    between atoms: C_23  and  C_31 
REMARK    7  A    between atoms: O_28  and  C_31 
REMARK    8  A    between atoms: O_28  and  C_30 
ROOT
HETATM    1  C   UNL     1     -39.729 -46.747  12.941  1.00  0.00     0.117 A 
HETATM    2  N   UNL     1     -40.250 -44.678  13.416  1.00  0.00    -0.324 N 
HETATM    3  C   UNL     1     -40.402 -45.639  12.453  1.00  0.00     0.140 A 
HETATM    4  N   UNL     1     -39.177 -46.462  14.178  1.00  0.00    -0.346 N 
ATOM      5  HN  UNL     1     -38.617 -47.083  14.762  1.00  0.00     0.167 HD
HETATM    6  C   UNL     1     -39.734 -47.921  12.144  1.00  0.00     0.114 A 
HETATM    7  C   UNL     1     -39.526 -45.226  14.441  1.00  0.00     0.185 A 
HETATM    8  N   UNL     1     -41.064 -45.534  11.291  1.00  0.00    -0.336 N 
ATOM      9  HN  UNL     1     -41.517 -44.683  10.956  1.00  0.00     0.168 HD
HETATM   10  N   UNL     1     -40.444 -47.865  10.979  1.00  0.00    -0.341 N 
ATOM     11  HN  UNL     1     -40.518 -48.688  10.380  1.00  0.00     0.167 HD
HETATM   12  C   UNL     1     -41.049 -46.708  10.627  1.00  0.00     0.183 A 
ENDROOT
BRANCH   6  13
HETATM   13  N   UNL     1     -39.109 -49.106  12.540  1.00  0.00    -0.263 NA
HETATM   14  C   UNL     1     -39.975 -50.176  13.060  1.00  0.00     0.131 C 
HETATM   15  C   UNL     1     -39.089 -51.280  13.682  1.00  0.00     0.158 C 
HETATM   16  O   UNL     1     -38.144 -51.778  12.699  1.00  0.00    -0.381 OA
HETATM   17  C   UNL     1     -37.286 -50.718  12.256  1.00  0.00     0.183 C 
HETATM   18  C   UNL     1     -38.099 -49.606  11.587  1.00  0.00     0.123 C 
BRANCH  15  19
HETATM   19  C   UNL     1     -39.943 -52.454  14.167  1.00  0.00     0.200 C 
BRANCH  19  20
HETATM   20  O   UNL     1     -39.734 -53.580  13.305  1.00  0.00    -0.388 OA
BRANCH  20  21
HETATM   21  C   UNL     1     -40.961 -54.200  12.935  1.00  0.00     0.172 C 
BRANCH  21  22
HETATM   22  C   UNL     1     -42.007 -53.793  13.923  1.00  0.00     0.009 A 
HETATM   23  C   UNL     1     -42.716 -54.837  14.747  1.00  0.00     0.007 A 
HETATM   24  C   UNL     1     -43.463 -54.092  13.675  1.00  0.00     0.007 A 
ENDBRANCH  21  22
ENDBRANCH  20  21
ENDBRANCH  19  20
ENDBRANCH  15  19
ENDBRANCH   6  13
BRANCH   2  25
HETATM   25  C   UNL     1     -40.844 -43.360  13.420  1.00  0.00     0.172 C 
BRANCH  25  26
HETATM   26  C   UNL     1     -42.303 -43.304  13.898  1.00  0.00     0.102 C 
HETATM   27  C   UNL     1     -42.940 -41.897  13.974  1.00  0.00     0.153 C 
HETATM   28  O   UNL     1     -43.843 -41.902  15.107  1.00  0.00    -0.383 OA
HETATM   29  C   UNL     1     -43.742 -41.455  12.760  1.00  0.00     0.042 C 
HETATM   30  C   UNL     1     -43.740 -43.173  15.759  1.00  0.00     0.171 C 
HETATM   31  C   UNL     1     -42.392 -43.724  15.360  1.00  0.00     0.068 C 
BRANCH  26  32
HETATM   32  O   UNL     1     -43.115 -44.232  13.166  1.00  0.00    -0.385 OA
HETATM   33  H   UNL     1     -42.561 -44.706  12.517  1.00  0.00     0.210 HD
ENDBRANCH  26  32
ENDBRANCH  25  26
ENDBRANCH   2  25
TORSDOF 8
ENDMDL
MODEL 8
REMARK VINA RESULT:      -5.8      2.254      4.805
REMARK  8 active torsions:
REMARK  status: ('A' for Active; 'I' for Inactive)
REMARK    1  A    between atoms: N_2  and  C_10 
REMARK    2  A    between atoms: C_6  and  N_7 
REMARK    3  A    between atoms: C_9  and  C_10 
REMARK    4  A    between atoms: C_9  and  O_25 
REMARK    5  A    between atoms: C_20  and  C_30 
REMARK    6  A    between atoms: C_23  and  C_31 
REMARK    7  A    between atoms: O_28  and  C_31 
REMARK    8  A    between atoms: O_28  and  C_30 
ROOT
HETATM    1  C   UNL     1     -42.582 -47.357  12.695  1.00  0.00     0.117 A 
HETATM    2  N   UNL     1     -42.526 -45.199  13.036  1.00  0.00    -0.324 N 
HETATM    3  C   UNL     1     -42.719 -46.136  12.056  1.00  0.00     0.140 A 
HETATM    4  N   UNL     1     -42.309 -47.165  14.038  1.00  0.00    -0.346 N 
ATOM      5  HN  UNL     1     -42.146 -47.883  14.744  1.00  0.00     0.167 HD
HETATM    6  C   UNL     1     -42.751 -48.528  11.912  1.00  0.00     0.114 A 
HETATM    7  C   UNL     1     -42.305 -45.865  14.212  1.00  0.00     0.185 A 
HETATM    8  N   UNL     1     -42.988 -45.918  10.760  1.00  0.00    -0.336 N 
ATOM      9  HN  UNL     1     -43.046 -44.997  10.326  1.00  0.00     0.168 HD
HETATM   10  N   UNL     1     -43.079 -48.344  10.599  1.00  0.00    -0.341 N 
ATOM     11  HN  UNL     1     -43.251 -49.146   9.993  1.00  0.00     0.167 HD
HETATM   12  C   UNL     1     -43.173 -47.087  10.110  1.00  0.00     0.183 A 
ENDROOT
BRANCH   6  13
HETATM   13  N   UNL     1     -42.659 -49.815  12.448  1.00  0.00    -0.263 NA
HETATM   14  C   UNL     1     -41.350 -50.222  12.986  1.00  0.00     0.131 C 
HETATM   15  C   UNL     1     -41.379 -51.739  13.282  1.00  0.00     0.158 C 
HETATM   16  O   UNL     1     -42.462 -52.051  14.198  1.00  0.00    -0.381 OA
HETATM   17  C   UNL     1     -43.722 -51.688  13.616  1.00  0.00     0.183 C 
HETATM   18  C   UNL     1     -43.777 -50.183  13.338  1.00  0.00     0.123 C 
BRANCH  15  19
HETATM   19  C   UNL     1     -40.064 -52.194  13.919  1.00  0.00     0.200 C 
BRANCH  19  20
HETATM   20  O   UNL     1     -39.138 -51.100  13.925  1.00  0.00    -0.388 OA
BRANCH  20  21
HETATM   21  C   UNL     1     -37.944 -51.412  13.216  1.00  0.00     0.172 C 
BRANCH  21  22
HETATM   22  C   UNL     1     -37.438 -50.159  12.578  1.00  0.00     0.009 A 
HETATM   23  C   UNL     1     -38.365 -49.301  11.755  1.00  0.00     0.007 A 
HETATM   24  C   UNL     1     -37.259 -50.069  11.084  1.00  0.00     0.007 A 
ENDBRANCH  21  22
ENDBRANCH  20  21
ENDBRANCH  19  20
ENDBRANCH  15  19
ENDBRANCH   6  13
BRANCH   2  25
HETATM   25  C   UNL     1     -42.651 -43.766  12.895  1.00  0.00     0.172 C 
BRANCH  25  26
HETATM   26  C   UNL     1     -41.393 -43.050  12.380  1.00  0.00     0.102 C 
HETATM   27  C   UNL     1     -40.088 -43.323  13.163  1.00  0.00     0.153 C 
HETATM   28  O   UNL     1     -39.317 -42.097  13.142  1.00  0.00    -0.383 OA
HETATM   29  C   UNL     1     -39.195 -44.427  12.619  1.00  0.00     0.042 C 
HETATM   30  C   UNL     1     -40.088 -41.092  12.475  1.00  0.00     0.171 C 
HETATM   31  C   UNL     1     -41.525 -41.546  12.585  1.00  0.00     0.068 C 
BRANCH  26  32
HETATM   32  O   UNL     1     -41.235 -43.249  10.969  1.00  0.00    -0.385 OA
HETATM   33  H   UNL     1     -42.112 -43.278  10.545  1.00  0.00     0.210 HD
ENDBRANCH  26  32
ENDBRANCH  25  26
ENDBRANCH   2  25
TORSDOF 8
ENDMDL
MODEL 9
REMARK VINA RESULT:      -5.8      2.172      3.336
REMARK  8 active torsions:
REMARK  status: ('A' for Active; 'I' for Inactive)
REMARK    1  A    between atoms: N_2  and  C_10 
REMARK    2  A    between atoms: C_6  and  N_7 
REMARK    3  A    between atoms: C_9  and  C_10 
REMARK    4  A    between atoms: C_9  and  O_25 
REMARK    5  A    between atoms: C_20  and  C_30 
REMARK    6  A    between atoms: C_23  and  C_31 
REMARK    7  A    between atoms: O_28  and  C_31 
REMARK    8  A    between atoms: O_28  and  C_30 
ROOT
HETATM    1  C   UNL     1     -42.603 -50.902  12.964  1.00  0.00     0.117 A 
HETATM    2  N   UNL     1     -42.062 -49.038  11.960  1.00  0.00    -0.324 N 
HETATM    3  C   UNL     1     -41.775 -50.376  11.986  1.00  0.00     0.140 A 
HETATM    4  N   UNL     1     -43.377 -49.899  13.523  1.00  0.00    -0.346 N 
ATOM      5  HN  UNL     1     -44.062 -49.994  14.272  1.00  0.00     0.167 HD
HETATM    6  C   UNL     1     -42.532 -52.299  13.201  1.00  0.00     0.114 A 
HETATM    7  C   UNL     1     -43.044 -48.803  12.884  1.00  0.00     0.185 A 
HETATM    8  N   UNL     1     -40.889 -51.037  11.226  1.00  0.00    -0.336 N 
ATOM      9  HN  UNL     1     -40.274 -50.600  10.539  1.00  0.00     0.168 HD
HETATM   10  N   UNL     1     -41.679 -53.011  12.407  1.00  0.00    -0.341 N 
ATOM     11  HN  UNL     1     -41.611 -54.025  12.502  1.00  0.00     0.167 HD
HETATM   12  C   UNL     1     -40.925 -52.359  11.493  1.00  0.00     0.183 A 
ENDROOT
BRANCH   6  13
HETATM   13  N   UNL     1     -43.332 -52.947  14.145  1.00  0.00    -0.263 NA
HETATM   14  C   UNL     1     -44.788 -52.765  14.025  1.00  0.00     0.131 C 
HETATM   15  C   UNL     1     -45.470 -53.328  15.293  1.00  0.00     0.158 C 
HETATM   16  O   UNL     1     -45.113 -54.723  15.477  1.00  0.00    -0.381 OA
HETATM   17  C   UNL     1     -43.694 -54.853  15.642  1.00  0.00     0.183 C 
HETATM   18  C   UNL     1     -42.955 -54.351  14.397  1.00  0.00     0.123 C 
BRANCH  15  19
HETATM   19  C   UNL     1     -46.994 -53.232  15.179  1.00  0.00     0.200 C 
BRANCH  19  20
HETATM   20  O   UNL     1     -47.399 -51.872  15.374  1.00  0.00    -0.388 OA
BRANCH  20  21
HETATM   21  C   UNL     1     -46.984 -51.372  16.640  1.00  0.00     0.172 C 
BRANCH  21  22
HETATM   22  C   UNL     1     -48.206 -51.056  17.442  1.00  0.00     0.009 A 
HETATM   23  C   UNL     1     -48.268 -49.792  18.259  1.00  0.00     0.007 A 
HETATM   24  C   UNL     1     -48.182 -51.127  18.947  1.00  0.00     0.007 A 
ENDBRANCH  21  22
ENDBRANCH  20  21
ENDBRANCH  19  20
ENDBRANCH  15  19
ENDBRANCH   6  13
BRANCH   2  25
HETATM   25  C   UNL     1     -41.522 -48.058  11.044  1.00  0.00     0.172 C 
BRANCH  25  26
HETATM   26  C   UNL     1     -40.286 -47.300  11.555  1.00  0.00     0.102 C 
HETATM   27  C   UNL     1     -39.406 -48.050  12.582  1.00  0.00     0.153 C 
HETATM   28  O   UNL     1     -38.890 -47.058  13.502  1.00  0.00    -0.383 OA
HETATM   29  C   UNL     1     -38.213 -48.808  12.020  1.00  0.00     0.042 C 
HETATM   30  C   UNL     1     -39.451 -45.787  13.154  1.00  0.00     0.171 C 
HETATM   31  C   UNL     1     -40.715 -46.099  12.388  1.00  0.00     0.068 C 
BRANCH  26  32
HETATM   32  O   UNL     1     -39.521 -46.777  10.461  1.00  0.00    -0.385 OA
HETATM   33  H   UNL     1     -40.068 -46.148   9.955  1.00  0.00     0.210 HD
ENDBRANCH  26  32
ENDBRANCH  25  26
ENDBRANCH   2  25
TORSDOF 8
ENDMDL
