MODEL 1
REMARK VINA RESULT:      -6.6      0.000      0.000
REMARK  6 active torsions:
REMARK  status: ('A' for Active; 'I' for Inactive)
REMARK    1  A    between atoms: C_2  and  C_3 
REMARK    2  A    between atoms: C_3  and  N_5 
REMARK       I    between atoms: N_5  and  C_6 
REMARK    3  A    between atoms: C_6  and  C_8 
REMARK    4  A    between atoms: C_8  and  N_10 
REMARK       I    between atoms: N_10  and  C_11 
REMARK    5  A    between atoms: C_11  and  C_13 
REMARK    6  A    between atoms: C_16  and  N_20 
ROOT
HETATM    1  N   UNL     1     -42.650 -48.508  10.899  1.00  0.00    -0.344 N 
HETATM    2  C   UNL     1     -41.766 -49.375  11.500  1.00  0.00     0.253 C 
HETATM    3  O   UNL     1     -40.549 -49.272  11.402  1.00  0.00    -0.268 OA
HETATM    4  H   UNL     1     -43.633 -48.753  10.825  1.00  0.00     0.163 HD
ENDROOT
BRANCH   2   5
HETATM    5  C   UNL     1     -42.362 -50.488  12.283  1.00  0.00     0.047 A 
HETATM    6  C   UNL     1     -43.439 -50.322  13.146  1.00  0.00     0.022 A 
HETATM    7  C   UNL     1     -43.955 -51.434  13.821  1.00  0.00     0.049 A 
HETATM    8  C   UNL     1     -43.398 -52.703  13.651  1.00  0.00     0.103 A 
HETATM    9  N   UNL     1     -42.332 -52.854  12.833  1.00  0.00    -0.351 N 
HETATM   10  C   UNL     1     -41.833 -51.763  12.180  1.00  0.00     0.106 A 
ATOM     11  HN  UNL     1     -41.905 -53.772  12.706  1.00  0.00     0.166 HD
BRANCH   8  12
HETATM   12  N   UNL     1     -43.963 -53.818  14.240  1.00  0.00    -0.363 N 
HETATM   13  C   UNL     1     -45.207 -54.427  13.751  1.00  0.00     0.150 C 
HETATM   14  C   UNL     1     -46.363 -54.171  14.733  1.00  0.00     0.187 C 
HETATM   15  O   UNL     1     -46.035 -54.603  16.062  1.00  0.00    -0.388 OA
HETATM   16  C   UNL     1     -44.883 -53.884  16.541  1.00  0.00     0.187 C 
HETATM   17  C   UNL     1     -43.660 -54.128  15.646  1.00  0.00     0.150 C 
ENDBRANCH   8  12
ENDBRANCH   2   5
BRANCH   1  18
HETATM   18  C   UNL     1     -42.241 -47.371  10.072  1.00  0.00     0.172 C 
HETATM   19  C   UNL     1     -41.857 -46.168  10.926  1.00  0.00     0.042 C 
BRANCH  18  20
HETATM   20  C   UNL     1     -43.435 -47.027   9.145  1.00  0.00     0.240 C 
HETATM   21  N   UNL     1     -44.567 -47.800   9.316  1.00  0.00    -0.355 N 
HETATM   22  H   UNL     1     -44.531 -48.592   9.944  1.00  0.00     0.162 HD
HETATM   23  O   UNL     1     -43.372 -46.103   8.332  1.00  0.00    -0.271 OA
BRANCH  21  24
HETATM   24  C   UNL     1     -45.752 -47.645   8.479  1.00  0.00     0.080 C 
HETATM   25  C   UNL     1     -46.739 -46.680   9.133  1.00  0.00     0.032 C 
BRANCH  24  26
HETATM   26  C   UNL     1     -46.395 -49.003   8.138  1.00  0.00     0.020 C 
HETATM   27  C   UNL     1     -46.232 -49.449   6.690  1.00  0.00     0.007 C 
ENDBRANCH  24  26
ENDBRANCH  21  24
ENDBRANCH  18  20
ENDBRANCH   1  18
TORSDOF 6
ENDMDL
MODEL 2
REMARK VINA RESULT:      -6.2      1.626      2.260
REMARK  6 active torsions:
REMARK  status: ('A' for Active; 'I' for Inactive)
REMARK    1  A    between atoms: C_2  and  C_3 
REMARK    2  A    between atoms: C_3  and  N_5 
REMARK       I    between atoms: N_5  and  C_6 
REMARK    3  A    between atoms: C_6  and  C_8 
REMARK    4  A    between atoms: C_8  and  N_10 
REMARK       I    between atoms: N_10  and  C_11 
REMARK    5  A    between atoms: C_11  and  C_13 
REMARK    6  A    between atoms: C_16  and  N_20 
ROOT
HETATM    1  N   UNL     1     -40.982 -47.922  11.795  1.00  0.00    -0.344 N 
HETATM    2  C   UNL     1     -40.177 -49.030  11.927  1.00  0.00     0.253 C 
HETATM    3  O   UNL     1     -38.957 -48.993  11.829  1.00  0.00    -0.268 OA
HETATM    4  H   UNL     1     -41.984 -48.033  11.667  1.00  0.00     0.163 HD
ENDROOT
BRANCH   2   5
HETATM    5  C   UNL     1     -40.867 -50.322  12.182  1.00  0.00     0.047 A 
HETATM    6  C   UNL     1     -40.203 -51.542  12.240  1.00  0.00     0.022 A 
HETATM    7  C   UNL     1     -40.929 -52.706  12.517  1.00  0.00     0.049 A 
HETATM    8  C   UNL     1     -42.309 -52.662  12.723  1.00  0.00     0.103 A 
HETATM    9  N   UNL     1     -42.955 -51.477  12.636  1.00  0.00    -0.351 N 
HETATM   10  C   UNL     1     -42.238 -50.347  12.363  1.00  0.00     0.106 A 
ATOM     11  HN  UNL     1     -43.964 -51.428  12.772  1.00  0.00     0.166 HD
BRANCH   8  12
HETATM   12  N   UNL     1     -43.015 -53.792  13.089  1.00  0.00    -0.363 N 
HETATM   13  C   UNL     1     -44.404 -54.027  12.672  1.00  0.00     0.150 C 
HETATM   14  C   UNL     1     -45.364 -53.878  13.863  1.00  0.00     0.187 C 
HETATM   15  O   UNL     1     -44.980 -54.716  14.963  1.00  0.00    -0.388 OA
HETATM   16  C   UNL     1     -43.661 -54.360  15.415  1.00  0.00     0.187 C 
HETATM   17  C   UNL     1     -42.621 -54.533  14.298  1.00  0.00     0.150 C 
ENDBRANCH   8  12
ENDBRANCH   2   5
BRANCH   1  18
HETATM   18  C   UNL     1     -40.477 -46.576  11.519  1.00  0.00     0.172 C 
HETATM   19  C   UNL     1     -40.602 -45.671  12.739  1.00  0.00     0.042 C 
BRANCH  18  20
HETATM   20  C   UNL     1     -41.299 -46.013  10.332  1.00  0.00     0.240 C 
HETATM   21  N   UNL     1     -42.358 -46.796   9.914  1.00  0.00    -0.355 N 
HETATM   22  H   UNL     1     -42.482 -47.714  10.320  1.00  0.00     0.162 HD
HETATM   23  O   UNL     1     -41.029 -44.925   9.821  1.00  0.00    -0.271 OA
BRANCH  21  24
HETATM   24  C   UNL     1     -43.189 -46.439   8.769  1.00  0.00     0.080 C 
HETATM   25  C   UNL     1     -44.193 -45.355   9.161  1.00  0.00     0.032 C 
BRANCH  24  26
HETATM   26  C   UNL     1     -43.869 -47.672   8.146  1.00  0.00     0.020 C 
HETATM   27  C   UNL     1     -45.326 -47.877   8.544  1.00  0.00     0.007 C 
ENDBRANCH  24  26
ENDBRANCH  21  24
ENDBRANCH  18  20
ENDBRANCH   1  18
TORSDOF 6
ENDMDL
MODEL 3
REMARK VINA RESULT:      -6.2      2.025      7.744
REMARK  6 active torsions:
REMARK  status: ('A' for Active; 'I' for Inactive)
REMARK    1  A    between atoms: C_2  and  C_3 
REMARK    2  A    between atoms: C_3  and  N_5 
REMARK       I    between atoms: N_5  and  C_6 
REMARK    3  A    between atoms: C_6  and  C_8 
REMARK    4  A    between atoms: C_8  and  N_10 
REMARK       I    between atoms: N_10  and  C_11 
REMARK    5  A    between atoms: C_11  and  C_13 
REMARK    6  A    between atoms: C_16  and  N_20 
ROOT
HETATM    1  N   UNL     1     -41.673 -52.259  13.323  1.00  0.00    -0.344 N 
HETATM    2  C   UNL     1     -41.581 -50.946  13.723  1.00  0.00     0.253 C 
HETATM    3  O   UNL     1     -41.291 -50.607  14.863  1.00  0.00    -0.268 OA
HETATM    4  H   UNL     1     -42.123 -52.494  12.443  1.00  0.00     0.163 HD
ENDROOT
BRANCH   2   5
HETATM    5  C   UNL     1     -41.875 -49.919  12.690  1.00  0.00     0.047 A 
HETATM    6  C   UNL     1     -42.964 -49.057  12.761  1.00  0.00     0.022 A 
HETATM    7  C   UNL     1     -43.146 -48.098  11.758  1.00  0.00     0.049 A 
HETATM    8  C   UNL     1     -42.261 -48.003  10.683  1.00  0.00     0.103 A 
HETATM    9  N   UNL     1     -41.221 -48.863  10.603  1.00  0.00    -0.351 N 
HETATM   10  C   UNL     1     -41.052 -49.796  11.585  1.00  0.00     0.106 A 
ATOM     11  HN  UNL     1     -40.571 -48.815   9.818  1.00  0.00     0.166 HD
BRANCH   8  12
HETATM   12  N   UNL     1     -42.383 -46.999   9.742  1.00  0.00    -0.363 N 
HETATM   13  C   UNL     1     -41.917 -45.626   9.984  1.00  0.00     0.150 C 
HETATM   14  C   UNL     1     -43.108 -44.668  10.156  1.00  0.00     0.187 C 
HETATM   15  O   UNL     1     -44.014 -44.743   9.046  1.00  0.00    -0.388 OA
HETATM   16  C   UNL     1     -44.538 -46.079   8.929  1.00  0.00     0.187 C 
HETATM   17  C   UNL     1     -43.416 -47.102   8.699  1.00  0.00     0.150 C 
ENDBRANCH   8  12
ENDBRANCH   2   5
BRANCH   1  18
HETATM   18  C   UNL     1     -41.441 -53.400  14.211  1.00  0.00     0.172 C 
HETATM   19  C   UNL     1     -40.757 -54.549  13.479  1.00  0.00     0.042 C 
BRANCH  18  20
HETATM   20  C   UNL     1     -42.821 -53.843  14.758  1.00  0.00     0.240 C 
HETATM   21  N   UNL     1     -43.899 -53.598  13.930  1.00  0.00    -0.355 N 
HETATM   22  H   UNL     1     -43.756 -53.069  13.080  1.00  0.00     0.162 HD
HETATM   23  O   UNL     1     -42.931 -54.398  15.853  1.00  0.00    -0.271 OA
BRANCH  21  24
HETATM   24  C   UNL     1     -45.272 -53.896  14.325  1.00  0.00     0.080 C 
HETATM   25  C   UNL     1     -45.680 -55.278  13.818  1.00  0.00     0.032 C 
BRANCH  24  26
HETATM   26  C   UNL     1     -46.250 -52.793  13.879  1.00  0.00     0.020 C 
HETATM   27  C   UNL     1     -45.594 -51.537  13.319  1.00  0.00     0.007 C 
ENDBRANCH  24  26
ENDBRANCH  21  24
ENDBRANCH  18  20
ENDBRANCH   1  18
TORSDOF 6
ENDMDL
MODEL 4
REMARK VINA RESULT:      -6.1      3.079      8.061
REMARK  6 active torsions:
REMARK  status: ('A' for Active; 'I' for Inactive)
REMARK    1  A    between atoms: C_2  and  C_3 
REMARK    2  A    between atoms: C_3  and  N_5 
REMARK       I    between atoms: N_5  and  C_6 
REMARK    3  A    between atoms: C_6  and  C_8 
REMARK    4  A    between atoms: C_8  and  N_10 
REMARK       I    between atoms: N_10  and  C_11 
REMARK    5  A    between atoms: C_11  and  C_13 
REMARK    6  A    between atoms: C_16  and  N_20 
ROOT
HETATM    1  N   UNL     1     -41.162 -51.796  13.268  1.00  0.00    -0.344 N 
HETATM    2  C   UNL     1     -40.018 -51.140  12.874  1.00  0.00     0.253 C 
HETATM    3  O   UNL     1     -38.895 -51.615  12.986  1.00  0.00    -0.268 OA
HETATM    4  H   UNL     1     -42.036 -51.287  13.359  1.00  0.00     0.163 HD
ENDROOT
BRANCH   2   5
HETATM    5  C   UNL     1     -40.201 -49.779  12.305  1.00  0.00     0.047 A 
HETATM    6  C   UNL     1     -39.524 -48.660  12.774  1.00  0.00     0.022 A 
HETATM    7  C   UNL     1     -39.734 -47.421  12.157  1.00  0.00     0.049 A 
HETATM    8  C   UNL     1     -40.621 -47.291  11.088  1.00  0.00     0.103 A 
HETATM    9  N   UNL     1     -41.300 -48.377  10.653  1.00  0.00    -0.351 N 
HETATM   10  C   UNL     1     -41.090 -49.581  11.263  1.00  0.00     0.106 A 
ATOM     11  HN  UNL     1     -41.960 -48.298   9.880  1.00  0.00     0.166 HD
BRANCH   8  12
HETATM   12  N   UNL     1     -40.761 -46.092  10.415  1.00  0.00    -0.363 N 
HETATM   13  C   UNL     1     -39.714 -45.061  10.409  1.00  0.00     0.150 C 
HETATM   14  C   UNL     1     -40.138 -43.848  11.253  1.00  0.00     0.187 C 
HETATM   15  O   UNL     1     -41.409 -43.330  10.837  1.00  0.00    -0.388 OA
HETATM   16  C   UNL     1     -42.423 -44.341  10.982  1.00  0.00     0.187 C 
HETATM   17  C   UNL     1     -42.108 -45.576  10.124  1.00  0.00     0.150 C 
ENDBRANCH   8  12
ENDBRANCH   2   5
BRANCH   1  18
HETATM   18  C   UNL     1     -41.168 -53.131  13.870  1.00  0.00     0.172 C 
HETATM   19  C   UNL     1     -40.848 -54.210  12.841  1.00  0.00     0.042 C 
BRANCH  18  20
HETATM   20  C   UNL     1     -42.577 -53.353  14.476  1.00  0.00     0.240 C 
HETATM   21  N   UNL     1     -43.611 -53.451  13.565  1.00  0.00    -0.355 N 
HETATM   22  H   UNL     1     -43.422 -53.279  12.586  1.00  0.00     0.162 HD
HETATM   23  O   UNL     1     -42.745 -53.458  15.692  1.00  0.00    -0.271 OA
BRANCH  21  24
HETATM   24  C   UNL     1     -45.004 -53.596  13.976  1.00  0.00     0.080 C 
HETATM   25  C   UNL     1     -45.458 -55.045  13.806  1.00  0.00     0.032 C 
BRANCH  24  26
HETATM   26  C   UNL     1     -45.924 -52.601  13.245  1.00  0.00     0.020 C 
HETATM   27  C   UNL     1     -46.543 -51.524  14.128  1.00  0.00     0.007 C 
ENDBRANCH  24  26
ENDBRANCH  21  24
ENDBRANCH  18  20
ENDBRANCH   1  18
TORSDOF 6
ENDMDL
MODEL 5
REMARK VINA RESULT:      -5.9      2.312      7.941
REMARK  6 active torsions:
REMARK  status: ('A' for Active; 'I' for Inactive)
REMARK    1  A    between atoms: C_2  and  C_3 
REMARK    2  A    between atoms: C_3  and  N_5 
REMARK       I    between atoms: N_5  and  C_6 
REMARK    3  A    between atoms: C_6  and  C_8 
REMARK    4  A    between atoms: C_8  and  N_10 
REMARK       I    between atoms: N_10  and  C_11 
REMARK    5  A    between atoms: C_11  and  C_13 
REMARK    6  A    between atoms: C_16  and  N_20 
ROOT
HETATM    1  N   UNL     1     -44.053 -52.964  13.964  1.00  0.00    -0.344 N 
HETATM    2  C   UNL     1     -42.780 -52.441  13.967  1.00  0.00     0.253 C 
HETATM    3  O   UNL     1     -41.866 -52.893  14.645  1.00  0.00    -0.268 OA
HETATM    4  H   UNL     1     -44.821 -52.434  13.562  1.00  0.00     0.163 HD
ENDROOT
BRANCH   2   5
HETATM    5  C   UNL     1     -42.551 -51.254  13.102  1.00  0.00     0.047 A 
HETATM    6  C   UNL     1     -43.295 -50.084  13.200  1.00  0.00     0.022 A 
HETATM    7  C   UNL     1     -42.989 -49.004  12.364  1.00  0.00     0.049 A 
HETATM    8  C   UNL     1     -41.959 -49.088  11.426  1.00  0.00     0.103 A 
HETATM    9  N   UNL     1     -41.258 -50.239  11.314  1.00  0.00    -0.351 N 
HETATM   10  C   UNL     1     -41.564 -51.288  12.132  1.00  0.00     0.106 A 
ATOM     11  HN  UNL     1     -40.509 -50.322  10.626  1.00  0.00     0.166 HD
BRANCH   8  12
HETATM   12  N   UNL     1     -41.592 -47.995  10.666  1.00  0.00    -0.363 N 
HETATM   13  C   UNL     1     -40.638 -46.984  11.142  1.00  0.00     0.150 C 
HETATM   14  C   UNL     1     -41.356 -45.660  11.455  1.00  0.00     0.187 C 
HETATM   15  O   UNL     1     -42.123 -45.195  10.334  1.00  0.00    -0.388 OA
HETATM   16  C   UNL     1     -43.125 -46.168   9.988  1.00  0.00     0.187 C 
HETATM   17  C   UNL     1     -42.491 -47.513   9.605  1.00  0.00     0.150 C 
ENDBRANCH   8  12
ENDBRANCH   2   5
BRANCH   1  18
HETATM   18  C   UNL     1     -44.463 -54.114  14.771  1.00  0.00     0.172 C 
HETATM   19  C   UNL     1     -45.222 -55.140  13.938  1.00  0.00     0.042 C 
BRANCH  18  20
HETATM   20  C   UNL     1     -45.352 -53.574  15.919  1.00  0.00     0.240 C 
HETATM   21  N   UNL     1     -45.555 -52.207  15.926  1.00  0.00    -0.355 N 
HETATM   22  H   UNL     1     -45.049 -51.632  15.266  1.00  0.00     0.162 HD
HETATM   23  O   UNL     1     -45.860 -54.329  16.750  1.00  0.00    -0.271 OA
BRANCH  21  24
HETATM   24  C   UNL     1     -46.314 -51.535  16.976  1.00  0.00     0.080 C 
HETATM   25  C   UNL     1     -47.759 -51.322  16.530  1.00  0.00     0.032 C 
BRANCH  24  26
HETATM   26  C   UNL     1     -45.637 -50.226  17.425  1.00  0.00     0.020 C 
HETATM   27  C   UNL     1     -44.342 -49.886  16.697  1.00  0.00     0.007 C 
ENDBRANCH  24  26
ENDBRANCH  21  24
ENDBRANCH  18  20
ENDBRANCH   1  18
TORSDOF 6
ENDMDL
MODEL 6
REMARK VINA RESULT:      -5.9      3.765      4.894
REMARK  6 active torsions:
REMARK  status: ('A' for Active; 'I' for Inactive)
REMARK    1  A    between atoms: C_2  and  C_3 
REMARK    2  A    between atoms: C_3  and  N_5 
REMARK       I    between atoms: N_5  and  C_6 
REMARK    3  A    between atoms: C_6  and  C_8 
REMARK    4  A    between atoms: C_8  and  N_10 
REMARK       I    between atoms: N_10  and  C_11 
REMARK    5  A    between atoms: C_11  and  C_13 
REMARK    6  A    between atoms: C_16  and  N_20 
ROOT
HETATM    1  N   UNL     1     -39.345 -50.152  13.906  1.00  0.00    -0.344 N 
HETATM    2  C   UNL     1     -39.463 -51.215  13.041  1.00  0.00     0.253 C 
HETATM    3  O   UNL     1     -38.546 -51.615  12.334  1.00  0.00    -0.268 OA
HETATM    4  H   UNL     1     -40.176 -49.723  14.303  1.00  0.00     0.163 HD
ENDROOT
BRANCH   2   5
HETATM    5  C   UNL     1     -40.795 -51.871  12.978  1.00  0.00     0.047 A 
HETATM    6  C   UNL     1     -41.034 -53.157  13.448  1.00  0.00     0.022 A 
HETATM    7  C   UNL     1     -42.329 -53.685  13.377  1.00  0.00     0.049 A 
HETATM    8  C   UNL     1     -43.379 -52.945  12.831  1.00  0.00     0.103 A 
HETATM    9  N   UNL     1     -43.135 -51.706  12.347  1.00  0.00    -0.351 N 
HETATM   10  C   UNL     1     -41.869 -51.200  12.419  1.00  0.00     0.106 A 
ATOM     11  HN  UNL     1     -43.888 -51.156  11.935  1.00  0.00     0.166 HD
BRANCH   8  12
HETATM   12  N   UNL     1     -44.675 -53.424  12.844  1.00  0.00    -0.363 N 
HETATM   13  C   UNL     1     -45.841 -52.556  12.625  1.00  0.00     0.150 C 
HETATM   14  C   UNL     1     -46.629 -52.361  13.931  1.00  0.00     0.187 C 
HETATM   15  O   UNL     1     -46.992 -53.615  14.524  1.00  0.00    -0.388 OA
HETATM   16  C   UNL     1     -45.808 -54.373  14.835  1.00  0.00     0.187 C 
HETATM   17  C   UNL     1     -44.983 -54.664  13.573  1.00  0.00     0.150 C 
ENDBRANCH   8  12
ENDBRANCH   2   5
BRANCH   1  18
HETATM   18  C   UNL     1     -38.116 -49.375  14.079  1.00  0.00     0.172 C 
HETATM   19  C   UNL     1     -37.545 -49.537  15.484  1.00  0.00     0.042 C 
BRANCH  18  20
HETATM   20  C   UNL     1     -38.468 -47.893  13.797  1.00  0.00     0.240 C 
HETATM   21  N   UNL     1     -39.452 -47.681  12.851  1.00  0.00    -0.355 N 
HETATM   22  H   UNL     1     -39.812 -48.471  12.331  1.00  0.00     0.162 HD
HETATM   23  O   UNL     1     -37.915 -46.974  14.405  1.00  0.00    -0.271 OA
BRANCH  21  24
HETATM   24  C   UNL     1     -39.852 -46.344  12.426  1.00  0.00     0.080 C 
HETATM   25  C   UNL     1     -41.091 -45.892  13.198  1.00  0.00     0.032 C 
BRANCH  24  26
HETATM   26  C   UNL     1     -40.048 -46.262  10.900  1.00  0.00     0.020 C 
HETATM   27  C   UNL     1     -39.624 -44.943  10.265  1.00  0.00     0.007 C 
ENDBRANCH  24  26
ENDBRANCH  21  24
ENDBRANCH  18  20
ENDBRANCH   1  18
TORSDOF 6
ENDMDL
MODEL 7
REMARK VINA RESULT:      -5.7      4.070      6.163
REMARK  6 active torsions:
REMARK  status: ('A' for Active; 'I' for Inactive)
REMARK    1  A    between atoms: C_2  and  C_3 
REMARK    2  A    between atoms: C_3  and  N_5 
REMARK       I    between atoms: N_5  and  C_6 
REMARK    3  A    between atoms: C_6  and  C_8 
REMARK    4  A    between atoms: C_8  and  N_10 
REMARK       I    between atoms: N_10  and  C_11 
REMARK    5  A    between atoms: C_11  and  C_13 
REMARK    6  A    between atoms: C_16  and  N_20 
ROOT
HETATM    1  N   UNL     1     -42.801 -52.059  13.088  1.00  0.00    -0.344 N 
HETATM    2  C   UNL     1     -44.052 -52.630  13.037  1.00  0.00     0.253 C 
HETATM    3  O   UNL     1     -44.426 -53.355  12.123  1.00  0.00    -0.268 OA
HETATM    4  H   UNL     1     -42.612 -51.303  13.739  1.00  0.00     0.163 HD
ENDROOT
BRANCH   2   5
HETATM    5  C   UNL     1     -44.971 -52.310  14.160  1.00  0.00     0.047 A 
HETATM    6  C   UNL     1     -46.182 -51.650  13.990  1.00  0.00     0.022 A 
HETATM    7  C   UNL     1     -46.999 -51.417  15.102  1.00  0.00     0.049 A 
HETATM    8  C   UNL     1     -46.612 -51.826  16.379  1.00  0.00     0.103 A 
HETATM    9  N   UNL     1     -45.420 -52.442  16.544  1.00  0.00    -0.351 N 
HETATM   10  C   UNL     1     -44.628 -52.663  15.454  1.00  0.00     0.106 A 
ATOM     11  HN  UNL     1     -45.116 -52.738  17.472  1.00  0.00     0.166 HD
BRANCH   8  12
HETATM   12  N   UNL     1     -47.456 -51.684  17.464  1.00  0.00    -0.363 N 
HETATM   13  C   UNL     1     -48.313 -50.504  17.650  1.00  0.00     0.150 C 
HETATM   14  C   UNL     1     -47.799 -49.633  18.808  1.00  0.00     0.187 C 
HETATM   15  O   UNL     1     -47.651 -50.392  20.017  1.00  0.00    -0.388 OA
HETATM   16  C   UNL     1     -46.706 -51.458  19.816  1.00  0.00     0.187 C 
HETATM   17  C   UNL     1     -47.169 -52.415  18.708  1.00  0.00     0.150 C 
ENDBRANCH   8  12
ENDBRANCH   2   5
BRANCH   1  18
HETATM   18  C   UNL     1     -41.778 -52.246  12.057  1.00  0.00     0.172 C 
HETATM   19  C   UNL     1     -40.813 -53.368  12.425  1.00  0.00     0.042 C 
BRANCH  18  20
HETATM   20  C   UNL     1     -41.024 -50.900  11.912  1.00  0.00     0.240 C 
HETATM   21  N   UNL     1     -39.646 -50.977  11.975  1.00  0.00    -0.355 N 
HETATM   22  H   UNL     1     -39.213 -51.861  12.205  1.00  0.00     0.162 HD
HETATM   23  O   UNL     1     -41.627 -49.842  11.728  1.00  0.00    -0.271 OA
BRANCH  21  24
HETATM   24  C   UNL     1     -38.794 -49.793  11.920  1.00  0.00     0.080 C 
HETATM   25  C   UNL     1     -37.498 -50.109  11.175  1.00  0.00     0.032 C 
BRANCH  24  26
HETATM   26  C   UNL     1     -38.540 -49.203  13.320  1.00  0.00     0.020 C 
HETATM   27  C   UNL     1     -38.205 -50.225  14.400  1.00  0.00     0.007 C 
ENDBRANCH  24  26
ENDBRANCH  21  24
ENDBRANCH  18  20
ENDBRANCH   1  18
TORSDOF 6
ENDMDL
MODEL 8
REMARK VINA RESULT:      -5.6      3.302      7.952
REMARK  6 active torsions:
REMARK  status: ('A' for Active; 'I' for Inactive)
REMARK    1  A    between atoms: C_2  and  C_3 
REMARK    2  A    between atoms: C_3  and  N_5 
REMARK       I    between atoms: N_5  and  C_6 
REMARK    3  A    between atoms: C_6  and  C_8 
REMARK    4  A    between atoms: C_8  and  N_10 
REMARK       I    between atoms: N_10  and  C_11 
REMARK    5  A    between atoms: C_11  and  C_13 
REMARK    6  A    between atoms: C_16  and  N_20 
ROOT
HETATM    1  N   UNL     1     -42.263 -50.638  12.363  1.00  0.00    -0.344 N 
HETATM    2  C   UNL     1     -41.329 -49.730  12.805  1.00  0.00     0.253 C 
HETATM    3  O   UNL     1     -40.402 -50.024  13.551  1.00  0.00    -0.268 OA
HETATM    4  H   UNL     1     -43.124 -50.314  11.932  1.00  0.00     0.163 HD
ENDROOT
BRANCH   2   5
HETATM    5  C   UNL     1     -41.501 -48.327  12.346  1.00  0.00     0.047 A 
HETATM    6  C   UNL     1     -42.463 -47.468  12.863  1.00  0.00     0.022 A 
HETATM    7  C   UNL     1     -42.533 -46.152  12.392  1.00  0.00     0.049 A 
HETATM    8  C   UNL     1     -41.662 -45.694  11.403  1.00  0.00     0.103 A 
HETATM    9  N   UNL     1     -40.747 -46.542  10.881  1.00  0.00    -0.351 N 
HETATM   10  C   UNL     1     -40.687 -47.825  11.345  1.00  0.00     0.106 A 
ATOM     11  HN  UNL     1     -40.109 -46.227  10.150  1.00  0.00     0.166 HD
BRANCH   8  12
HETATM   12  N   UNL     1     -41.664 -44.371  11.002  1.00  0.00    -0.363 N 
HETATM   13  C   UNL     1     -40.447 -43.547  10.985  1.00  0.00     0.150 C 
HETATM   14  C   UNL     1     -40.486 -42.493  12.104  1.00  0.00     0.187 C 
HETATM   15  O   UNL     1     -41.679 -41.698  12.043  1.00  0.00    -0.388 OA
HETATM   16  C   UNL     1     -42.838 -42.539  12.191  1.00  0.00     0.187 C 
HETATM   17  C   UNL     1     -42.911 -43.593  11.076  1.00  0.00     0.150 C 
ENDBRANCH   8  12
ENDBRANCH   2   5
BRANCH   1  18
HETATM   18  C   UNL     1     -42.262 -52.054  12.734  1.00  0.00     0.172 C 
HETATM   19  C   UNL     1     -41.379 -52.876  11.801  1.00  0.00     0.042 C 
BRANCH  18  20
HETATM   20  C   UNL     1     -43.731 -52.545  12.671  1.00  0.00     0.240 C 
HETATM   21  N   UNL     1     -44.689 -51.610  13.014  1.00  0.00    -0.355 N 
HETATM   22  H   UNL     1     -44.393 -50.712  13.374  1.00  0.00     0.162 HD
HETATM   23  O   UNL     1     -44.011 -53.689  12.312  1.00  0.00    -0.271 OA
BRANCH  21  24
HETATM   24  C   UNL     1     -46.111 -51.932  13.068  1.00  0.00     0.080 C 
HETATM   25  C   UNL     1     -46.794 -51.534  11.760  1.00  0.00     0.032 C 
BRANCH  24  26
HETATM   26  C   UNL     1     -46.794 -51.311  14.301  1.00  0.00     0.020 C 
HETATM   27  C   UNL     1     -47.095 -52.287  15.432  1.00  0.00     0.007 C 
ENDBRANCH  24  26
ENDBRANCH  21  24
ENDBRANCH  18  20
ENDBRANCH   1  18
TORSDOF 6
ENDMDL
MODEL 9
REMARK VINA RESULT:      -5.5      5.270      7.523
REMARK  6 active torsions:
REMARK  status: ('A' for Active; 'I' for Inactive)
REMARK    1  A    between atoms: C_2  and  C_3 
REMARK    2  A    between atoms: C_3  and  N_5 
REMARK       I    between atoms: N_5  and  C_6 
REMARK    3  A    between atoms: C_6  and  C_8 
REMARK    4  A    between atoms: C_8  and  N_10 
REMARK       I    between atoms: N_10  and  C_11 
REMARK    5  A    between atoms: C_11  and  C_13 
REMARK    6  A    between atoms: C_16  and  N_20 
ROOT
HETATM    1  N   UNL     1     -41.603 -53.336  14.598  1.00  0.00    -0.344 N 
HETATM    2  C   UNL     1     -40.421 -53.992  14.341  1.00  0.00     0.253 C 
HETATM    3  O   UNL     1     -39.793 -53.867  13.296  1.00  0.00    -0.268 OA
HETATM    4  H   UNL     1     -42.192 -53.631  15.371  1.00  0.00     0.163 HD
ENDROOT
BRANCH   2   5
HETATM    5  C   UNL     1     -39.926 -54.903  15.405  1.00  0.00     0.047 A 
HETATM    6  C   UNL     1     -38.578 -55.169  15.615  1.00  0.00     0.022 A 
HETATM    7  C   UNL     1     -38.200 -56.018  16.662  1.00  0.00     0.049 A 
HETATM    8  C   UNL     1     -39.155 -56.610  17.489  1.00  0.00     0.103 A 
HETATM    9  N   UNL     1     -40.467 -56.372  17.263  1.00  0.00    -0.351 N 
HETATM   10  C   UNL     1     -40.826 -55.545  16.238  1.00  0.00     0.106 A 
ATOM     11  HN  UNL     1     -41.179 -56.806  17.851  1.00  0.00     0.166 HD
BRANCH   8  12
HETATM   12  N   UNL     1     -38.784 -57.371  18.581  1.00  0.00    -0.363 N 
HETATM   13  C   UNL     1     -37.489 -57.208  19.256  1.00  0.00     0.150 C 
HETATM   14  C   UNL     1     -36.571 -58.410  18.972  1.00  0.00     0.187 C 
HETATM   15  O   UNL     1     -37.205 -59.652  19.309  1.00  0.00    -0.388 OA
HETATM   16  C   UNL     1     -38.402 -59.821  18.529  1.00  0.00     0.187 C 
HETATM   17  C   UNL     1     -39.406 -58.688  18.793  1.00  0.00     0.150 C 
ENDBRANCH   8  12
ENDBRANCH   2   5
BRANCH   1  18
HETATM   18  C   UNL     1     -42.248 -52.420  13.656  1.00  0.00     0.172 C 
HETATM   19  C   UNL     1     -42.169 -50.975  14.137  1.00  0.00     0.042 C 
BRANCH  18  20
HETATM   20  C   UNL     1     -43.724 -52.872  13.516  1.00  0.00     0.240 C 
HETATM   21  N   UNL     1     -44.667 -51.865  13.589  1.00  0.00    -0.355 N 
HETATM   22  H   UNL     1     -44.368 -50.927  13.823  1.00  0.00     0.162 HD
HETATM   23  O   UNL     1     -44.019 -54.053  13.327  1.00  0.00    -0.271 OA
BRANCH  21  24
HETATM   24  C   UNL     1     -46.100 -52.132  13.541  1.00  0.00     0.080 C 
HETATM   25  C   UNL     1     -46.663 -51.752  12.172  1.00  0.00     0.032 C 
BRANCH  24  26
HETATM   26  C   UNL     1     -46.852 -51.446  14.697  1.00  0.00     0.020 C 
HETATM   27  C   UNL     1     -45.992 -51.091  15.905  1.00  0.00     0.007 C 
ENDBRANCH  24  26
ENDBRANCH  21  24
ENDBRANCH  18  20
ENDBRANCH   1  18
TORSDOF 6
ENDMDL
