MODEL 1
REMARK VINA RESULT:      -5.8      0.000      0.000
REMARK  5 active torsions:
REMARK  status: ('A' for Active; 'I' for Inactive)
REMARK    1  A    between atoms: C_2  and  O_3 
REMARK    2  A    between atoms: O_3  and  C_4 
REMARK    3  A    between atoms: C_6  and  N_7 
REMARK       I    between atoms: N_7  and  C_8 
REMARK    4  A    between atoms: C_8  and  C_10 
REMARK    5  A    between atoms: C_10  and  N_11 
ROOT
HETATM    1  N   UNL     1     -43.177 -54.260  14.023  1.00  0.00    -0.354 N 
HETATM    2  C   UNL     1     -44.389 -54.333  13.354  1.00  0.00     0.236 C 
HETATM    3  O   UNL     1     -44.507 -54.129  12.146  1.00  0.00    -0.272 OA
HETATM    4  H   UNL     1     -43.160 -54.553  14.998  1.00  0.00     0.162 HD
ENDROOT
BRANCH   1   5
HETATM    5  C   UNL     1     -41.978 -53.733  13.359  1.00  0.00     0.098 C 
HETATM    6  C   UNL     1     -40.599 -54.068  13.956  1.00  0.00     0.059 C 
HETATM    7  C   UNL     1     -40.146 -52.674  13.408  1.00  0.00     0.133 C 
HETATM    8  C   UNL     1     -41.638 -52.227  13.653  1.00  0.00     0.006 C 
HETATM    9  C   UNL     1     -42.357 -51.276  12.700  1.00  0.00     0.014 C 
HETATM   10  C   UNL     1     -41.871 -51.622  15.043  1.00  0.00     0.014 C 
HETATM   11  C   UNL     1     -43.501 -50.674  13.530  1.00  0.00     0.001 C 
HETATM   12  C   UNL     1     -43.295 -51.108  14.978  1.00  0.00     0.001 C 
BRANCH   7  13
HETATM   13  O   UNL     1     -39.144 -51.948  14.151  1.00  0.00    -0.385 OA
BRANCH  13  14
HETATM   14  C   UNL     1     -38.078 -51.377  13.399  1.00  0.00     0.163 C 
HETATM   15  C   UNL     1     -38.672 -50.577  12.256  1.00  0.00     0.033 C 
ENDBRANCH  13  14
ENDBRANCH   7  13
ENDBRANCH   1   5
BRANCH   2  16
HETATM   16  C   UNL     1     -45.585 -54.720  14.216  1.00  0.00     0.234 C 
BRANCH  16  17
HETATM   17  N   UNL     1     -46.082 -53.585  14.976  1.00  0.00    -0.316 N 
HETATM   18  C   UNL     1     -46.642 -52.500  14.322  1.00  0.00     0.095 A 
HETATM   19  C   UNL     1     -47.054 -51.423  15.000  1.00  0.00     0.017 A 
HETATM   20  C   UNL     1     -46.915 -51.375  16.433  1.00  0.00     0.007 A 
HETATM   21  C   UNL     1     -46.417 -52.425  17.101  1.00  0.00     0.074 A 
HETATM   22  C   UNL     1     -45.985 -53.643  16.366  1.00  0.00     0.247 A 
HETATM   23  O   UNL     1     -45.554 -54.615  16.980  1.00  0.00    -0.268 OA
ENDBRANCH  16  17
ENDBRANCH   2  16
TORSDOF 5
ENDMDL
MODEL 2
REMARK VINA RESULT:      -5.4      3.374      5.122
REMARK  5 active torsions:
REMARK  status: ('A' for Active; 'I' for Inactive)
REMARK    1  A    between atoms: C_2  and  O_3 
REMARK    2  A    between atoms: O_3  and  C_4 
REMARK    3  A    between atoms: C_6  and  N_7 
REMARK       I    between atoms: N_7  and  C_8 
REMARK    4  A    between atoms: C_8  and  C_10 
REMARK    5  A    between atoms: C_10  and  N_11 
ROOT
HETATM    1  N   UNL     1     -41.650 -50.291  11.518  1.00  0.00    -0.354 N 
HETATM    2  C   UNL     1     -42.050 -51.143  12.534  1.00  0.00     0.236 C 
HETATM    3  O   UNL     1     -42.594 -50.753  13.568  1.00  0.00    -0.272 OA
HETATM    4  H   UNL     1     -41.312 -50.714  10.656  1.00  0.00     0.162 HD
ENDROOT
BRANCH   1   5
HETATM    5  C   UNL     1     -41.670 -48.834  11.701  1.00  0.00     0.098 C 
HETATM    6  C   UNL     1     -41.604 -47.934  10.453  1.00  0.00     0.059 C 
HETATM    7  C   UNL     1     -40.849 -46.912  11.365  1.00  0.00     0.133 C 
HETATM    8  C   UNL     1     -40.308 -48.179  12.132  1.00  0.00     0.006 C 
HETATM    9  C   UNL     1     -40.121 -48.181  13.646  1.00  0.00     0.014 C 
HETATM   10  C   UNL     1     -38.973 -48.698  11.582  1.00  0.00     0.014 C 
HETATM   11  C   UNL     1     -39.108 -49.303  13.919  1.00  0.00     0.001 C 
HETATM   12  C   UNL     1     -38.570 -49.773  12.571  1.00  0.00     0.001 C 
BRANCH   7  13
HETATM   13  O   UNL     1     -39.846 -46.073  10.755  1.00  0.00    -0.385 OA
BRANCH  13  14
HETATM   14  C   UNL     1     -39.866 -44.693  11.106  1.00  0.00     0.163 C 
HETATM   15  C   UNL     1     -39.395 -44.556  12.541  1.00  0.00     0.033 C 
ENDBRANCH  13  14
ENDBRANCH   7  13
ENDBRANCH   1   5
BRANCH   2  16
HETATM   16  C   UNL     1     -41.801 -52.624  12.277  1.00  0.00     0.234 C 
BRANCH  16  17
HETATM   17  N   UNL     1     -42.788 -53.454  12.949  1.00  0.00    -0.316 N 
HETATM   18  C   UNL     1     -44.092 -53.497  12.486  1.00  0.00     0.095 A 
HETATM   19  C   UNL     1     -45.028 -54.211  13.123  1.00  0.00     0.017 A 
HETATM   20  C   UNL     1     -44.686 -54.948  14.313  1.00  0.00     0.007 A 
HETATM   21  C   UNL     1     -43.424 -54.963  14.763  1.00  0.00     0.074 A 
HETATM   22  C   UNL     1     -42.366 -54.202  14.047  1.00  0.00     0.247 A 
HETATM   23  O   UNL     1     -41.205 -54.237  14.444  1.00  0.00    -0.268 OA
ENDBRANCH  16  17
ENDBRANCH   2  16
TORSDOF 5
ENDMDL
MODEL 3
REMARK VINA RESULT:      -5.2      1.725      2.248
REMARK  5 active torsions:
REMARK  status: ('A' for Active; 'I' for Inactive)
REMARK    1  A    between atoms: C_2  and  O_3 
REMARK    2  A    between atoms: O_3  and  C_4 
REMARK    3  A    between atoms: C_6  and  N_7 
REMARK       I    between atoms: N_7  and  C_8 
REMARK    4  A    between atoms: C_8  and  C_10 
REMARK    5  A    between atoms: C_10  and  N_11 
ROOT
HETATM    1  N   UNL     1     -42.022 -53.180  15.651  1.00  0.00    -0.354 N 
HETATM    2  C   UNL     1     -42.862 -54.280  15.573  1.00  0.00     0.236 C 
HETATM    3  O   UNL     1     -42.504 -55.374  15.139  1.00  0.00    -0.272 OA
HETATM    4  H   UNL     1     -42.374 -52.352  16.126  1.00  0.00     0.162 HD
ENDROOT
BRANCH   1   5
HETATM    5  C   UNL     1     -40.692 -53.200  15.027  1.00  0.00     0.098 C 
HETATM    6  C   UNL     1     -39.566 -52.367  15.668  1.00  0.00     0.059 C 
HETATM    7  C   UNL     1     -39.011 -52.202  14.214  1.00  0.00     0.133 C 
HETATM    8  C   UNL     1     -40.518 -52.289  13.758  1.00  0.00     0.006 C 
HETATM    9  C   UNL     1     -40.927 -53.005  12.473  1.00  0.00     0.014 C 
HETATM   10  C   UNL     1     -41.206 -50.921  13.666  1.00  0.00     0.014 C 
HETATM   11  C   UNL     1     -42.297 -52.414  12.109  1.00  0.00     0.001 C 
HETATM   12  C   UNL     1     -42.551 -51.235  13.043  1.00  0.00     0.001 C 
BRANCH   7  13
HETATM   13  O   UNL     1     -38.327 -50.975  13.886  1.00  0.00    -0.385 OA
BRANCH  13  14
HETATM   14  C   UNL     1     -37.321 -51.051  12.882  1.00  0.00     0.163 C 
HETATM   15  C   UNL     1     -37.729 -50.161  11.724  1.00  0.00     0.033 C 
ENDBRANCH  13  14
ENDBRANCH   7  13
ENDBRANCH   1   5
BRANCH   2  16
HETATM   16  C   UNL     1     -44.275 -54.056  16.098  1.00  0.00     0.234 C 
BRANCH  16  17
HETATM   17  N   UNL     1     -45.062 -53.251  15.178  1.00  0.00    -0.316 N 
HETATM   18  C   UNL     1     -45.265 -53.678  13.877  1.00  0.00     0.095 A 
HETATM   19  C   UNL     1     -45.940 -52.925  13.000  1.00  0.00     0.017 A 
HETATM   20  C   UNL     1     -46.465 -51.645  13.403  1.00  0.00     0.007 A 
HETATM   21  C   UNL     1     -46.323 -51.221  14.666  1.00  0.00     0.074 A 
HETATM   22  C   UNL     1     -45.606 -52.061  15.661  1.00  0.00     0.247 A 
HETATM   23  O   UNL     1     -45.499 -51.685  16.825  1.00  0.00    -0.268 OA
ENDBRANCH  16  17
ENDBRANCH   2  16
TORSDOF 5
ENDMDL
MODEL 4
REMARK VINA RESULT:      -5.2      1.822      3.183
REMARK  5 active torsions:
REMARK  status: ('A' for Active; 'I' for Inactive)
REMARK    1  A    between atoms: C_2  and  O_3 
REMARK    2  A    between atoms: O_3  and  C_4 
REMARK    3  A    between atoms: C_6  and  N_7 
REMARK       I    between atoms: N_7  and  C_8 
REMARK    4  A    between atoms: C_8  and  C_10 
REMARK    5  A    between atoms: C_10  and  N_11 
ROOT
HETATM    1  N   UNL     1     -42.977 -50.885  12.598  1.00  0.00    -0.354 N 
HETATM    2  C   UNL     1     -44.059 -50.577  13.408  1.00  0.00     0.236 C 
HETATM    3  O   UNL     1     -43.969 -49.882  14.420  1.00  0.00    -0.272 OA
HETATM    4  H   UNL     1     -43.168 -51.372  11.725  1.00  0.00     0.162 HD
ENDROOT
BRANCH   1   5
HETATM    5  C   UNL     1     -41.606 -50.562  13.014  1.00  0.00     0.098 C 
HETATM    6  C   UNL     1     -40.562 -50.249  11.926  1.00  0.00     0.059 C 
HETATM    7  C   UNL     1     -39.515 -50.873  12.907  1.00  0.00     0.133 C 
HETATM    8  C   UNL     1     -40.701 -51.788  13.399  1.00  0.00     0.006 C 
HETATM    9  C   UNL     1     -40.855 -52.181  14.866  1.00  0.00     0.014 C 
HETATM   10  C   UNL     1     -40.802 -53.116  12.637  1.00  0.00     0.014 C 
HETATM   11  C   UNL     1     -41.721 -53.448  14.848  1.00  0.00     0.001 C 
HETATM   12  C   UNL     1     -41.866 -53.885  13.393  1.00  0.00     0.001 C 
BRANCH   7  13
HETATM   13  O   UNL     1     -38.384 -51.566  12.337  1.00  0.00    -0.385 OA
BRANCH  13  14
HETATM   14  C   UNL     1     -37.168 -50.832  12.238  1.00  0.00     0.163 C 
HETATM   15  C   UNL     1     -37.169 -50.075  10.924  1.00  0.00     0.033 C 
ENDBRANCH  13  14
ENDBRANCH   7  13
ENDBRANCH   1   5
BRANCH   2  16
HETATM   16  C   UNL     1     -45.399 -51.135  12.943  1.00  0.00     0.234 C 
BRANCH  16  17
HETATM   17  N   UNL     1     -45.773 -52.318  13.699  1.00  0.00    -0.316 N 
HETATM   18  C   UNL     1     -46.483 -52.193  14.882  1.00  0.00     0.095 A 
HETATM   19  C   UNL     1     -46.788 -53.267  15.621  1.00  0.00     0.017 A 
HETATM   20  C   UNL     1     -46.375 -54.579  15.192  1.00  0.00     0.007 A 
HETATM   21  C   UNL     1     -45.725 -54.739  14.031  1.00  0.00     0.074 A 
HETATM   22  C   UNL     1     -45.407 -53.560  13.183  1.00  0.00     0.247 A 
HETATM   23  O   UNL     1     -44.835 -53.710  12.107  1.00  0.00    -0.268 OA
ENDBRANCH  16  17
ENDBRANCH   2  16
TORSDOF 5
ENDMDL
MODEL 5
REMARK VINA RESULT:      -5.1      2.550      4.673
REMARK  5 active torsions:
REMARK  status: ('A' for Active; 'I' for Inactive)
REMARK    1  A    between atoms: C_2  and  O_3 
REMARK    2  A    between atoms: O_3  and  C_4 
REMARK    3  A    between atoms: C_6  and  N_7 
REMARK       I    between atoms: N_7  and  C_8 
REMARK    4  A    between atoms: C_8  and  C_10 
REMARK    5  A    between atoms: C_10  and  N_11 
ROOT
HETATM    1  N   UNL     1     -40.402 -51.120  13.706  1.00  0.00    -0.354 N 
HETATM    2  C   UNL     1     -40.664 -52.224  12.911  1.00  0.00     0.236 C 
HETATM    3  O   UNL     1     -40.002 -53.261  12.956  1.00  0.00    -0.272 OA
HETATM    4  H   UNL     1     -41.070 -50.352  13.678  1.00  0.00     0.162 HD
ENDROOT
BRANCH   1   5
HETATM    5  C   UNL     1     -39.181 -51.046  14.517  1.00  0.00     0.098 C 
HETATM    6  C   UNL     1     -39.164 -50.105  15.737  1.00  0.00     0.059 C 
HETATM    7  C   UNL     1     -37.636 -49.934  15.445  1.00  0.00     0.133 C 
HETATM    8  C   UNL     1     -38.023 -50.158  13.932  1.00  0.00     0.006 C 
HETATM    9  C   UNL     1     -37.121 -50.939  12.981  1.00  0.00     0.014 C 
HETATM   10  C   UNL     1     -38.327 -48.854  13.183  1.00  0.00     0.014 C 
HETATM   11  C   UNL     1     -37.529 -50.474  11.576  1.00  0.00     0.001 C 
HETATM   12  C   UNL     1     -38.484 -49.295  11.742  1.00  0.00     0.001 C 
BRANCH   7  13
HETATM   13  O   UNL     1     -37.026 -48.662  15.754  1.00  0.00    -0.385 OA
BRANCH  13  14
HETATM   14  C   UNL     1     -35.782 -48.701  16.445  1.00  0.00     0.163 C 
HETATM   15  C   UNL     1     -35.432 -50.150  16.723  1.00  0.00     0.033 C 
ENDBRANCH  13  14
ENDBRANCH   7  13
ENDBRANCH   1   5
BRANCH   2  16
HETATM   16  C   UNL     1     -41.865 -52.088  11.983  1.00  0.00     0.234 C 
BRANCH  16  17
HETATM   17  N   UNL     1     -43.108 -52.387  12.674  1.00  0.00    -0.316 N 
HETATM   18  C   UNL     1     -43.540 -53.698  12.794  1.00  0.00     0.095 A 
HETATM   19  C   UNL     1     -44.709 -53.989  13.378  1.00  0.00     0.017 A 
HETATM   20  C   UNL     1     -45.542 -52.932  13.891  1.00  0.00     0.007 A 
HETATM   21  C   UNL     1     -45.134 -51.657  13.830  1.00  0.00     0.074 A 
HETATM   22  C   UNL     1     -43.823 -51.320  13.214  1.00  0.00     0.247 A 
HETATM   23  O   UNL     1     -43.438 -50.154  13.182  1.00  0.00    -0.268 OA
ENDBRANCH  16  17
ENDBRANCH   2  16
TORSDOF 5
ENDMDL
MODEL 6
REMARK VINA RESULT:      -5.1      3.008      6.337
REMARK  5 active torsions:
REMARK  status: ('A' for Active; 'I' for Inactive)
REMARK    1  A    between atoms: C_2  and  O_3 
REMARK    2  A    between atoms: O_3  and  C_4 
REMARK    3  A    between atoms: C_6  and  N_7 
REMARK       I    between atoms: N_7  and  C_8 
REMARK    4  A    between atoms: C_8  and  C_10 
REMARK    5  A    between atoms: C_10  and  N_11 
ROOT
HETATM    1  N   UNL     1     -42.117 -51.514  11.919  1.00  0.00    -0.354 N 
HETATM    2  C   UNL     1     -40.753 -51.273  11.960  1.00  0.00     0.236 C 
HETATM    3  O   UNL     1     -39.953 -52.010  12.537  1.00  0.00    -0.272 OA
HETATM    4  H   UNL     1     -42.683 -50.911  11.326  1.00  0.00     0.162 HD
ENDROOT
BRANCH   1   5
HETATM    5  C   UNL     1     -42.722 -52.569  12.741  1.00  0.00     0.098 C 
HETATM    6  C   UNL     1     -44.009 -53.249  12.236  1.00  0.00     0.059 C 
HETATM    7  C   UNL     1     -44.384 -53.413  13.746  1.00  0.00     0.133 C 
HETATM    8  C   UNL     1     -43.574 -52.078  13.968  1.00  0.00     0.006 C 
HETATM    9  C   UNL     1     -42.718 -51.858  15.213  1.00  0.00     0.014 C 
HETATM   10  C   UNL     1     -44.442 -50.817  13.874  1.00  0.00     0.014 C 
HETATM   11  C   UNL     1     -42.571 -50.333  15.326  1.00  0.00     0.001 C 
HETATM   12  C   UNL     1     -43.506 -49.703  14.298  1.00  0.00     0.001 C 
BRANCH   7  13
HETATM   13  O   UNL     1     -45.781 -53.365  14.104  1.00  0.00    -0.385 OA
BRANCH  13  14
HETATM   14  C   UNL     1     -46.233 -54.330  15.049  1.00  0.00     0.163 C 
HETATM   15  C   UNL     1     -45.796 -53.889  16.432  1.00  0.00     0.033 C 
ENDBRANCH  13  14
ENDBRANCH   7  13
ENDBRANCH   1   5
BRANCH   2  16
HETATM   16  C   UNL     1     -40.289 -50.033  11.205  1.00  0.00     0.234 C 
BRANCH  16  17
HETATM   17  N   UNL     1     -40.705 -48.814  11.879  1.00  0.00    -0.316 N 
HETATM   18  C   UNL     1     -40.180 -48.489  13.119  1.00  0.00     0.095 A 
HETATM   19  C   UNL     1     -40.592 -47.401  13.780  1.00  0.00     0.017 A 
HETATM   20  C   UNL     1     -41.599 -46.546  13.205  1.00  0.00     0.007 A 
HETATM   21  C   UNL     1     -42.097 -46.808  11.988  1.00  0.00     0.074 A 
HETATM   22  C   UNL     1     -41.625 -47.994  11.227  1.00  0.00     0.247 A 
HETATM   23  O   UNL     1     -42.061 -48.219  10.101  1.00  0.00    -0.268 OA
ENDBRANCH  16  17
ENDBRANCH   2  16
TORSDOF 5
ENDMDL
MODEL 7
REMARK VINA RESULT:      -5.0      2.546      6.765
REMARK  5 active torsions:
REMARK  status: ('A' for Active; 'I' for Inactive)
REMARK    1  A    between atoms: C_2  and  O_3 
REMARK    2  A    between atoms: O_3  and  C_4 
REMARK    3  A    between atoms: C_6  and  N_7 
REMARK       I    between atoms: N_7  and  C_8 
REMARK    4  A    between atoms: C_8  and  C_10 
REMARK    5  A    between atoms: C_10  and  N_11 
ROOT
HETATM    1  N   UNL     1     -42.324 -49.626  13.756  1.00  0.00    -0.354 N 
HETATM    2  C   UNL     1     -41.771 -48.982  12.662  1.00  0.00     0.236 C 
HETATM    3  O   UNL     1     -42.288 -48.982  11.545  1.00  0.00    -0.272 OA
HETATM    4  H   UNL     1     -41.883 -49.477  14.662  1.00  0.00     0.162 HD
ENDROOT
BRANCH   1   5
HETATM    5  C   UNL     1     -43.475 -50.525  13.601  1.00  0.00     0.098 C 
HETATM    6  C   UNL     1     -44.401 -50.752  14.811  1.00  0.00     0.059 C 
HETATM    7  C   UNL     1     -44.628 -52.187  14.230  1.00  0.00     0.133 C 
HETATM    8  C   UNL     1     -43.156 -52.063  13.674  1.00  0.00     0.006 C 
HETATM    9  C   UNL     1     -42.762 -52.636  12.316  1.00  0.00     0.014 C 
HETATM   10  C   UNL     1     -42.095 -52.605  14.640  1.00  0.00     0.014 C 
HETATM   11  C   UNL     1     -41.238 -52.813  12.389  1.00  0.00     0.001 C 
HETATM   12  C   UNL     1     -40.814 -52.555  13.831  1.00  0.00     0.001 C 
BRANCH   7  13
HETATM   13  O   UNL     1     -44.857 -53.265  15.161  1.00  0.00    -0.385 OA
BRANCH  13  14
HETATM   14  C   UNL     1     -45.901 -54.178  14.838  1.00  0.00     0.163 C 
HETATM   15  C   UNL     1     -45.391 -55.134  13.776  1.00  0.00     0.033 C 
ENDBRANCH  13  14
ENDBRANCH   7  13
ENDBRANCH   1   5
BRANCH   2  16
HETATM   16  C   UNL     1     -40.473 -48.232  12.936  1.00  0.00     0.234 C 
BRANCH  16  17
HETATM   17  N   UNL     1     -39.326 -49.124  12.902  1.00  0.00    -0.316 N 
HETATM   18  C   UNL     1     -38.729 -49.444  11.694  1.00  0.00     0.095 A 
HETATM   19  C   UNL     1     -37.707 -50.307  11.636  1.00  0.00     0.017 A 
HETATM   20  C   UNL     1     -37.214 -50.923  12.841  1.00  0.00     0.007 A 
HETATM   21  C   UNL     1     -37.740 -50.602  14.031  1.00  0.00     0.074 A 
HETATM   22  C   UNL     1     -38.853 -49.620  14.116  1.00  0.00     0.247 A 
HETATM   23  O   UNL     1     -39.318 -49.306  15.209  1.00  0.00    -0.268 OA
ENDBRANCH  16  17
ENDBRANCH   2  16
TORSDOF 5
ENDMDL
MODEL 8
REMARK VINA RESULT:      -5.0      2.417      3.369
REMARK  5 active torsions:
REMARK  status: ('A' for Active; 'I' for Inactive)
REMARK    1  A    between atoms: C_2  and  O_3 
REMARK    2  A    between atoms: O_3  and  C_4 
REMARK    3  A    between atoms: C_6  and  N_7 
REMARK       I    between atoms: N_7  and  C_8 
REMARK    4  A    between atoms: C_8  and  C_10 
REMARK    5  A    between atoms: C_10  and  N_11 
ROOT
HETATM    1  N   UNL     1     -42.434 -53.870  13.457  1.00  0.00    -0.354 N 
HETATM    2  C   UNL     1     -42.817 -52.900  12.545  1.00  0.00     0.236 C 
HETATM    3  O   UNL     1     -42.047 -52.048  12.103  1.00  0.00    -0.272 OA
HETATM    4  H   UNL     1     -43.110 -54.598  13.680  1.00  0.00     0.162 HD
ENDROOT
BRANCH   1   5
HETATM    5  C   UNL     1     -41.120 -53.818  14.109  1.00  0.00     0.098 C 
HETATM    6  C   UNL     1     -40.077 -54.895  13.752  1.00  0.00     0.059 C 
HETATM    7  C   UNL     1     -39.563 -54.728  15.220  1.00  0.00     0.133 C 
HETATM    8  C   UNL     1     -41.060 -54.380  15.576  1.00  0.00     0.006 C 
HETATM    9  C   UNL     1     -41.410 -53.318  16.615  1.00  0.00     0.014 C 
HETATM   10  C   UNL     1     -41.888 -55.604  15.988  1.00  0.00     0.014 C 
HETATM   11  C   UNL     1     -42.840 -53.658  17.062  1.00  0.00     0.001 C 
HETATM   12  C   UNL     1     -43.202 -55.009  16.454  1.00  0.00     0.001 C 
BRANCH   7  13
HETATM   13  O   UNL     1     -39.016 -55.888  15.881  1.00  0.00    -0.385 OA
BRANCH  13  14
HETATM   14  C   UNL     1     -37.760 -55.722  16.531  1.00  0.00     0.163 C 
HETATM   15  C   UNL     1     -37.899 -54.626  17.569  1.00  0.00     0.033 C 
ENDBRANCH  13  14
ENDBRANCH   7  13
ENDBRANCH   1   5
BRANCH   2  16
HETATM   16  C   UNL     1     -44.270 -52.971  12.091  1.00  0.00     0.234 C 
BRANCH  16  17
HETATM   17  N   UNL     1     -45.185 -52.827  13.212  1.00  0.00    -0.316 N 
HETATM   18  C   UNL     1     -45.559 -51.566  13.647  1.00  0.00     0.095 A 
HETATM   19  C   UNL     1     -46.356 -51.412  14.711  1.00  0.00     0.017 A 
HETATM   20  C   UNL     1     -46.836 -52.567  15.426  1.00  0.00     0.007 A 
HETATM   21  C   UNL     1     -46.529 -53.801  15.005  1.00  0.00     0.074 A 
HETATM   22  C   UNL     1     -45.672 -53.990  13.805  1.00  0.00     0.247 A 
HETATM   23  O   UNL     1     -45.412 -55.121  13.404  1.00  0.00    -0.268 OA
ENDBRANCH  16  17
ENDBRANCH   2  16
TORSDOF 5
ENDMDL
MODEL 9
REMARK VINA RESULT:      -5.0      1.735      2.353
REMARK  5 active torsions:
REMARK  status: ('A' for Active; 'I' for Inactive)
REMARK    1  A    between atoms: C_2  and  O_3 
REMARK    2  A    between atoms: O_3  and  C_4 
REMARK    3  A    between atoms: C_6  and  N_7 
REMARK       I    between atoms: N_7  and  C_8 
REMARK    4  A    between atoms: C_8  and  C_10 
REMARK    5  A    between atoms: C_10  and  N_11 
ROOT
HETATM    1  N   UNL     1     -41.583 -53.001  14.810  1.00  0.00    -0.354 N 
HETATM    2  C   UNL     1     -42.388 -53.898  14.126  1.00  0.00     0.236 C 
HETATM    3  O   UNL     1     -42.083 -54.386  13.037  1.00  0.00    -0.272 OA
HETATM    4  H   UNL     1     -41.867 -52.739  15.751  1.00  0.00     0.162 HD
ENDROOT
BRANCH   1   5
HETATM    5  C   UNL     1     -40.393 -52.418  14.176  1.00  0.00     0.098 C 
HETATM    6  C   UNL     1     -39.242 -51.935  15.077  1.00  0.00     0.059 C 
HETATM    7  C   UNL     1     -38.977 -50.857  13.975  1.00  0.00     0.133 C 
HETATM    8  C   UNL     1     -40.530 -50.924  13.708  1.00  0.00     0.006 C 
HETATM    9  C   UNL     1     -41.107 -50.811  12.299  1.00  0.00     0.014 C 
HETATM   10  C   UNL     1     -41.333 -49.908  14.530  1.00  0.00     0.014 C 
HETATM   11  C   UNL     1     -42.564 -50.370  12.502  1.00  0.00     0.001 C 
HETATM   12  C   UNL     1     -42.739 -50.028  13.979  1.00  0.00     0.001 C 
BRANCH   7  13
HETATM   13  O   UNL     1     -38.468 -49.573  14.393  1.00  0.00    -0.385 OA
BRANCH  13  14
HETATM   14  C   UNL     1     -37.889 -48.754  13.381  1.00  0.00     0.163 C 
HETATM   15  C   UNL     1     -37.567 -49.626  12.184  1.00  0.00     0.033 C 
ENDBRANCH  13  14
ENDBRANCH   7  13
ENDBRANCH   1   5
BRANCH   2  16
HETATM   16  C   UNL     1     -43.685 -54.276  14.830  1.00  0.00     0.234 C 
BRANCH  16  17
HETATM   17  N   UNL     1     -44.700 -53.249  14.663  1.00  0.00    -0.316 N 
HETATM   18  C   UNL     1     -44.908 -52.308  15.658  1.00  0.00     0.095 A 
HETATM   19  C   UNL     1     -45.875 -51.389  15.547  1.00  0.00     0.017 A 
HETATM   20  C   UNL     1     -46.722 -51.370  14.381  1.00  0.00     0.007 A 
HETATM   21  C   UNL     1     -46.519 -52.239  13.381  1.00  0.00     0.074 A 
HETATM   22  C   UNL     1     -45.428 -53.244  13.474  1.00  0.00     0.247 A 
HETATM   23  O   UNL     1     -45.225 -54.023  12.547  1.00  0.00    -0.268 OA
ENDBRANCH  16  17
ENDBRANCH   2  16
TORSDOF 5
ENDMDL
