MODEL 1
REMARK VINA RESULT:      -6.0      0.000      0.000
REMARK  6 active torsions:
REMARK  status: ('A' for Active; 'I' for Inactive)
REMARK    1  A    between atoms: C_2  and  N_3 
REMARK    2  A    between atoms: C_2  and  C_12 
REMARK    3  A    between atoms: N_3  and  C_4 
REMARK    4  A    between atoms: C_4  and  C_5 
REMARK    5  A    between atoms: C_5  and  O_6 
REMARK    6  A    between atoms: C_12  and  N_14 
ROOT
HETATM    1  N   UNL     1     -41.997 -50.100  11.740  1.00  0.00     0.092 N 
HETATM    2  H   UNL     1     -42.545 -50.596  11.037  1.00  0.00     0.316 HD
ENDROOT
BRANCH   1   3
HETATM    3  C   UNL     1     -41.040 -49.199  11.049  1.00  0.00     0.240 C 
HETATM    4  C   UNL     1     -39.664 -49.471  11.676  1.00  0.00     0.045 C 
BRANCH   3   5
HETATM    5  C   UNL     1     -41.431 -47.687  11.081  1.00  0.00     0.136 C 
HETATM    6  C   UNL     1     -40.229 -46.733  11.124  1.00  0.00     0.036 C 
BRANCH   5   7
HETATM    7  N   UNL     1     -42.381 -47.342  10.024  1.00  0.00    -0.297 N 
HETATM    8  C   UNL     1     -43.093 -46.179   9.926  1.00  0.00     0.112 A 
HETATM    9  C   UNL     1     -43.821 -46.273   8.765  1.00  0.00     0.037 A 
HETATM   10  C   UNL     1     -43.484 -47.530   8.233  1.00  0.00     0.108 A 
HETATM   11  N   UNL     1     -42.609 -48.185   8.996  1.00  0.00    -0.310 N 
ATOM     12  HN  UNL     1     -42.205 -49.109   8.839  1.00  0.00     0.186 HD
ENDBRANCH   5   7
ENDBRANCH   3   5
ENDBRANCH   1   3
BRANCH   1  13
HETATM   13  C   UNL     1     -41.343 -51.080  12.626  1.00  0.00     0.307 C 
BRANCH  13  14
HETATM   14  C   UNL     1     -41.651 -52.552  12.227  1.00  0.00     0.084 C 
HETATM   15  C   UNL     1     -43.129 -52.940  12.404  1.00  0.00     0.039 C 
HETATM   16  C   UNL     1     -43.543 -53.021  13.870  1.00  0.00     0.003 C 
HETATM   17  C   UNL     1     -42.642 -53.972  14.655  1.00  0.00     0.000 C 
HETATM   18  C   UNL     1     -41.162 -53.638  14.492  1.00  0.00     0.003 C 
HETATM   19  C   UNL     1     -40.764 -53.528  13.022  1.00  0.00     0.039 C 
BRANCH  14  20
HETATM   20  O   UNL     1     -41.301 -52.708  10.840  1.00  0.00    -0.388 OA
HETATM   21  H   UNL     1     -40.535 -52.130  10.679  1.00  0.00     0.210 HD
ENDBRANCH  14  20
ENDBRANCH  13  14
ENDBRANCH   1  13
TORSDOF 6
ENDMDL
MODEL 2
REMARK VINA RESULT:      -5.9      2.071      3.601
REMARK  6 active torsions:
REMARK  status: ('A' for Active; 'I' for Inactive)
REMARK    1  A    between atoms: C_2  and  N_3 
REMARK    2  A    between atoms: C_2  and  C_12 
REMARK    3  A    between atoms: N_3  and  C_4 
REMARK    4  A    between atoms: C_4  and  C_5 
REMARK    5  A    between atoms: C_5  and  O_6 
REMARK    6  A    between atoms: C_12  and  N_14 
ROOT
HETATM    1  N   UNL     1     -42.733 -52.390  11.764  1.00  0.00     0.092 N 
HETATM    2  H   UNL     1     -42.981 -53.224  11.231  1.00  0.00     0.316 HD
ENDROOT
BRANCH   1   3
HETATM    3  C   UNL     1     -41.254 -52.324  11.884  1.00  0.00     0.240 C 
HETATM    4  C   UNL     1     -40.838 -53.539  12.729  1.00  0.00     0.045 C 
BRANCH   3   5
HETATM    5  C   UNL     1     -40.707 -50.976  12.452  1.00  0.00     0.136 C 
HETATM    6  C   UNL     1     -39.174 -50.886  12.474  1.00  0.00     0.036 C 
BRANCH   5   7
HETATM    7  N   UNL     1     -41.325 -49.818  11.809  1.00  0.00    -0.297 N 
HETATM    8  C   UNL     1     -42.272 -48.999  12.360  1.00  0.00     0.112 A 
HETATM    9  C   UNL     1     -42.531 -48.029  11.421  1.00  0.00     0.037 A 
HETATM   10  C   UNL     1     -41.693 -48.349  10.337  1.00  0.00     0.108 A 
HETATM   11  N   UNL     1     -40.958 -49.437  10.568  1.00  0.00    -0.310 N 
ATOM     12  HN  UNL     1     -40.277 -49.878   9.951  1.00  0.00     0.186 HD
ENDBRANCH   5   7
ENDBRANCH   3   5
ENDBRANCH   1   3
BRANCH   1  13
HETATM   13  C   UNL     1     -43.426 -52.420  13.064  1.00  0.00     0.307 C 
BRANCH  13  14
HETATM   14  C   UNL     1     -44.717 -53.289  13.038  1.00  0.00     0.084 C 
HETATM   15  C   UNL     1     -45.944 -52.548  12.479  1.00  0.00     0.039 C 
HETATM   16  C   UNL     1     -46.441 -51.449  13.412  1.00  0.00     0.003 C 
HETATM   17  C   UNL     1     -46.733 -51.988  14.810  1.00  0.00     0.000 C 
HETATM   18  C   UNL     1     -45.548 -52.749  15.398  1.00  0.00     0.003 C 
HETATM   19  C   UNL     1     -45.037 -53.828  14.445  1.00  0.00     0.039 C 
BRANCH  14  20
HETATM   20  O   UNL     1     -44.454 -54.431  12.205  1.00  0.00    -0.388 OA
HETATM   21  H   UNL     1     -43.688 -54.890  12.593  1.00  0.00     0.210 HD
ENDBRANCH  14  20
ENDBRANCH  13  14
ENDBRANCH   1  13
TORSDOF 6
ENDMDL
MODEL 3
REMARK VINA RESULT:      -5.9      3.765      4.980
REMARK  6 active torsions:
REMARK  status: ('A' for Active; 'I' for Inactive)
REMARK    1  A    between atoms: C_2  and  N_3 
REMARK    2  A    between atoms: C_2  and  C_12 
REMARK    3  A    between atoms: N_3  and  C_4 
REMARK    4  A    between atoms: C_4  and  C_5 
REMARK    5  A    between atoms: C_5  and  O_6 
REMARK    6  A    between atoms: C_12  and  N_14 
ROOT
HETATM    1  N   UNL     1     -42.465 -52.625  11.765  1.00  0.00     0.092 N 
HETATM    2  H   UNL     1     -42.792 -53.503  11.362  1.00  0.00     0.316 HD
ENDROOT
BRANCH   1   3
HETATM    3  C   UNL     1     -41.085 -52.821  12.276  1.00  0.00     0.240 C 
HETATM    4  C   UNL     1     -41.075 -54.192  12.970  1.00  0.00     0.045 C 
BRANCH   3   5
HETATM    5  C   UNL     1     -40.563 -51.673  13.198  1.00  0.00     0.136 C 
HETATM    6  C   UNL     1     -40.447 -52.065  14.678  1.00  0.00     0.036 C 
BRANCH   5   7
HETATM    7  N   UNL     1     -39.335 -51.069  12.682  1.00  0.00    -0.297 N 
HETATM    8  C   UNL     1     -38.088 -51.181  13.232  1.00  0.00     0.112 A 
HETATM    9  C   UNL     1     -37.240 -50.491  12.400  1.00  0.00     0.037 A 
HETATM   10  C   UNL     1     -38.069 -49.996  11.377  1.00  0.00     0.108 A 
HETATM   11  N   UNL     1     -39.345 -50.344  11.545  1.00  0.00    -0.310 N 
ATOM     12  HN  UNL     1     -40.142 -50.116  10.952  1.00  0.00     0.186 HD
ENDBRANCH   5   7
ENDBRANCH   3   5
ENDBRANCH   1   3
BRANCH   1  13
HETATM   13  C   UNL     1     -43.416 -52.181  12.799  1.00  0.00     0.307 C 
BRANCH  13  14
HETATM   14  C   UNL     1     -44.632 -53.140  12.950  1.00  0.00     0.084 C 
HETATM   15  C   UNL     1     -45.965 -52.516  12.502  1.00  0.00     0.039 C 
HETATM   16  C   UNL     1     -46.441 -51.412  13.440  1.00  0.00     0.003 C 
HETATM   17  C   UNL     1     -46.540 -51.904  14.882  1.00  0.00     0.000 C 
HETATM   18  C   UNL     1     -45.244 -52.550  15.365  1.00  0.00     0.003 C 
HETATM   19  C   UNL     1     -44.758 -53.634  14.404  1.00  0.00     0.039 C 
BRANCH  14  20
HETATM   20  O   UNL     1     -44.373 -54.299  12.139  1.00  0.00    -0.388 OA
HETATM   21  H   UNL     1     -44.391 -54.001  11.213  1.00  0.00     0.210 HD
ENDBRANCH  14  20
ENDBRANCH  13  14
ENDBRANCH   1  13
TORSDOF 6
ENDMDL
MODEL 4
REMARK VINA RESULT:      -5.8      2.703      4.462
REMARK  6 active torsions:
REMARK  status: ('A' for Active; 'I' for Inactive)
REMARK    1  A    between atoms: C_2  and  N_3 
REMARK    2  A    between atoms: C_2  and  C_12 
REMARK    3  A    between atoms: N_3  and  C_4 
REMARK    4  A    between atoms: C_4  and  C_5 
REMARK    5  A    between atoms: C_5  and  O_6 
REMARK    6  A    between atoms: C_12  and  N_14 
ROOT
HETATM    1  N   UNL     1     -42.757 -51.806  12.298  1.00  0.00     0.092 N 
HETATM    2  H   UNL     1     -42.116 -52.473  11.869  1.00  0.00     0.316 HD
ENDROOT
BRANCH   1   3
HETATM    3  C   UNL     1     -42.009 -50.560  12.605  1.00  0.00     0.240 C 
HETATM    4  C   UNL     1     -43.062 -49.516  13.010  1.00  0.00     0.045 C 
BRANCH   3   5
HETATM    5  C   UNL     1     -41.074 -50.062  11.457  1.00  0.00     0.136 C 
HETATM    6  C   UNL     1     -41.389 -48.641  10.970  1.00  0.00     0.036 C 
BRANCH   5   7
HETATM    7  N   UNL     1     -39.660 -50.241  11.783  1.00  0.00    -0.297 N 
HETATM    8  C   UNL     1     -39.160 -50.812  12.921  1.00  0.00     0.112 A 
HETATM    9  C   UNL     1     -37.793 -50.804  12.784  1.00  0.00     0.037 A 
HETATM   10  C   UNL     1     -37.564 -50.206  11.531  1.00  0.00     0.108 A 
HETATM   11  N   UNL     1     -38.697 -49.861  10.919  1.00  0.00    -0.310 N 
ATOM     12  HN  UNL     1     -38.809 -49.414  10.010  1.00  0.00     0.186 HD
ENDBRANCH   5   7
ENDBRANCH   3   5
ENDBRANCH   1   3
BRANCH   1  13
HETATM   13  C   UNL     1     -43.380 -52.422  13.482  1.00  0.00     0.307 C 
BRANCH  13  14
HETATM   14  C   UNL     1     -44.656 -53.242  13.133  1.00  0.00     0.084 C 
HETATM   15  C   UNL     1     -45.809 -52.382  12.589  1.00  0.00     0.039 C 
HETATM   16  C   UNL     1     -46.418 -51.475  13.653  1.00  0.00     0.003 C 
HETATM   17  C   UNL     1     -46.875 -52.270  14.874  1.00  0.00     0.000 C 
HETATM   18  C   UNL     1     -45.767 -53.156  15.438  1.00  0.00     0.003 C 
HETATM   19  C   UNL     1     -45.142 -54.039  14.359  1.00  0.00     0.039 C 
BRANCH  14  20
HETATM   20  O   UNL     1     -44.291 -54.205  12.130  1.00  0.00    -0.388 OA
HETATM   21  H   UNL     1     -44.338 -53.747  11.272  1.00  0.00     0.210 HD
ENDBRANCH  14  20
ENDBRANCH  13  14
ENDBRANCH   1  13
TORSDOF 6
ENDMDL
MODEL 5
REMARK VINA RESULT:      -5.7      2.177      5.955
REMARK  6 active torsions:
REMARK  status: ('A' for Active; 'I' for Inactive)
REMARK    1  A    between atoms: C_2  and  N_3 
REMARK    2  A    between atoms: C_2  and  C_12 
REMARK    3  A    between atoms: N_3  and  C_4 
REMARK    4  A    between atoms: C_4  and  C_5 
REMARK    5  A    between atoms: C_5  and  O_6 
REMARK    6  A    between atoms: C_12  and  N_14 
ROOT
HETATM    1  N   UNL     1     -42.237 -50.976  11.852  1.00  0.00     0.092 N 
HETATM    2  H   UNL     1     -43.221 -50.908  11.591  1.00  0.00     0.316 HD
ENDROOT
BRANCH   1   3
HETATM    3  C   UNL     1     -42.094 -52.026  12.893  1.00  0.00     0.240 C 
HETATM    4  C   UNL     1     -40.700 -52.642  12.691  1.00  0.00     0.045 C 
BRANCH   3   5
HETATM    5  C   UNL     1     -43.233 -53.095  12.900  1.00  0.00     0.136 C 
HETATM    6  C   UNL     1     -42.985 -54.264  13.864  1.00  0.00     0.036 C 
BRANCH   5   7
HETATM    7  N   UNL     1     -44.552 -52.491  13.082  1.00  0.00    -0.297 N 
HETATM    8  C   UNL     1     -44.999 -51.853  14.206  1.00  0.00     0.112 A 
HETATM    9  C   UNL     1     -46.269 -51.415  13.917  1.00  0.00     0.037 A 
HETATM   10  C   UNL     1     -46.501 -51.840  12.596  1.00  0.00     0.108 A 
HETATM   11  N   UNL     1     -45.459 -52.496  12.084  1.00  0.00    -0.310 N 
ATOM     12  HN  UNL     1     -45.369 -52.905  11.154  1.00  0.00     0.186 HD
ENDBRANCH   5   7
ENDBRANCH   3   5
ENDBRANCH   1   3
BRANCH   1  13
HETATM   13  C   UNL     1     -41.758 -49.652  12.286  1.00  0.00     0.307 C 
BRANCH  13  14
HETATM   14  C   UNL     1     -40.695 -49.051  11.321  1.00  0.00     0.084 C 
HETATM   15  C   UNL     1     -39.311 -48.869  11.969  1.00  0.00     0.039 C 
HETATM   16  C   UNL     1     -39.297 -47.766  13.022  1.00  0.00     0.003 C 
HETATM   17  C   UNL     1     -39.800 -46.441  12.454  1.00  0.00     0.000 C 
HETATM   18  C   UNL     1     -41.163 -46.578  11.783  1.00  0.00     0.003 C 
HETATM   19  C   UNL     1     -41.178 -47.705  10.751  1.00  0.00     0.039 C 
BRANCH  14  20
HETATM   20  O   UNL     1     -40.563 -49.951  10.207  1.00  0.00    -0.388 OA
HETATM   21  H   UNL     1     -41.047 -50.762  10.443  1.00  0.00     0.210 HD
ENDBRANCH  14  20
ENDBRANCH  13  14
ENDBRANCH   1  13
TORSDOF 6
ENDMDL
MODEL 6
REMARK VINA RESULT:      -5.6      1.907      3.463
REMARK  6 active torsions:
REMARK  status: ('A' for Active; 'I' for Inactive)
REMARK    1  A    between atoms: C_2  and  N_3 
REMARK    2  A    between atoms: C_2  and  C_12 
REMARK    3  A    between atoms: N_3  and  C_4 
REMARK    4  A    between atoms: C_4  and  C_5 
REMARK    5  A    between atoms: C_5  and  O_6 
REMARK    6  A    between atoms: C_12  and  N_14 
ROOT
HETATM    1  N   UNL     1     -42.110 -50.281  11.784  1.00  0.00     0.092 N 
HETATM    2  H   UNL     1     -41.558 -50.547  10.969  1.00  0.00     0.316 HD
ENDROOT
BRANCH   1   3
HETATM    3  C   UNL     1     -41.769 -48.884  12.154  1.00  0.00     0.240 C 
HETATM    4  C   UNL     1     -43.031 -48.049  11.888  1.00  0.00     0.045 C 
BRANCH   3   5
HETATM    5  C   UNL     1     -40.503 -48.312  11.439  1.00  0.00     0.136 C 
HETATM    6  C   UNL     1     -40.344 -46.791  11.577  1.00  0.00     0.036 C 
BRANCH   5   7
HETATM    7  N   UNL     1     -39.288 -49.037  11.809  1.00  0.00    -0.297 N 
HETATM    8  C   UNL     1     -38.704 -49.055  13.045  1.00  0.00     0.112 A 
HETATM    9  C   UNL     1     -37.617 -49.889  12.942  1.00  0.00     0.037 A 
HETATM   10  C   UNL     1     -37.627 -50.324  11.604  1.00  0.00     0.108 A 
HETATM   11  N   UNL     1     -38.641 -49.808  10.911  1.00  0.00    -0.310 N 
ATOM     12  HN  UNL     1     -38.874 -49.960   9.929  1.00  0.00     0.186 HD
ENDBRANCH   5   7
ENDBRANCH   3   5
ENDBRANCH   1   3
BRANCH   1  13
HETATM   13  C   UNL     1     -41.870 -51.250  12.869  1.00  0.00     0.307 C 
BRANCH  13  14
HETATM   14  C   UNL     1     -41.819 -52.720  12.362  1.00  0.00     0.084 C 
HETATM   15  C   UNL     1     -43.181 -53.433  12.406  1.00  0.00     0.039 C 
HETATM   16  C   UNL     1     -43.653 -53.710  13.829  1.00  0.00     0.003 C 
HETATM   17  C   UNL     1     -42.613 -54.497  14.622  1.00  0.00     0.000 C 
HETATM   18  C   UNL     1     -41.238 -53.836  14.591  1.00  0.00     0.003 C 
HETATM   19  C   UNL     1     -40.786 -53.535  13.163  1.00  0.00     0.039 C 
BRANCH  14  20
HETATM   20  O   UNL     1     -41.360 -52.693  10.999  1.00  0.00    -0.388 OA
HETATM   21  H   UNL     1     -40.430 -52.408  11.023  1.00  0.00     0.210 HD
ENDBRANCH  14  20
ENDBRANCH  13  14
ENDBRANCH   1  13
TORSDOF 6
ENDMDL
MODEL 7
REMARK VINA RESULT:      -5.5      1.671      2.636
REMARK  6 active torsions:
REMARK  status: ('A' for Active; 'I' for Inactive)
REMARK    1  A    between atoms: C_2  and  N_3 
REMARK    2  A    between atoms: C_2  and  C_12 
REMARK    3  A    between atoms: N_3  and  C_4 
REMARK    4  A    between atoms: C_4  and  C_5 
REMARK    5  A    between atoms: C_5  and  O_6 
REMARK    6  A    between atoms: C_12  and  N_14 
ROOT
HETATM    1  N   UNL     1     -41.577 -50.694  11.538  1.00  0.00     0.092 N 
HETATM    2  H   UNL     1     -40.559 -50.759  11.541  1.00  0.00     0.316 HD
ENDROOT
BRANCH   1   3
HETATM    3  C   UNL     1     -41.970 -49.379  12.106  1.00  0.00     0.240 C 
HETATM    4  C   UNL     1     -43.228 -49.636  12.951  1.00  0.00     0.045 C 
BRANCH   3   5
HETATM    5  C   UNL     1     -42.172 -48.247  11.050  1.00  0.00     0.136 C 
HETATM    6  C   UNL     1     -43.621 -47.754  10.933  1.00  0.00     0.036 C 
BRANCH   5   7
HETATM    7  N   UNL     1     -41.222 -47.150  11.231  1.00  0.00    -0.297 N 
HETATM    8  C   UNL     1     -40.670 -46.748  12.416  1.00  0.00     0.112 A 
HETATM    9  C   UNL     1     -39.813 -45.719  12.109  1.00  0.00     0.037 A 
HETATM   10  C   UNL     1     -39.919 -45.571  10.714  1.00  0.00     0.108 A 
HETATM   11  N   UNL     1     -40.776 -46.439  10.176  1.00  0.00    -0.310 N 
ATOM     12  HN  UNL     1     -41.033 -46.542   9.194  1.00  0.00     0.186 HD
ENDBRANCH   5   7
ENDBRANCH   3   5
ENDBRANCH   1   3
BRANCH   1  13
HETATM   13  C   UNL     1     -42.140 -51.841  12.270  1.00  0.00     0.307 C 
BRANCH  13  14
HETATM   14  C   UNL     1     -41.076 -52.930  12.593  1.00  0.00     0.084 C 
HETATM   15  C   UNL     1     -41.652 -54.154  13.325  1.00  0.00     0.039 C 
HETATM   16  C   UNL     1     -42.079 -53.836  14.754  1.00  0.00     0.003 C 
HETATM   17  C   UNL     1     -40.935 -53.223  15.558  1.00  0.00     0.000 C 
HETATM   18  C   UNL     1     -40.318 -52.015  14.861  1.00  0.00     0.003 C 
HETATM   19  C   UNL     1     -39.921 -52.333  13.420  1.00  0.00     0.039 C 
BRANCH  14  20
HETATM   20  O   UNL     1     -40.510 -53.367  11.345  1.00  0.00    -0.388 OA
HETATM   21  H   UNL     1     -41.221 -53.824  10.862  1.00  0.00     0.210 HD
ENDBRANCH  14  20
ENDBRANCH  13  14
ENDBRANCH   1  13
TORSDOF 6
ENDMDL
MODEL 8
REMARK VINA RESULT:      -5.5      4.095      6.099
REMARK  6 active torsions:
REMARK  status: ('A' for Active; 'I' for Inactive)
REMARK    1  A    between atoms: C_2  and  N_3 
REMARK    2  A    between atoms: C_2  and  C_12 
REMARK    3  A    between atoms: N_3  and  C_4 
REMARK    4  A    between atoms: C_4  and  C_5 
REMARK    5  A    between atoms: C_5  and  O_6 
REMARK    6  A    between atoms: C_12  and  N_14 
ROOT
HETATM    1  N   UNL     1     -43.561 -53.014  12.106  1.00  0.00     0.092 N 
HETATM    2  H   UNL     1     -43.776 -53.180  11.123  1.00  0.00     0.316 HD
ENDROOT
BRANCH   1   3
HETATM    3  C   UNL     1     -44.733 -52.363  12.746  1.00  0.00     0.240 C 
HETATM    4  C   UNL     1     -44.168 -51.261  13.656  1.00  0.00     0.045 C 
BRANCH   3   5
HETATM    5  C   UNL     1     -45.688 -53.341  13.501  1.00  0.00     0.136 C 
HETATM    6  C   UNL     1     -45.126 -54.761  13.661  1.00  0.00     0.036 C 
BRANCH   5   7
HETATM    7  N   UNL     1     -46.159 -52.781  14.767  1.00  0.00    -0.297 N 
HETATM    8  C   UNL     1     -47.020 -51.728  14.913  1.00  0.00     0.112 A 
HETATM    9  C   UNL     1     -47.211 -51.576  16.265  1.00  0.00     0.037 A 
HETATM   10  C   UNL     1     -46.423 -52.581  16.852  1.00  0.00     0.108 A 
HETATM   11  N   UNL     1     -45.780 -53.317  15.945  1.00  0.00    -0.310 N 
ATOM     12  HN  UNL     1     -45.149 -54.102  16.105  1.00  0.00     0.186 HD
ENDBRANCH   5   7
ENDBRANCH   3   5
ENDBRANCH   1   3
BRANCH   1  13
HETATM   13  C   UNL     1     -42.324 -52.219  12.205  1.00  0.00     0.307 C 
BRANCH  13  14
HETATM   14  C   UNL     1     -41.078 -53.085  12.553  1.00  0.00     0.084 C 
HETATM   15  C   UNL     1     -41.400 -54.288  13.456  1.00  0.00     0.039 C 
HETATM   16  C   UNL     1     -41.778 -53.872  14.874  1.00  0.00     0.003 C 
HETATM   17  C   UNL     1     -40.699 -52.999  15.510  1.00  0.00     0.000 C 
HETATM   18  C   UNL     1     -40.333 -51.802  14.638  1.00  0.00     0.003 C 
HETATM   19  C   UNL     1     -39.984 -52.224  13.212  1.00  0.00     0.039 C 
BRANCH  14  20
HETATM   20  O   UNL     1     -40.532 -53.575  11.316  1.00  0.00    -0.388 OA
HETATM   21  H   UNL     1     -40.237 -52.797  10.812  1.00  0.00     0.210 HD
ENDBRANCH  14  20
ENDBRANCH  13  14
ENDBRANCH   1  13
TORSDOF 6
ENDMDL
MODEL 9
REMARK VINA RESULT:      -5.5      2.143      2.747
REMARK  6 active torsions:
REMARK  status: ('A' for Active; 'I' for Inactive)
REMARK    1  A    between atoms: C_2  and  N_3 
REMARK    2  A    between atoms: C_2  and  C_12 
REMARK    3  A    between atoms: N_3  and  C_4 
REMARK    4  A    between atoms: C_4  and  C_5 
REMARK    5  A    between atoms: C_5  and  O_6 
REMARK    6  A    between atoms: C_12  and  N_14 
ROOT
HETATM    1  N   UNL     1     -39.278 -51.289  12.244  1.00  0.00     0.092 N 
HETATM    2  H   UNL     1     -38.591 -51.586  12.936  1.00  0.00     0.316 HD
ENDROOT
BRANCH   1   3
HETATM    3  C   UNL     1     -38.938 -49.914  11.797  1.00  0.00     0.240 C 
HETATM    4  C   UNL     1     -37.488 -49.974  11.291  1.00  0.00     0.045 C 
BRANCH   3   5
HETATM    5  C   UNL     1     -39.157 -48.806  12.876  1.00  0.00     0.136 C 
HETATM    6  C   UNL     1     -37.970 -48.624  13.832  1.00  0.00     0.036 C 
BRANCH   5   7
HETATM    7  N   UNL     1     -39.597 -47.543  12.285  1.00  0.00    -0.297 N 
HETATM    8  C   UNL     1     -39.614 -46.324  12.905  1.00  0.00     0.112 A 
HETATM    9  C   UNL     1     -40.061 -45.425  11.968  1.00  0.00     0.037 A 
HETATM   10  C   UNL     1     -40.290 -46.196  10.814  1.00  0.00     0.108 A 
HETATM   11  N   UNL     1     -40.010 -47.485  11.002  1.00  0.00    -0.310 N 
ATOM     12  HN  UNL     1     -40.090 -48.250  10.332  1.00  0.00     0.186 HD
ENDBRANCH   5   7
ENDBRANCH   3   5
ENDBRANCH   1   3
BRANCH   1  13
HETATM   13  C   UNL     1     -40.629 -51.399  12.822  1.00  0.00     0.307 C 
BRANCH  13  14
HETATM   14  C   UNL     1     -41.414 -52.632  12.287  1.00  0.00     0.084 C 
HETATM   15  C   UNL     1     -42.924 -52.570  12.574  1.00  0.00     0.039 C 
HETATM   16  C   UNL     1     -43.247 -52.734  14.056  1.00  0.00     0.003 C 
HETATM   17  C   UNL     1     -42.647 -54.018  14.623  1.00  0.00     0.000 C 
HETATM   18  C   UNL     1     -41.151 -54.132  14.344  1.00  0.00     0.003 C 
HETATM   19  C   UNL     1     -40.833 -53.937  12.862  1.00  0.00     0.039 C 
BRANCH  14  20
HETATM   20  O   UNL     1     -41.222 -52.684  10.862  1.00  0.00    -0.388 OA
HETATM   21  H   UNL     1     -40.690 -53.478  10.681  1.00  0.00     0.210 HD
ENDBRANCH  14  20
ENDBRANCH  13  14
ENDBRANCH   1  13
TORSDOF 6
ENDMDL
