MODEL 1
REMARK VINA RESULT:      -6.1      0.000      0.000
REMARK  6 active torsions:
REMARK  status: ('A' for Active; 'I' for Inactive)
REMARK    1  A    between atoms: N_2  and  C_4 
REMARK    2  A    between atoms: N_9  and  C_10 
REMARK    3  A    between atoms: C_10  and  C_11 
REMARK       I    between atoms: C_11  and  N_13 
REMARK    4  A    between atoms: N_13  and  C_14 
REMARK    5  A    between atoms: C_14  and  C_15 
REMARK    6  A    between atoms: C_15  and  N_16 
ROOT
HETATM    1  C   UNL     1     -43.408 -55.078  14.750  1.00  0.00     0.235 C 
HETATM    2  O   UNL     1     -43.098 -55.936  15.575  1.00  0.00    -0.272 OA
HETATM    3  N   UNL     1     -42.527 -54.105  14.318  1.00  0.00    -0.358 N 
HETATM    4  H   UNL     1     -42.861 -53.399  13.670  1.00  0.00     0.162 HD
ENDROOT
BRANCH   1   5
HETATM    5  C   UNL     1     -44.824 -54.986  14.168  1.00  0.00     0.234 C 
BRANCH   5   6
HETATM    6  N   UNL     1     -45.467 -53.682  14.359  1.00  0.00    -0.314 N 
HETATM    7  C   UNL     1     -45.675 -52.887  13.231  1.00  0.00     0.247 A 
HETATM    8  C   UNL     1     -46.477 -51.640  13.445  1.00  0.00     0.077 A 
HETATM    9  O   UNL     1     -45.270 -53.161  12.105  1.00  0.00    -0.268 OA
HETATM   10  C   UNL     1     -46.950 -51.335  14.662  1.00  0.00     0.043 A 
HETATM   11  C   UNL     1     -46.684 -52.209  15.783  1.00  0.00     0.118 A 
HETATM   12  C   UNL     1     -45.958 -53.328  15.617  1.00  0.00     0.130 A 
BRANCH  11  13
HETATM   13  N   UNL     1     -47.258 -51.947  17.098  1.00  0.00    -0.114 N 
HETATM   14  O   UNL     1     -46.601 -52.276  18.096  1.00  0.00    -0.532 OA
HETATM   15  O   UNL     1     -48.388 -51.442  17.130  1.00  0.00    -0.532 OA
ENDBRANCH  11  13
ENDBRANCH   5   6
ENDBRANCH   1   5
BRANCH   3  16
HETATM   16  C   UNL     1     -41.135 -54.078  14.742  1.00  0.00     0.143 C 
BRANCH  16  17
HETATM   17  C   UNL     1     -40.141 -53.803  13.603  1.00  0.00     0.155 C 
BRANCH  17  18
HETATM   18  N   UNL     1     -40.076 -52.408  13.182  1.00  0.00    -0.277 N 
HETATM   19  C   UNL     1     -39.185 -51.525  13.747  1.00  0.00     0.236 C 
HETATM   20  O   UNL     1     -38.445 -51.785  14.691  1.00  0.00    -0.272 OA
HETATM   21  C   UNL     1     -39.214 -50.174  13.080  1.00  0.00     0.187 C 
HETATM   22  S   UNL     1     -40.504 -50.268  11.824  1.00  0.00    -0.059 SA
HETATM   23  C   UNL     1     -40.936 -51.907  12.246  1.00  0.00     0.289 C 
HETATM   24  O   UNL     1     -41.900 -52.472  11.757  1.00  0.00    -0.260 OA
ENDBRANCH  17  18
ENDBRANCH  16  17
ENDBRANCH   3  16
TORSDOF 6
ENDMDL
MODEL 2
REMARK VINA RESULT:      -6.1      5.191      7.338
REMARK  6 active torsions:
REMARK  status: ('A' for Active; 'I' for Inactive)
REMARK    1  A    between atoms: N_2  and  C_4 
REMARK    2  A    between atoms: N_9  and  C_10 
REMARK    3  A    between atoms: C_10  and  C_11 
REMARK       I    between atoms: C_11  and  N_13 
REMARK    4  A    between atoms: N_13  and  C_14 
REMARK    5  A    between atoms: C_14  and  C_15 
REMARK    6  A    between atoms: C_15  and  N_16 
ROOT
HETATM    1  C   UNL     1     -42.063 -48.723  11.806  1.00  0.00     0.235 C 
HETATM    2  O   UNL     1     -42.163 -48.210  12.920  1.00  0.00    -0.272 OA
HETATM    3  N   UNL     1     -42.150 -50.087  11.603  1.00  0.00    -0.358 N 
HETATM    4  H   UNL     1     -42.013 -50.448  10.664  1.00  0.00     0.162 HD
ENDROOT
BRANCH   1   5
HETATM    5  C   UNL     1     -41.779 -47.889  10.551  1.00  0.00     0.234 C 
BRANCH   5   6
HETATM    6  N   UNL     1     -42.922 -47.095  10.088  1.00  0.00    -0.314 N 
HETATM    7  C   UNL     1     -42.745 -45.719   9.942  1.00  0.00     0.247 A 
HETATM    8  C   UNL     1     -43.882 -44.972   9.316  1.00  0.00     0.077 A 
HETATM    9  O   UNL     1     -41.727 -45.113  10.267  1.00  0.00    -0.268 OA
HETATM   10  C   UNL     1     -44.992 -45.618   8.931  1.00  0.00     0.043 A 
HETATM   11  C   UNL     1     -45.101 -47.047   9.123  1.00  0.00     0.118 A 
HETATM   12  C   UNL     1     -44.098 -47.737   9.693  1.00  0.00     0.130 A 
BRANCH  11  13
HETATM   13  N   UNL     1     -46.259 -47.789   8.636  1.00  0.00    -0.114 N 
HETATM   14  O   UNL     1     -47.383 -47.428   9.013  1.00  0.00    -0.532 OA
HETATM   15  O   UNL     1     -46.038 -48.759   7.899  1.00  0.00    -0.532 OA
ENDBRANCH  11  13
ENDBRANCH   5   6
ENDBRANCH   1   5
BRANCH   3  16
HETATM   16  C   UNL     1     -42.457 -51.012  12.683  1.00  0.00     0.143 C 
BRANCH  16  17
HETATM   17  C   UNL     1     -42.255 -52.491  12.314  1.00  0.00     0.155 C 
BRANCH  17  18
HETATM   18  N   UNL     1     -42.882 -53.433  13.234  1.00  0.00    -0.277 N 
HETATM   19  C   UNL     1     -44.180 -53.855  13.060  1.00  0.00     0.236 C 
HETATM   20  O   UNL     1     -44.945 -53.429  12.201  1.00  0.00    -0.272 OA
HETATM   21  C   UNL     1     -44.577 -54.912  14.058  1.00  0.00     0.187 C 
HETATM   22  S   UNL     1     -43.155 -55.133  15.142  1.00  0.00    -0.059 SA
HETATM   23  C   UNL     1     -42.222 -53.895  14.337  1.00  0.00     0.289 C 
HETATM   24  O   UNL     1     -41.143 -53.515  14.761  1.00  0.00    -0.260 OA
ENDBRANCH  17  18
ENDBRANCH  16  17
ENDBRANCH   3  16
TORSDOF 6
ENDMDL
MODEL 3
REMARK VINA RESULT:      -6.0      4.302      6.408
REMARK  6 active torsions:
REMARK  status: ('A' for Active; 'I' for Inactive)
REMARK    1  A    between atoms: N_2  and  C_4 
REMARK    2  A    between atoms: N_9  and  C_10 
REMARK    3  A    between atoms: C_10  and  C_11 
REMARK       I    between atoms: C_11  and  N_13 
REMARK    4  A    between atoms: N_13  and  C_14 
REMARK    5  A    between atoms: C_14  and  C_15 
REMARK    6  A    between atoms: C_15  and  N_16 
ROOT
HETATM    1  C   UNL     1     -41.609 -49.752  12.126  1.00  0.00     0.235 C 
HETATM    2  O   UNL     1     -41.763 -49.362  13.282  1.00  0.00    -0.272 OA
HETATM    3  N   UNL     1     -42.161 -49.101  11.038  1.00  0.00    -0.358 N 
HETATM    4  H   UNL     1     -42.033 -49.503  10.115  1.00  0.00     0.162 HD
ENDROOT
BRANCH   1   5
HETATM    5  C   UNL     1     -40.829 -51.031  11.798  1.00  0.00     0.234 C 
BRANCH   5   6
HETATM    6  N   UNL     1     -41.377 -52.243  12.416  1.00  0.00    -0.314 N 
HETATM    7  C   UNL     1     -40.550 -52.971  13.272  1.00  0.00     0.247 A 
HETATM    8  C   UNL     1     -41.197 -54.106  14.005  1.00  0.00     0.077 A 
HETATM    9  O   UNL     1     -39.364 -52.721  13.467  1.00  0.00    -0.268 OA
HETATM   10  C   UNL     1     -42.497 -54.380  13.824  1.00  0.00     0.043 A 
HETATM   11  C   UNL     1     -43.286 -53.581  12.913  1.00  0.00     0.118 A 
HETATM   12  C   UNL     1     -42.724 -52.564  12.236  1.00  0.00     0.130 A 
BRANCH  11  13
HETATM   13  N   UNL     1     -44.720 -53.801  12.762  1.00  0.00    -0.114 N 
HETATM   14  O   UNL     1     -45.201 -54.846  13.223  1.00  0.00    -0.532 OA
HETATM   15  O   UNL     1     -45.362 -52.937  12.149  1.00  0.00    -0.532 OA
ENDBRANCH  11  13
ENDBRANCH   5   6
ENDBRANCH   1   5
BRANCH   3  16
HETATM   16  C   UNL     1     -42.893 -47.852  11.175  1.00  0.00     0.143 C 
BRANCH  16  17
HETATM   17  C   UNL     1     -42.402 -46.735  10.240  1.00  0.00     0.155 C 
BRANCH  17  18
HETATM   18  N   UNL     1     -41.589 -45.716  10.893  1.00  0.00    -0.277 N 
HETATM   19  C   UNL     1     -42.003 -44.406  10.973  1.00  0.00     0.236 C 
HETATM   20  O   UNL     1     -43.015 -43.958  10.444  1.00  0.00    -0.272 OA
HETATM   21  C   UNL     1     -41.063 -43.556  11.789  1.00  0.00     0.187 C 
HETATM   22  S   UNL     1     -39.707 -44.639  12.273  1.00  0.00    -0.059 SA
HETATM   23  C   UNL     1     -40.358 -46.009  11.406  1.00  0.00     0.289 C 
HETATM   24  O   UNL     1     -39.741 -47.055  11.285  1.00  0.00    -0.260 OA
ENDBRANCH  17  18
ENDBRANCH  16  17
ENDBRANCH   3  16
TORSDOF 6
ENDMDL
MODEL 4
REMARK VINA RESULT:      -6.0      4.423      7.172
REMARK  6 active torsions:
REMARK  status: ('A' for Active; 'I' for Inactive)
REMARK    1  A    between atoms: N_2  and  C_4 
REMARK    2  A    between atoms: N_9  and  C_10 
REMARK    3  A    between atoms: C_10  and  C_11 
REMARK       I    between atoms: C_11  and  N_13 
REMARK    4  A    between atoms: N_13  and  C_14 
REMARK    5  A    between atoms: C_14  and  C_15 
REMARK    6  A    between atoms: C_15  and  N_16 
ROOT
HETATM    1  C   UNL     1     -41.861 -50.272  12.281  1.00  0.00     0.235 C 
HETATM    2  O   UNL     1     -42.081 -49.702  13.348  1.00  0.00    -0.272 OA
HETATM    3  N   UNL     1     -42.349 -51.532  11.993  1.00  0.00    -0.358 N 
HETATM    4  H   UNL     1     -42.092 -51.963  11.111  1.00  0.00     0.162 HD
ENDROOT
BRANCH   1   5
HETATM    5  C   UNL     1     -40.979 -49.645  11.194  1.00  0.00     0.234 C 
BRANCH   5   6
HETATM    6  N   UNL     1     -41.185 -48.205  11.010  1.00  0.00    -0.314 N 
HETATM    7  C   UNL     1     -40.222 -47.337  11.527  1.00  0.00     0.247 A 
HETATM    8  C   UNL     1     -40.387 -45.889  11.178  1.00  0.00     0.077 A 
HETATM    9  O   UNL     1     -39.264 -47.691  12.208  1.00  0.00    -0.268 OA
HETATM   10  C   UNL     1     -41.413 -45.486  10.414  1.00  0.00     0.043 A 
HETATM   11  C   UNL     1     -42.373 -46.448   9.923  1.00  0.00     0.118 A 
HETATM   12  C   UNL     1     -42.251 -47.751  10.232  1.00  0.00     0.130 A 
BRANCH  11  13
HETATM   13  N   UNL     1     -43.448 -46.050   9.020  1.00  0.00    -0.114 N 
HETATM   14  O   UNL     1     -43.749 -44.849   8.966  1.00  0.00    -0.532 OA
HETATM   15  O   UNL     1     -44.015 -46.951   8.387  1.00  0.00    -0.532 OA
ENDBRANCH  11  13
ENDBRANCH   5   6
ENDBRANCH   1   5
BRANCH   3  16
HETATM   16  C   UNL     1     -43.236 -52.244  12.901  1.00  0.00     0.143 C 
BRANCH  16  17
HETATM   17  C   UNL     1     -43.030 -53.767  12.908  1.00  0.00     0.155 C 
BRANCH  17  18
HETATM   18  N   UNL     1     -42.131 -54.249  13.950  1.00  0.00    -0.277 N 
HETATM   19  C   UNL     1     -40.768 -54.083  13.860  1.00  0.00     0.236 C 
HETATM   20  O   UNL     1     -40.183 -53.614  12.890  1.00  0.00    -0.272 OA
HETATM   21  C   UNL     1     -40.050 -54.553  15.100  1.00  0.00     0.187 C 
HETATM   22  S   UNL     1     -41.321 -55.224  16.187  1.00  0.00    -0.059 SA
HETATM   23  C   UNL     1     -42.602 -54.933  15.035  1.00  0.00     0.289 C 
HETATM   24  O   UNL     1     -43.741 -55.332  15.215  1.00  0.00    -0.260 OA
ENDBRANCH  17  18
ENDBRANCH  16  17
ENDBRANCH   3  16
TORSDOF 6
ENDMDL
MODEL 5
REMARK VINA RESULT:      -5.9      2.727      6.888
REMARK  6 active torsions:
REMARK  status: ('A' for Active; 'I' for Inactive)
REMARK    1  A    between atoms: N_2  and  C_4 
REMARK    2  A    between atoms: N_9  and  C_10 
REMARK    3  A    between atoms: C_10  and  C_11 
REMARK       I    between atoms: C_11  and  N_13 
REMARK    4  A    between atoms: N_13  and  C_14 
REMARK    5  A    between atoms: C_14  and  C_15 
REMARK    6  A    between atoms: C_15  and  N_16 
ROOT
HETATM    1  C   UNL     1     -41.810 -52.821  13.348  1.00  0.00     0.235 C 
HETATM    2  O   UNL     1     -42.074 -51.991  14.217  1.00  0.00    -0.272 OA
HETATM    3  N   UNL     1     -42.128 -54.160  13.474  1.00  0.00    -0.358 N 
HETATM    4  H   UNL     1     -41.841 -54.799  12.739  1.00  0.00     0.162 HD
ENDROOT
BRANCH   1   5
HETATM    5  C   UNL     1     -41.057 -52.443  12.066  1.00  0.00     0.234 C 
BRANCH   5   6
HETATM    6  N   UNL     1     -40.431 -51.117  12.108  1.00  0.00    -0.314 N 
HETATM    7  C   UNL     1     -39.132 -51.024  12.609  1.00  0.00     0.247 A 
HETATM    8  C   UNL     1     -38.473 -49.684  12.484  1.00  0.00     0.077 A 
HETATM    9  O   UNL     1     -38.513 -51.960  13.107  1.00  0.00    -0.268 OA
HETATM   10  C   UNL     1     -39.123 -48.656  11.921  1.00  0.00     0.043 A 
HETATM   11  C   UNL     1     -40.473 -48.832  11.432  1.00  0.00     0.118 A 
HETATM   12  C   UNL     1     -41.088 -50.022  11.543  1.00  0.00     0.130 A 
BRANCH  11  13
HETATM   13  N   UNL     1     -41.171 -47.756  10.737  1.00  0.00    -0.114 N 
HETATM   14  O   UNL     1     -42.239 -48.027  10.169  1.00  0.00    -0.532 OA
HETATM   15  O   UNL     1     -40.630 -46.642  10.733  1.00  0.00    -0.532 OA
ENDBRANCH  11  13
ENDBRANCH   5   6
ENDBRANCH   1   5
BRANCH   3  16
HETATM   16  C   UNL     1     -42.879 -54.673  14.609  1.00  0.00     0.143 C 
BRANCH  16  17
HETATM   17  C   UNL     1     -44.337 -55.030  14.282  1.00  0.00     0.155 C 
BRANCH  17  18
HETATM   18  N   UNL     1     -45.272 -53.917  14.400  1.00  0.00    -0.277 N 
HETATM   19  C   UNL     1     -45.999 -53.704  15.549  1.00  0.00     0.236 C 
HETATM   20  O   UNL     1     -46.006 -54.453  16.521  1.00  0.00    -0.272 OA
HETATM   21  C   UNL     1     -46.809 -52.435  15.489  1.00  0.00     0.187 C 
HETATM   22  S   UNL     1     -46.529 -51.743  13.849  1.00  0.00    -0.059 SA
HETATM   23  C   UNL     1     -45.504 -53.069  13.355  1.00  0.00     0.289 C 
HETATM   24  O   UNL     1     -45.098 -53.185  12.210  1.00  0.00    -0.260 OA
ENDBRANCH  17  18
ENDBRANCH  16  17
ENDBRANCH   3  16
TORSDOF 6
ENDMDL
MODEL 6
REMARK VINA RESULT:      -5.9      4.299      7.485
REMARK  6 active torsions:
REMARK  status: ('A' for Active; 'I' for Inactive)
REMARK    1  A    between atoms: N_2  and  C_4 
REMARK    2  A    between atoms: N_9  and  C_10 
REMARK    3  A    between atoms: C_10  and  C_11 
REMARK       I    between atoms: C_11  and  N_13 
REMARK    4  A    between atoms: N_13  and  C_14 
REMARK    5  A    between atoms: C_14  and  C_15 
REMARK    6  A    between atoms: C_15  and  N_16 
ROOT
HETATM    1  C   UNL     1     -41.357 -50.646  12.219  1.00  0.00     0.235 C 
HETATM    2  O   UNL     1     -41.227 -50.238  13.372  1.00  0.00    -0.272 OA
HETATM    3  N   UNL     1     -42.029 -51.814  11.912  1.00  0.00    -0.358 N 
HETATM    4  H   UNL     1     -42.061 -52.117  10.944  1.00  0.00     0.162 HD
ENDROOT
BRANCH   1   5
HETATM    5  C   UNL     1     -40.736 -49.913  11.024  1.00  0.00     0.234 C 
BRANCH   5   6
HETATM    6  N   UNL     1     -41.075 -48.488  10.952  1.00  0.00    -0.314 N 
HETATM    7  C   UNL     1     -40.171 -47.574  11.494  1.00  0.00     0.247 A 
HETATM    8  C   UNL     1     -40.477 -46.127  11.256  1.00  0.00     0.077 A 
HETATM    9  O   UNL     1     -39.157 -47.885  12.113  1.00  0.00    -0.268 OA
HETATM   10  C   UNL     1     -41.565 -45.766  10.562  1.00  0.00     0.043 A 
HETATM   11  C   UNL     1     -42.458 -46.776  10.038  1.00  0.00     0.118 A 
HETATM   12  C   UNL     1     -42.209 -48.080  10.248  1.00  0.00     0.130 A 
BRANCH  11  13
HETATM   13  N   UNL     1     -43.601 -46.416   9.206  1.00  0.00    -0.114 N 
HETATM   14  O   UNL     1     -43.734 -45.227   8.881  1.00  0.00    -0.532 OA
HETATM   15  O   UNL     1     -44.388 -47.324   8.906  1.00  0.00    -0.532 OA
ENDBRANCH  11  13
ENDBRANCH   5   6
ENDBRANCH   1   5
BRANCH   3  16
HETATM   16  C   UNL     1     -42.711 -52.603  12.927  1.00  0.00     0.143 C 
BRANCH  16  17
HETATM   17  C   UNL     1     -44.042 -53.209  12.455  1.00  0.00     0.155 C 
BRANCH  17  18
HETATM   18  N   UNL     1     -45.075 -53.271  13.483  1.00  0.00    -0.277 N 
HETATM   19  C   UNL     1     -45.165 -54.333  14.352  1.00  0.00     0.236 C 
HETATM   20  O   UNL     1     -44.471 -55.343  14.297  1.00  0.00    -0.272 OA
HETATM   21  C   UNL     1     -46.230 -54.129  15.400  1.00  0.00     0.187 C 
HETATM   22  S   UNL     1     -47.013 -52.553  15.012  1.00  0.00    -0.059 SA
HETATM   23  C   UNL     1     -46.030 -52.299  13.590  1.00  0.00     0.289 C 
HETATM   24  O   UNL     1     -46.229 -51.376  12.818  1.00  0.00    -0.260 OA
ENDBRANCH  17  18
ENDBRANCH  16  17
ENDBRANCH   3  16
TORSDOF 6
ENDMDL
MODEL 7
REMARK VINA RESULT:      -5.7      2.930      7.530
REMARK  6 active torsions:
REMARK  status: ('A' for Active; 'I' for Inactive)
REMARK    1  A    between atoms: N_2  and  C_4 
REMARK    2  A    between atoms: N_9  and  C_10 
REMARK    3  A    between atoms: C_10  and  C_11 
REMARK       I    between atoms: C_11  and  N_13 
REMARK    4  A    between atoms: N_13  and  C_14 
REMARK    5  A    between atoms: C_14  and  C_15 
REMARK    6  A    between atoms: C_15  and  N_16 
ROOT
HETATM    1  C   UNL     1     -42.444 -51.372  13.096  1.00  0.00     0.235 C 
HETATM    2  O   UNL     1     -42.229 -51.529  14.297  1.00  0.00    -0.272 OA
HETATM    3  N   UNL     1     -42.934 -52.381  12.288  1.00  0.00    -0.358 N 
HETATM    4  H   UNL     1     -43.046 -52.197  11.296  1.00  0.00     0.162 HD
ENDROOT
BRANCH   1   5
HETATM    5  C   UNL     1     -42.136 -50.050  12.382  1.00  0.00     0.234 C 
BRANCH   5   6
HETATM    6  N   UNL     1     -40.770 -49.560  12.593  1.00  0.00    -0.314 N 
HETATM    7  C   UNL     1     -40.575 -48.563  13.550  1.00  0.00     0.247 A 
HETATM    8  C   UNL     1     -39.150 -48.207  13.847  1.00  0.00     0.077 A 
HETATM    9  O   UNL     1     -41.481 -48.000  14.159  1.00  0.00    -0.268 OA
HETATM   10  C   UNL     1     -38.147 -48.827  13.211  1.00  0.00     0.043 A 
HETATM   11  C   UNL     1     -38.433 -49.845  12.226  1.00  0.00     0.118 A 
HETATM   12  C   UNL     1     -39.703 -50.174  11.935  1.00  0.00     0.130 A 
BRANCH  11  13
HETATM   13  N   UNL     1     -37.360 -50.597  11.582  1.00  0.00    -0.114 N 
HETATM   14  O   UNL     1     -36.902 -51.583  12.176  1.00  0.00    -0.532 OA
HETATM   15  O   UNL     1     -36.954 -50.176  10.491  1.00  0.00    -0.532 OA
ENDBRANCH  11  13
ENDBRANCH   5   6
ENDBRANCH   1   5
BRANCH   3  16
HETATM   16  C   UNL     1     -43.316 -53.680  12.819  1.00  0.00     0.143 C 
BRANCH  16  17
HETATM   17  C   UNL     1     -44.835 -53.885  12.932  1.00  0.00     0.155 C 
BRANCH  17  18
HETATM   18  N   UNL     1     -45.465 -53.144  14.019  1.00  0.00    -0.277 N 
HETATM   19  C   UNL     1     -46.025 -51.904  13.817  1.00  0.00     0.236 C 
HETATM   20  O   UNL     1     -45.975 -51.277  12.764  1.00  0.00    -0.272 OA
HETATM   21  C   UNL     1     -46.718 -51.380  15.048  1.00  0.00     0.187 C 
HETATM   22  S   UNL     1     -46.448 -52.613  16.334  1.00  0.00    -0.059 SA
HETATM   23  C   UNL     1     -45.477 -53.629  15.297  1.00  0.00     0.289 C 
HETATM   24  O   UNL     1     -44.890 -54.614  15.715  1.00  0.00    -0.260 OA
ENDBRANCH  17  18
ENDBRANCH  16  17
ENDBRANCH   3  16
TORSDOF 6
ENDMDL
MODEL 8
REMARK VINA RESULT:      -5.6      3.367      5.638
REMARK  6 active torsions:
REMARK  status: ('A' for Active; 'I' for Inactive)
REMARK    1  A    between atoms: N_2  and  C_4 
REMARK    2  A    between atoms: N_9  and  C_10 
REMARK    3  A    between atoms: C_10  and  C_11 
REMARK       I    between atoms: C_11  and  N_13 
REMARK    4  A    between atoms: N_13  and  C_14 
REMARK    5  A    between atoms: C_14  and  C_15 
REMARK    6  A    between atoms: C_15  and  N_16 
ROOT
HETATM    1  C   UNL     1     -41.351 -50.927  12.214  1.00  0.00     0.235 C 
HETATM    2  O   UNL     1     -42.405 -50.296  12.294  1.00  0.00    -0.272 OA
HETATM    3  N   UNL     1     -40.117 -50.350  12.448  1.00  0.00    -0.358 N 
HETATM    4  H   UNL     1     -39.285 -50.916  12.320  1.00  0.00     0.162 HD
ENDROOT
BRANCH   1   5
HETATM    5  C   UNL     1     -41.318 -52.401  11.794  1.00  0.00     0.234 C 
BRANCH   5   6
HETATM    6  N   UNL     1     -41.649 -53.339  12.871  1.00  0.00    -0.314 N 
HETATM    7  C   UNL     1     -40.633 -53.700  13.757  1.00  0.00     0.247 A 
HETATM    8  C   UNL     1     -41.050 -54.529  14.934  1.00  0.00     0.077 A 
HETATM    9  O   UNL     1     -39.458 -53.363  13.638  1.00  0.00    -0.268 OA
HETATM   10  C   UNL     1     -42.332 -54.887  15.094  1.00  0.00     0.043 A 
HETATM   11  C   UNL     1     -43.325 -54.478  14.127  1.00  0.00     0.118 A 
HETATM   12  C   UNL     1     -42.973 -53.743  13.058  1.00  0.00     0.130 A 
BRANCH  11  13
HETATM   13  N   UNL     1     -44.739 -54.778  14.322  1.00  0.00    -0.114 N 
HETATM   14  O   UNL     1     -45.429 -55.011  13.319  1.00  0.00    -0.532 OA
HETATM   15  O   UNL     1     -45.167 -54.748  15.483  1.00  0.00    -0.532 OA
ENDBRANCH  11  13
ENDBRANCH   5   6
ENDBRANCH   1   5
BRANCH   3  16
HETATM   16  C   UNL     1     -39.979 -48.973  12.895  1.00  0.00     0.143 C 
BRANCH  16  17
HETATM   17  C   UNL     1     -39.609 -47.987  11.776  1.00  0.00     0.155 C 
BRANCH  17  18
HETATM   18  N   UNL     1     -40.611 -46.958  11.522  1.00  0.00    -0.277 N 
HETATM   19  C   UNL     1     -41.660 -47.171  10.656  1.00  0.00     0.236 C 
HETATM   20  O   UNL     1     -41.804 -48.173   9.965  1.00  0.00    -0.272 OA
HETATM   21  C   UNL     1     -42.631 -46.018  10.639  1.00  0.00     0.187 C 
HETATM   22  S   UNL     1     -41.946 -44.773  11.746  1.00  0.00    -0.059 SA
HETATM   23  C   UNL     1     -40.520 -45.721  12.094  1.00  0.00     0.289 C 
HETATM   24  O   UNL     1     -39.588 -45.279  12.745  1.00  0.00    -0.260 OA
ENDBRANCH  17  18
ENDBRANCH  16  17
ENDBRANCH   3  16
TORSDOF 6
ENDMDL
MODEL 9
REMARK VINA RESULT:      -5.4      2.376      3.685
REMARK  6 active torsions:
REMARK  status: ('A' for Active; 'I' for Inactive)
REMARK    1  A    between atoms: N_2  and  C_4 
REMARK    2  A    between atoms: N_9  and  C_10 
REMARK    3  A    between atoms: C_10  and  C_11 
REMARK       I    between atoms: C_11  and  N_13 
REMARK    4  A    between atoms: N_13  and  C_14 
REMARK    5  A    between atoms: C_14  and  C_15 
REMARK    6  A    between atoms: C_15  and  N_16 
ROOT
HETATM    1  C   UNL     1     -43.575 -50.282  13.703  1.00  0.00     0.235 C 
HETATM    2  O   UNL     1     -42.988 -49.709  14.620  1.00  0.00    -0.272 OA
HETATM    3  N   UNL     1     -43.096 -50.300  12.407  1.00  0.00    -0.358 N 
HETATM    4  H   UNL     1     -43.653 -50.753  11.690  1.00  0.00     0.162 HD
ENDROOT
BRANCH   1   5
HETATM    5  C   UNL     1     -44.922 -50.983  13.916  1.00  0.00     0.234 C 
BRANCH   5   6
HETATM    6  N   UNL     1     -44.816 -52.427  14.151  1.00  0.00    -0.314 N 
HETATM    7  C   UNL     1     -45.280 -53.286  13.154  1.00  0.00     0.247 A 
HETATM    8  C   UNL     1     -45.006 -54.744  13.363  1.00  0.00     0.077 A 
HETATM    9  O   UNL     1     -45.859 -52.918  12.136  1.00  0.00    -0.268 OA
HETATM   10  C   UNL     1     -44.354 -55.164  14.456  1.00  0.00     0.043 A 
HETATM   11  C   UNL     1     -43.911 -54.210  15.448  1.00  0.00     0.118 A 
HETATM   12  C   UNL     1     -44.155 -52.897  15.287  1.00  0.00     0.130 A 
BRANCH  11  13
HETATM   13  N   UNL     1     -43.124 -54.629  16.603  1.00  0.00    -0.114 N 
HETATM   14  O   UNL     1     -42.947 -55.843  16.777  1.00  0.00    -0.532 OA
HETATM   15  O   UNL     1     -42.710 -53.738  17.356  1.00  0.00    -0.532 OA
ENDBRANCH  11  13
ENDBRANCH   5   6
ENDBRANCH   1   5
BRANCH   3  16
HETATM   16  C   UNL     1     -41.812 -49.717  12.049  1.00  0.00     0.143 C 
BRANCH  16  17
HETATM   17  C   UNL     1     -40.732 -50.753  11.699  1.00  0.00     0.155 C 
BRANCH  17  18
HETATM   18  N   UNL     1     -40.244 -51.524  12.837  1.00  0.00    -0.277 N 
HETATM   19  C   UNL     1     -39.115 -51.150  13.529  1.00  0.00     0.236 C 
HETATM   20  O   UNL     1     -38.378 -50.220  13.217  1.00  0.00    -0.272 OA
HETATM   21  C   UNL     1     -38.866 -52.022  14.733  1.00  0.00     0.187 C 
HETATM   22  S   UNL     1     -40.160 -53.277  14.715  1.00  0.00    -0.059 SA
HETATM   23  C   UNL     1     -40.858 -52.679  13.230  1.00  0.00     0.289 C 
HETATM   24  O   UNL     1     -41.757 -53.267  12.650  1.00  0.00    -0.260 OA
ENDBRANCH  17  18
ENDBRANCH  16  17
ENDBRANCH   3  16
TORSDOF 6
ENDMDL
