MODEL 1
REMARK VINA RESULT:      -5.9      0.000      0.000
REMARK  4 active torsions:
REMARK  status: ('A' for Active; 'I' for Inactive)
REMARK    1  A    between atoms: C_2  and  C_3 
REMARK       I    between atoms: N_6  and  C_10 
REMARK       I    between atoms: C_10  and  N_12 
REMARK    2  A    between atoms: N_12  and  C_13 
REMARK    3  A    between atoms: C_13  and  C_14 
REMARK    4  A    between atoms: C_14  and  C_15 
ROOT
HETATM    1  C   UNL     1     -45.862 -52.566  14.013  1.00  0.00     0.073 C 
HETATM    2  C   UNL     1     -46.884 -51.649  14.702  1.00  0.00     0.047 C 
HETATM    3  C   UNL     1     -44.465 -52.338  14.663  1.00  0.00     0.165 C 
HETATM    4  N   UNL     1     -43.537 -53.403  14.268  1.00  0.00    -0.329 N 
HETATM    5  C   UNL     1     -44.039 -54.726  14.626  1.00  0.00     0.153 C 
HETATM    6  C   UNL     1     -45.394 -54.948  13.946  1.00  0.00     0.189 C 
HETATM    7  O   UNL     1     -46.333 -53.911  14.274  1.00  0.00    -0.377 OA
HETATM    8  C   UNL     1     -42.488 -53.325  13.378  1.00  0.00     0.318 C 
HETATM    9  O   UNL     1     -41.816 -54.306  13.065  1.00  0.00    -0.247 OA
HETATM   10  N   UNL     1     -42.229 -52.093  12.845  1.00  0.00    -0.343 N 
HETATM   11  H   UNL     1     -42.933 -51.375  12.872  1.00  0.00     0.164 HD
ENDROOT
BRANCH  10  12
HETATM   12  C   UNL     1     -41.167 -51.939  11.864  1.00  0.00     0.130 C 
BRANCH  12  13
HETATM   13  C   UNL     1     -40.147 -50.857  12.218  1.00  0.00     0.077 C 
BRANCH  13  14
HETATM   14  C   UNL     1     -40.515 -49.505  11.702  1.00  0.00     0.017 A 
HETATM   15  C   UNL     1     -39.910 -48.305  12.031  1.00  0.00     0.076 A 
HETATM   16  S   UNL     1     -40.655 -47.016  11.182  1.00  0.00    -0.095 SA
HETATM   17  C   UNL     1     -41.718 -48.143  10.449  1.00  0.00     0.138 A 
HETATM   18  N   UNL     1     -41.559 -49.403  10.794  1.00  0.00    -0.363 N 
ATOM     19  HN  UNL     1     -42.116 -50.184  10.446  1.00  0.00     0.165 HD
ENDBRANCH  13  14
ENDBRANCH  12  13
ENDBRANCH  10  12
BRANCH   1  20
HETATM   20  C   UNL     1     -45.794 -52.261  12.497  1.00  0.00     0.035 C 
HETATM   21  C   UNL     1     -47.045 -51.632  11.901  1.00  0.00     0.008 C 
ENDBRANCH   1  20
TORSDOF 4
ENDMDL
MODEL 2
REMARK VINA RESULT:      -5.5      1.601      2.715
REMARK  4 active torsions:
REMARK  status: ('A' for Active; 'I' for Inactive)
REMARK    1  A    between atoms: C_2  and  C_3 
REMARK       I    between atoms: N_6  and  C_10 
REMARK       I    between atoms: C_10  and  N_12 
REMARK    2  A    between atoms: N_12  and  C_13 
REMARK    3  A    between atoms: C_13  and  C_14 
REMARK    4  A    between atoms: C_14  and  C_15 
ROOT
HETATM    1  C   UNL     1     -45.266 -54.055  14.135  1.00  0.00     0.073 C 
HETATM    2  C   UNL     1     -45.649 -55.507  13.815  1.00  0.00     0.047 C 
HETATM    3  C   UNL     1     -44.799 -53.359  12.821  1.00  0.00     0.165 C 
HETATM    4  N   UNL     1     -44.732 -51.906  13.009  1.00  0.00    -0.329 N 
HETATM    5  C   UNL     1     -46.012 -51.349  13.437  1.00  0.00     0.153 C 
HETATM    6  C   UNL     1     -46.434 -52.016  14.749  1.00  0.00     0.189 C 
HETATM    7  O   UNL     1     -46.484 -53.448  14.630  1.00  0.00    -0.377 OA
HETATM    8  C   UNL     1     -43.607 -51.120  13.135  1.00  0.00     0.318 C 
HETATM    9  O   UNL     1     -43.669 -49.913  13.362  1.00  0.00    -0.247 OA
HETATM   10  N   UNL     1     -42.402 -51.751  13.002  1.00  0.00    -0.343 N 
HETATM   11  H   UNL     1     -42.344 -52.750  13.104  1.00  0.00     0.164 HD
ENDROOT
BRANCH  10  12
HETATM   12  C   UNL     1     -41.169 -50.998  13.167  1.00  0.00     0.130 C 
BRANCH  12  13
HETATM   13  C   UNL     1     -40.507 -50.595  11.850  1.00  0.00     0.077 C 
BRANCH  13  14
HETATM   14  C   UNL     1     -40.821 -49.196  11.434  1.00  0.00     0.017 A 
HETATM   15  C   UNL     1     -40.035 -48.077  11.647  1.00  0.00     0.076 A 
HETATM   16  S   UNL     1     -40.790 -46.690  10.980  1.00  0.00    -0.095 SA
HETATM   17  C   UNL     1     -42.094 -47.675  10.465  1.00  0.00     0.138 A 
HETATM   18  N   UNL     1     -42.007 -48.955  10.757  1.00  0.00    -0.363 N 
ATOM     19  HN  UNL     1     -42.705 -49.661  10.521  1.00  0.00     0.165 HD
ENDBRANCH  13  14
ENDBRANCH  12  13
ENDBRANCH  10  12
BRANCH   1  20
HETATM   20  C   UNL     1     -44.129 -54.011  15.186  1.00  0.00     0.035 C 
HETATM   21  C   UNL     1     -42.926 -54.892  14.882  1.00  0.00     0.008 C 
ENDBRANCH   1  20
TORSDOF 4
ENDMDL
MODEL 3
REMARK VINA RESULT:      -5.4      4.026      6.981
REMARK  4 active torsions:
REMARK  status: ('A' for Active; 'I' for Inactive)
REMARK    1  A    between atoms: C_2  and  C_3 
REMARK       I    between atoms: N_6  and  C_10 
REMARK       I    between atoms: C_10  and  N_12 
REMARK    2  A    between atoms: N_12  and  C_13 
REMARK    3  A    between atoms: C_13  and  C_14 
REMARK    4  A    between atoms: C_14  and  C_15 
ROOT
HETATM    1  C   UNL     1     -43.369 -47.277   9.165  1.00  0.00     0.073 C 
HETATM    2  C   UNL     1     -43.456 -47.710   7.695  1.00  0.00     0.047 C 
HETATM    3  C   UNL     1     -42.210 -48.060   9.851  1.00  0.00     0.165 C 
HETATM    4  N   UNL     1     -41.882 -47.457  11.147  1.00  0.00    -0.329 N 
HETATM    5  C   UNL     1     -41.521 -46.048  11.020  1.00  0.00     0.153 C 
HETATM    6  C   UNL     1     -42.687 -45.288  10.381  1.00  0.00     0.189 C 
HETATM    7  O   UNL     1     -43.071 -45.860   9.120  1.00  0.00    -0.377 OA
HETATM    8  C   UNL     1     -42.172 -47.942  12.404  1.00  0.00     0.318 C 
HETATM    9  O   UNL     1     -41.912 -47.314  13.428  1.00  0.00    -0.247 OA
HETATM   10  N   UNL     1     -42.778 -49.166  12.463  1.00  0.00    -0.343 N 
HETATM   11  H   UNL     1     -43.240 -49.538  11.650  1.00  0.00     0.164 HD
ENDROOT
BRANCH  10  12
HETATM   12  C   UNL     1     -43.156 -49.725  13.750  1.00  0.00     0.130 C 
BRANCH  12  13
HETATM   13  C   UNL     1     -44.449 -50.538  13.719  1.00  0.00     0.077 C 
BRANCH  13  14
HETATM   14  C   UNL     1     -44.221 -52.013  13.677  1.00  0.00     0.017 A 
HETATM   15  C   UNL     1     -43.954 -52.836  14.757  1.00  0.00     0.076 A 
HETATM   16  S   UNL     1     -43.781 -54.459  14.232  1.00  0.00    -0.095 SA
HETATM   17  C   UNL     1     -44.071 -53.946  12.623  1.00  0.00     0.138 A 
HETATM   18  N   UNL     1     -44.282 -52.659  12.451  1.00  0.00    -0.363 N 
ATOM     19  HN  UNL     1     -44.463 -52.206  11.554  1.00  0.00     0.165 HD
ENDBRANCH  13  14
ENDBRANCH  12  13
ENDBRANCH  10  12
BRANCH   1  20
HETATM   20  C   UNL     1     -44.703 -47.564   9.897  1.00  0.00     0.035 C 
HETATM   21  C   UNL     1     -45.962 -47.176   9.134  1.00  0.00     0.008 C 
ENDBRANCH   1  20
TORSDOF 4
ENDMDL
MODEL 4
REMARK VINA RESULT:      -5.2      3.013      5.992
REMARK  4 active torsions:
REMARK  status: ('A' for Active; 'I' for Inactive)
REMARK    1  A    between atoms: C_2  and  C_3 
REMARK       I    between atoms: N_6  and  C_10 
REMARK       I    between atoms: C_10  and  N_12 
REMARK    2  A    between atoms: N_12  and  C_13 
REMARK    3  A    between atoms: C_13  and  C_14 
REMARK    4  A    between atoms: C_14  and  C_15 
ROOT
HETATM    1  C   UNL     1     -40.761 -51.076  12.683  1.00  0.00     0.073 C 
HETATM    2  C   UNL     1     -39.908 -50.156  11.797  1.00  0.00     0.047 C 
HETATM    3  C   UNL     1     -41.480 -52.119  11.776  1.00  0.00     0.165 C 
HETATM    4  N   UNL     1     -42.041 -53.203  12.589  1.00  0.00    -0.329 N 
HETATM    5  C   UNL     1     -41.022 -53.867  13.396  1.00  0.00     0.153 C 
HETATM    6  C   UNL     1     -40.355 -52.834  14.308  1.00  0.00     0.189 C 
HETATM    7  O   UNL     1     -39.815 -51.730  13.563  1.00  0.00    -0.377 OA
HETATM    8  C   UNL     1     -43.365 -53.430  12.899  1.00  0.00     0.318 C 
HETATM    9  O   UNL     1     -43.718 -54.334  13.654  1.00  0.00    -0.247 OA
HETATM   10  N   UNL     1     -44.280 -52.590  12.329  1.00  0.00    -0.343 N 
HETATM   11  H   UNL     1     -43.984 -51.702  11.959  1.00  0.00     0.164 HD
ENDROOT
BRANCH  10  12
HETATM   12  C   UNL     1     -45.691 -52.736  12.644  1.00  0.00     0.130 C 
BRANCH  12  13
HETATM   13  C   UNL     1     -46.251 -51.619  13.523  1.00  0.00     0.077 C 
BRANCH  13  14
HETATM   14  C   UNL     1     -46.349 -51.993  14.965  1.00  0.00     0.017 A 
HETATM   15  C   UNL     1     -46.870 -51.215  15.984  1.00  0.00     0.076 A 
HETATM   16  S   UNL     1     -46.789 -52.063  17.472  1.00  0.00    -0.095 SA
HETATM   17  C   UNL     1     -46.073 -53.387  16.654  1.00  0.00     0.138 A 
HETATM   18  N   UNL     1     -45.888 -53.241  15.359  1.00  0.00    -0.363 N 
ATOM     19  HN  UNL     1     -45.471 -53.937  14.742  1.00  0.00     0.165 HD
ENDBRANCH  13  14
ENDBRANCH  12  13
ENDBRANCH  10  12
BRANCH   1  20
HETATM   20  C   UNL     1     -41.810 -50.253  13.470  1.00  0.00     0.035 C 
HETATM   21  C   UNL     1     -42.732 -49.389  12.622  1.00  0.00     0.008 C 
ENDBRANCH   1  20
TORSDOF 4
ENDMDL
MODEL 5
REMARK VINA RESULT:      -5.1      2.950      6.372
REMARK  4 active torsions:
REMARK  status: ('A' for Active; 'I' for Inactive)
REMARK    1  A    between atoms: C_2  and  C_3 
REMARK       I    between atoms: N_6  and  C_10 
REMARK       I    between atoms: C_10  and  N_12 
REMARK    2  A    between atoms: N_12  and  C_13 
REMARK    3  A    between atoms: C_13  and  C_14 
REMARK    4  A    between atoms: C_14  and  C_15 
ROOT
HETATM    1  C   UNL     1     -40.612 -48.187  11.924  1.00  0.00     0.073 C 
HETATM    2  C   UNL     1     -41.031 -46.976  11.077  1.00  0.00     0.047 C 
HETATM    3  C   UNL     1     -40.661 -49.464  11.033  1.00  0.00     0.165 C 
HETATM    4  N   UNL     1     -39.972 -50.576  11.694  1.00  0.00    -0.329 N 
HETATM    5  C   UNL     1     -38.585 -50.248  12.013  1.00  0.00     0.153 C 
HETATM    6  C   UNL     1     -38.559 -49.015  12.922  1.00  0.00     0.189 C 
HETATM    7  O   UNL     1     -39.252 -47.902  12.334  1.00  0.00    -0.377 OA
HETATM    8  C   UNL     1     -40.531 -51.683  12.294  1.00  0.00     0.318 C 
HETATM    9  O   UNL     1     -39.857 -52.523  12.886  1.00  0.00    -0.247 OA
HETATM   10  N   UNL     1     -41.891 -51.803  12.208  1.00  0.00    -0.343 N 
HETATM   11  H   UNL     1     -42.454 -50.999  11.987  1.00  0.00     0.164 HD
ENDROOT
BRANCH  10  12
HETATM   12  C   UNL     1     -42.560 -52.920  12.854  1.00  0.00     0.130 C 
BRANCH  12  13
HETATM   13  C   UNL     1     -43.963 -53.198  12.316  1.00  0.00     0.077 C 
BRANCH  13  14
HETATM   14  C   UNL     1     -45.049 -52.786  13.253  1.00  0.00     0.017 A 
HETATM   15  C   UNL     1     -45.229 -51.529  13.804  1.00  0.00     0.076 A 
HETATM   16  S   UNL     1     -46.619 -51.518  14.807  1.00  0.00    -0.095 SA
HETATM   17  C   UNL     1     -46.871 -53.172  14.437  1.00  0.00     0.138 A 
HETATM   18  N   UNL     1     -45.996 -53.728  13.627  1.00  0.00    -0.363 N 
ATOM     19  HN  UNL     1     -46.013 -54.701  13.320  1.00  0.00     0.165 HD
ENDBRANCH  13  14
ENDBRANCH  12  13
ENDBRANCH  10  12
BRANCH   1  20
HETATM   20  C   UNL     1     -41.559 -48.356  13.138  1.00  0.00     0.035 C 
HETATM   21  C   UNL     1     -43.036 -48.497  12.798  1.00  0.00     0.008 C 
ENDBRANCH   1  20
TORSDOF 4
ENDMDL
MODEL 6
REMARK VINA RESULT:      -5.1      5.669      8.847
REMARK  4 active torsions:
REMARK  status: ('A' for Active; 'I' for Inactive)
REMARK    1  A    between atoms: C_2  and  C_3 
REMARK       I    between atoms: N_6  and  C_10 
REMARK       I    between atoms: C_10  and  N_12 
REMARK    2  A    between atoms: N_12  and  C_13 
REMARK    3  A    between atoms: C_13  and  C_14 
REMARK    4  A    between atoms: C_14  and  C_15 
ROOT
HETATM    1  C   UNL     1     -40.293 -43.966  13.905  1.00  0.00     0.073 C 
HETATM    2  C   UNL     1     -39.988 -44.420  15.340  1.00  0.00     0.047 C 
HETATM    3  C   UNL     1     -41.830 -44.048  13.669  1.00  0.00     0.165 C 
HETATM    4  N   UNL     1     -42.199 -43.331  12.444  1.00  0.00    -0.329 N 
HETATM    5  C   UNL     1     -41.777 -41.934  12.480  1.00  0.00     0.153 C 
HETATM    6  C   UNL     1     -40.259 -41.874  12.672  1.00  0.00     0.189 C 
HETATM    7  O   UNL     1     -39.839 -42.592  13.844  1.00  0.00    -0.377 OA
HETATM    8  C   UNL     1     -42.573 -43.865  11.230  1.00  0.00     0.318 C 
HETATM    9  O   UNL     1     -42.792 -43.167  10.243  1.00  0.00    -0.247 OA
HETATM   10  N   UNL     1     -42.685 -45.227  11.170  1.00  0.00    -0.343 N 
HETATM   11  H   UNL     1     -42.239 -45.799  11.868  1.00  0.00     0.164 HD
ENDROOT
BRANCH  10  12
HETATM   12  C   UNL     1     -43.032 -45.869   9.913  1.00  0.00     0.130 C 
BRANCH  12  13
HETATM   13  C   UNL     1     -43.579 -47.286  10.070  1.00  0.00     0.077 C 
BRANCH  13  14
HETATM   14  C   UNL     1     -42.668 -48.192  10.831  1.00  0.00     0.017 A 
HETATM   15  C   UNL     1     -42.894 -48.720  12.090  1.00  0.00     0.076 A 
HETATM   16  S   UNL     1     -41.581 -49.720  12.554  1.00  0.00    -0.095 SA
HETATM   17  C   UNL     1     -40.819 -49.376  11.059  1.00  0.00     0.138 A 
HETATM   18  N   UNL     1     -41.469 -48.571  10.245  1.00  0.00    -0.363 N 
ATOM     19  HN  UNL     1     -41.141 -48.272   9.326  1.00  0.00     0.165 HD
ENDBRANCH  13  14
ENDBRANCH  12  13
ENDBRANCH  10  12
BRANCH   1  20
HETATM   20  C   UNL     1     -39.555 -44.864  12.882  1.00  0.00     0.035 C 
HETATM   21  C   UNL     1     -39.795 -46.360  13.035  1.00  0.00     0.008 C 
ENDBRANCH   1  20
TORSDOF 4
ENDMDL
MODEL 7
REMARK VINA RESULT:      -5.0      2.566      3.696
REMARK  4 active torsions:
REMARK  status: ('A' for Active; 'I' for Inactive)
REMARK    1  A    between atoms: C_2  and  C_3 
REMARK       I    between atoms: N_6  and  C_10 
REMARK       I    between atoms: C_10  and  N_12 
REMARK    2  A    between atoms: N_12  and  C_13 
REMARK    3  A    between atoms: C_13  and  C_14 
REMARK    4  A    between atoms: C_14  and  C_15 
ROOT
HETATM    1  C   UNL     1     -46.448 -51.733  15.639  1.00  0.00     0.073 C 
HETATM    2  C   UNL     1     -47.380 -51.405  16.815  1.00  0.00     0.047 C 
HETATM    3  C   UNL     1     -46.425 -53.277  15.434  1.00  0.00     0.165 C 
HETATM    4  N   UNL     1     -45.815 -53.612  14.143  1.00  0.00    -0.329 N 
HETATM    5  C   UNL     1     -46.509 -52.974  13.028  1.00  0.00     0.153 C 
HETATM    6  C   UNL     1     -46.487 -51.455  13.227  1.00  0.00     0.189 C 
HETATM    7  O   UNL     1     -47.044 -51.074  14.496  1.00  0.00    -0.377 OA
HETATM    8  C   UNL     1     -44.568 -54.148  13.909  1.00  0.00     0.318 C 
HETATM    9  O   UNL     1     -44.127 -54.322  12.774  1.00  0.00    -0.247 OA
HETATM   10  N   UNL     1     -43.827 -54.477  15.010  1.00  0.00    -0.343 N 
HETATM   11  H   UNL     1     -44.056 -54.080  15.906  1.00  0.00     0.164 HD
ENDROOT
BRANCH  10  12
HETATM   12  C   UNL     1     -42.483 -55.006  14.847  1.00  0.00     0.130 C 
BRANCH  12  13
HETATM   13  C   UNL     1     -41.377 -53.995  15.143  1.00  0.00     0.077 C 
BRANCH  13  14
HETATM   14  C   UNL     1     -41.084 -53.085  13.996  1.00  0.00     0.017 A 
HETATM   15  C   UNL     1     -40.618 -51.784  14.074  1.00  0.00     0.076 A 
HETATM   16  S   UNL     1     -40.412 -51.136  12.500  1.00  0.00    -0.095 SA
HETATM   17  C   UNL     1     -40.955 -52.622  11.842  1.00  0.00     0.138 A 
HETATM   18  N   UNL     1     -41.280 -53.558  12.706  1.00  0.00    -0.363 N 
ATOM     19  HN  UNL     1     -41.623 -54.489  12.466  1.00  0.00     0.165 HD
ENDBRANCH  13  14
ENDBRANCH  12  13
ENDBRANCH  10  12
BRANCH   1  20
HETATM   20  C   UNL     1     -45.015 -51.218  15.921  1.00  0.00     0.035 C 
HETATM   21  C   UNL     1     -44.923 -50.037  16.878  1.00  0.00     0.008 C 
ENDBRANCH   1  20
TORSDOF 4
ENDMDL
MODEL 8
REMARK VINA RESULT:      -5.0      2.229      2.762
REMARK  4 active torsions:
REMARK  status: ('A' for Active; 'I' for Inactive)
REMARK    1  A    between atoms: C_2  and  C_3 
REMARK       I    between atoms: N_6  and  C_10 
REMARK       I    between atoms: C_10  and  N_12 
REMARK    2  A    between atoms: N_12  and  C_13 
REMARK    3  A    between atoms: C_13  and  C_14 
REMARK    4  A    between atoms: C_14  and  C_15 
ROOT
HETATM    1  C   UNL     1     -45.216 -52.294  16.165  1.00  0.00     0.073 C 
HETATM    2  C   UNL     1     -45.078 -52.030  17.671  1.00  0.00     0.047 C 
HETATM    3  C   UNL     1     -44.135 -53.331  15.736  1.00  0.00     0.165 C 
HETATM    4  N   UNL     1     -44.428 -53.851  14.397  1.00  0.00    -0.329 N 
HETATM    5  C   UNL     1     -45.753 -54.459  14.324  1.00  0.00     0.153 C 
HETATM    6  C   UNL     1     -46.805 -53.415  14.709  1.00  0.00     0.189 C 
HETATM    7  O   UNL     1     -46.546 -52.847  16.003  1.00  0.00    -0.377 OA
HETATM    8  C   UNL     1     -43.780 -53.562  13.216  1.00  0.00     0.318 C 
HETATM    9  O   UNL     1     -44.158 -54.002  12.132  1.00  0.00    -0.247 OA
HETATM   10  N   UNL     1     -42.688 -52.744  13.301  1.00  0.00    -0.343 N 
HETATM   11  H   UNL     1     -42.554 -52.167  14.115  1.00  0.00     0.164 HD
ENDROOT
BRANCH  10  12
HETATM   12  C   UNL     1     -41.978 -52.356  12.094  1.00  0.00     0.130 C 
BRANCH  12  13
HETATM   13  C   UNL     1     -41.510 -50.902  12.089  1.00  0.00     0.077 C 
BRANCH  13  14
HETATM   14  C   UNL     1     -40.027 -50.756  12.176  1.00  0.00     0.017 A 
HETATM   15  C   UNL     1     -39.204 -51.275  13.160  1.00  0.00     0.076 A 
HETATM   16  S   UNL     1     -37.570 -50.868  12.837  1.00  0.00    -0.095 SA
HETATM   17  C   UNL     1     -38.078 -50.039  11.426  1.00  0.00     0.138 A 
HETATM   18  N   UNL     1     -39.371 -50.041  11.183  1.00  0.00    -0.363 N 
ATOM     19  HN  UNL     1     -39.822 -49.589  10.388  1.00  0.00     0.165 HD
ENDBRANCH  13  14
ENDBRANCH  12  13
ENDBRANCH  10  12
BRANCH   1  20
HETATM   20  C   UNL     1     -45.034 -50.982  15.363  1.00  0.00     0.035 C 
HETATM   21  C   UNL     1     -43.769 -50.197  15.676  1.00  0.00     0.008 C 
ENDBRANCH   1  20
TORSDOF 4
ENDMDL
MODEL 9
REMARK VINA RESULT:      -5.0      2.652      3.831
REMARK  4 active torsions:
REMARK  status: ('A' for Active; 'I' for Inactive)
REMARK    1  A    between atoms: C_2  and  C_3 
REMARK       I    between atoms: N_6  and  C_10 
REMARK       I    between atoms: C_10  and  N_12 
REMARK    2  A    between atoms: N_12  and  C_13 
REMARK    3  A    between atoms: C_13  and  C_14 
REMARK    4  A    between atoms: C_14  and  C_15 
ROOT
HETATM    1  C   UNL     1     -41.803 -53.519  14.382  1.00  0.00     0.073 C 
HETATM    2  C   UNL     1     -42.950 -53.763  15.373  1.00  0.00     0.047 C 
HETATM    3  C   UNL     1     -41.168 -52.128  14.681  1.00  0.00     0.165 C 
HETATM    4  N   UNL     1     -39.884 -51.992  13.986  1.00  0.00    -0.329 N 
HETATM    5  C   UNL     1     -38.949 -53.052  14.350  1.00  0.00     0.153 C 
HETATM    6  C   UNL     1     -39.573 -54.408  14.012  1.00  0.00     0.189 C 
HETATM    7  O   UNL     1     -40.853 -54.581  14.643  1.00  0.00    -0.377 OA
HETATM    8  C   UNL     1     -39.601 -51.230  12.873  1.00  0.00     0.318 C 
HETATM    9  O   UNL     1     -38.500 -51.246  12.327  1.00  0.00    -0.247 OA
HETATM   10  N   UNL     1     -40.615 -50.450  12.392  1.00  0.00    -0.343 N 
HETATM   11  H   UNL     1     -41.568 -50.648  12.650  1.00  0.00     0.164 HD
ENDROOT
BRANCH  10  12
HETATM   12  C   UNL     1     -40.408 -49.652  11.195  1.00  0.00     0.130 C 
BRANCH  12  13
HETATM   13  C   UNL     1     -41.579 -48.731  10.852  1.00  0.00     0.077 C 
BRANCH  13  14
HETATM   14  C   UNL     1     -41.274 -47.284  11.059  1.00  0.00     0.017 A 
HETATM   15  C   UNL     1     -42.055 -46.367  11.740  1.00  0.00     0.076 A 
HETATM   16  S   UNL     1     -41.298 -44.829  11.735  1.00  0.00    -0.095 SA
HETATM   17  C   UNL     1     -40.002 -45.495  10.834  1.00  0.00     0.138 A 
HETATM   18  N   UNL     1     -40.095 -46.773  10.535  1.00  0.00    -0.363 N 
ATOM     19  HN  UNL     1     -39.407 -47.305  10.003  1.00  0.00     0.165 HD
ENDBRANCH  13  14
ENDBRANCH  12  13
ENDBRANCH  10  12
BRANCH   1  20
HETATM   20  C   UNL     1     -42.326 -53.556  12.925  1.00  0.00     0.035 C 
HETATM   21  C   UNL     1     -43.542 -52.684  12.646  1.00  0.00     0.008 C 
ENDBRANCH   1  20
TORSDOF 4
ENDMDL
