MODEL 1
REMARK VINA RESULT:      -6.2      0.000      0.000
REMARK  3 active torsions:
REMARK  status: ('A' for Active; 'I' for Inactive)
REMARK    1  A    between atoms: C_2  and  C_3 
REMARK       I    between atoms: C_2  and  N_13 
REMARK    2  A    between atoms: C_3  and  N_4 
REMARK    3  A    between atoms: N_13  and  C_14 
ROOT
HETATM    1  N   UNL     1     -42.854 -47.326   9.995  1.00  0.00    -0.277 N 
HETATM    2  C   UNL     1     -43.026 -45.995   9.766  1.00  0.00     0.203 A 
HETATM    3  N   UNL     1     -44.267 -45.769   9.397  1.00  0.00    -0.327 N 
ATOM      4  HN  UNL     1     -44.705 -44.880   9.155  1.00  0.00     0.169 HD
HETATM    5  C   UNL     1     -44.829 -47.020   9.415  1.00  0.00     0.204 A 
HETATM    6  C   UNL     1     -46.211 -47.254   9.105  1.00  0.00     0.138 C 
HETATM    7  N   UNL     1     -47.332 -47.449   8.858  1.00  0.00    -0.188 NA
HETATM    8  N   UNL     1     -43.991 -48.014   9.752  1.00  0.00    -0.273 N 
ATOM      9  HN  UNL     1     -44.166 -49.017   9.809  1.00  0.00     0.189 HD
ENDROOT
BRANCH   1  10
HETATM   10  C   UNL     1     -41.639 -48.013  10.376  1.00  0.00     0.252 C 
BRANCH  10  11
HETATM   11  C   UNL     1     -41.891 -48.978  11.515  1.00  0.00     0.237 C 
HETATM   12  O   UNL     1     -42.777 -48.777  12.343  1.00  0.00    -0.272 OA
HETATM   13  N   UNL     1     -41.050 -50.073  11.543  1.00  0.00    -0.355 N 
HETATM   14  H   UNL     1     -40.339 -50.161  10.828  1.00  0.00     0.162 HD
BRANCH  13  15
HETATM   15  C   UNL     1     -41.120 -51.163  12.526  1.00  0.00     0.084 C 
HETATM   16  C   UNL     1     -39.721 -51.606  12.987  1.00  0.00     0.025 C 
HETATM   17  C   UNL     1     -39.749 -52.400  14.294  1.00  0.00     0.002 C 
HETATM   18  C   UNL     1     -39.945 -53.903  14.123  1.00  0.00     0.000 C 
HETATM   19  C   UNL     1     -40.955 -54.341  13.067  1.00  0.00     0.000 C 
HETATM   20  C   UNL     1     -42.207 -53.473  12.993  1.00  0.00     0.002 C 
HETATM   21  C   UNL     1     -42.048 -52.285  12.041  1.00  0.00     0.025 C 
ENDBRANCH  13  15
ENDBRANCH  10  11
ENDBRANCH   1  10
TORSDOF 3
ENDMDL
MODEL 2
REMARK VINA RESULT:      -6.1      2.897      4.901
REMARK  3 active torsions:
REMARK  status: ('A' for Active; 'I' for Inactive)
REMARK    1  A    between atoms: C_2  and  C_3 
REMARK       I    between atoms: C_2  and  N_13 
REMARK    2  A    between atoms: C_3  and  N_4 
REMARK    3  A    between atoms: N_13  and  C_14 
ROOT
HETATM    1  N   UNL     1     -40.676 -50.623  11.540  1.00  0.00    -0.277 N 
HETATM    2  C   UNL     1     -39.460 -50.010  11.577  1.00  0.00     0.203 A 
HETATM    3  N   UNL     1     -39.599 -48.738  11.276  1.00  0.00    -0.327 N 
ATOM      4  HN  UNL     1     -38.879 -48.018  11.219  1.00  0.00     0.169 HD
HETATM    5  C   UNL     1     -40.948 -48.616  11.060  1.00  0.00     0.204 A 
HETATM    6  C   UNL     1     -41.570 -47.364  10.731  1.00  0.00     0.138 C 
HETATM    7  N   UNL     1     -42.080 -46.351  10.467  1.00  0.00    -0.188 NA
HETATM    8  N   UNL     1     -41.649 -49.754  11.185  1.00  0.00    -0.273 N 
ATOM      9  HN  UNL     1     -42.646 -49.919  11.048  1.00  0.00     0.189 HD
ENDROOT
BRANCH   1  10
HETATM   10  C   UNL     1     -40.975 -52.021  11.762  1.00  0.00     0.252 C 
BRANCH  10  11
HETATM   11  C   UNL     1     -42.198 -52.185  12.639  1.00  0.00     0.237 C 
HETATM   12  O   UNL     1     -42.207 -51.802  13.806  1.00  0.00    -0.272 OA
HETATM   13  N   UNL     1     -43.272 -52.798  12.025  1.00  0.00    -0.355 N 
HETATM   14  H   UNL     1     -43.182 -53.092  11.061  1.00  0.00     0.162 HD
BRANCH  13  15
HETATM   15  C   UNL     1     -44.578 -53.036  12.656  1.00  0.00     0.084 C 
HETATM   16  C   UNL     1     -45.121 -51.768  13.336  1.00  0.00     0.025 C 
HETATM   17  C   UNL     1     -46.625 -51.839  13.610  1.00  0.00     0.002 C 
HETATM   18  C   UNL     1     -47.001 -52.469  14.947  1.00  0.00     0.000 C 
HETATM   19  C   UNL     1     -46.199 -53.697  15.368  1.00  0.00     0.000 C 
HETATM   20  C   UNL     1     -45.862 -54.653  14.229  1.00  0.00     0.002 C 
HETATM   21  C   UNL     1     -44.548 -54.299  13.528  1.00  0.00     0.025 C 
ENDBRANCH  13  15
ENDBRANCH  10  11
ENDBRANCH   1  10
TORSDOF 3
ENDMDL
MODEL 3
REMARK VINA RESULT:      -6.0      2.410      3.696
REMARK  3 active torsions:
REMARK  status: ('A' for Active; 'I' for Inactive)
REMARK    1  A    between atoms: C_2  and  C_3 
REMARK       I    between atoms: C_2  and  N_13 
REMARK    2  A    between atoms: C_3  and  N_4 
REMARK    3  A    between atoms: N_13  and  C_14 
ROOT
HETATM    1  N   UNL     1     -40.960 -48.701  11.090  1.00  0.00    -0.277 N 
HETATM    2  C   UNL     1     -40.803 -47.655  11.949  1.00  0.00     0.203 A 
HETATM    3  N   UNL     1     -41.429 -46.601  11.476  1.00  0.00    -0.327 N 
ATOM      4  HN  UNL     1     -41.498 -45.668  11.883  1.00  0.00     0.169 HD
HETATM    5  C   UNL     1     -41.967 -47.060  10.300  1.00  0.00     0.204 A 
HETATM    6  C   UNL     1     -42.779 -46.240   9.446  1.00  0.00     0.138 C 
HETATM    7  N   UNL     1     -43.441 -45.580   8.752  1.00  0.00    -0.188 NA
HETATM    8  N   UNL     1     -41.683 -48.340  10.008  1.00  0.00    -0.273 N 
ATOM      9  HN  UNL     1     -41.944 -48.890   9.189  1.00  0.00     0.189 HD
ENDROOT
BRANCH   1  10
HETATM   10  C   UNL     1     -40.404 -50.033  11.200  1.00  0.00     0.252 C 
BRANCH  10  11
HETATM   11  C   UNL     1     -41.089 -50.822  12.295  1.00  0.00     0.237 C 
HETATM   12  O   UNL     1     -40.479 -51.196  13.294  1.00  0.00    -0.272 OA
HETATM   13  N   UNL     1     -42.426 -51.083  12.071  1.00  0.00    -0.355 N 
HETATM   14  H   UNL     1     -42.853 -50.745  11.218  1.00  0.00     0.162 HD
BRANCH  13  15
HETATM   15  C   UNL     1     -43.312 -51.797  13.002  1.00  0.00     0.084 C 
HETATM   16  C   UNL     1     -43.744 -53.163  12.441  1.00  0.00     0.025 C 
HETATM   17  C   UNL     1     -44.282 -54.104  13.520  1.00  0.00     0.002 C 
HETATM   18  C   UNL     1     -45.777 -53.973  13.794  1.00  0.00     0.000 C 
HETATM   19  C   UNL     1     -46.340 -52.556  13.820  1.00  0.00     0.000 C 
HETATM   20  C   UNL     1     -45.429 -51.525  14.478  1.00  0.00     0.002 C 
HETATM   21  C   UNL     1     -44.447 -50.888  13.492  1.00  0.00     0.025 C 
ENDBRANCH  13  15
ENDBRANCH  10  11
ENDBRANCH   1  10
TORSDOF 3
ENDMDL
MODEL 4
REMARK VINA RESULT:      -5.8      1.963      2.650
REMARK  3 active torsions:
REMARK  status: ('A' for Active; 'I' for Inactive)
REMARK    1  A    between atoms: C_2  and  C_3 
REMARK       I    between atoms: C_2  and  N_13 
REMARK    2  A    between atoms: C_3  and  N_4 
REMARK    3  A    between atoms: N_13  and  C_14 
ROOT
HETATM    1  N   UNL     1     -43.042 -47.343   9.372  1.00  0.00    -0.277 N 
HETATM    2  C   UNL     1     -43.127 -47.775   8.083  1.00  0.00     0.203 A 
HETATM    3  N   UNL     1     -44.391 -47.923   7.751  1.00  0.00    -0.327 N 
ATOM      4  HN  UNL     1     -44.781 -48.232   6.861  1.00  0.00     0.169 HD
HETATM    5  C   UNL     1     -45.056 -47.559   8.895  1.00  0.00     0.204 A 
HETATM    6  C   UNL     1     -46.489 -47.535   8.984  1.00  0.00     0.138 C 
HETATM    7  N   UNL     1     -47.650 -47.511   9.061  1.00  0.00    -0.188 NA
HETATM    8  N   UNL     1     -44.267 -47.219   9.927  1.00  0.00    -0.273 N 
ATOM      9  HN  UNL     1     -44.524 -46.943  10.875  1.00  0.00     0.189 HD
ENDROOT
BRANCH   1  10
HETATM   10  C   UNL     1     -41.847 -47.094  10.148  1.00  0.00     0.252 C 
BRANCH  10  11
HETATM   11  C   UNL     1     -41.489 -48.294  10.999  1.00  0.00     0.237 C 
HETATM   12  O   UNL     1     -42.354 -48.999  11.511  1.00  0.00    -0.272 OA
HETATM   13  N   UNL     1     -40.133 -48.513  11.150  1.00  0.00    -0.355 N 
HETATM   14  H   UNL     1     -39.483 -47.880  10.700  1.00  0.00     0.162 HD
BRANCH  13  15
HETATM   15  C   UNL     1     -39.540 -49.631  11.896  1.00  0.00     0.084 C 
HETATM   16  C   UNL     1     -39.937 -49.598  13.382  1.00  0.00     0.025 C 
HETATM   17  C   UNL     1     -39.721 -50.939  14.084  1.00  0.00     0.002 C 
HETATM   18  C   UNL     1     -38.327 -51.135  14.673  1.00  0.00     0.000 C 
HETATM   19  C   UNL     1     -37.158 -50.641  13.826  1.00  0.00     0.000 C 
HETATM   20  C   UNL     1     -37.312 -50.890  12.329  1.00  0.00     0.002 C 
HETATM   21  C   UNL     1     -38.036 -49.748  11.611  1.00  0.00     0.025 C 
ENDBRANCH  13  15
ENDBRANCH  10  11
ENDBRANCH   1  10
TORSDOF 3
ENDMDL
MODEL 5
REMARK VINA RESULT:      -5.5      4.056      6.225
REMARK  3 active torsions:
REMARK  status: ('A' for Active; 'I' for Inactive)
REMARK    1  A    between atoms: C_2  and  C_3 
REMARK       I    between atoms: C_2  and  N_13 
REMARK    2  A    between atoms: C_3  and  N_4 
REMARK    3  A    between atoms: N_13  and  C_14 
ROOT
HETATM    1  N   UNL     1     -40.272 -51.166  12.040  1.00  0.00    -0.277 N 
HETATM    2  C   UNL     1     -40.245 -50.009  11.322  1.00  0.00     0.203 A 
HETATM    3  N   UNL     1     -39.454 -49.142  11.915  1.00  0.00    -0.327 N 
ATOM      4  HN  UNL     1     -39.226 -48.191  11.627  1.00  0.00     0.169 HD
HETATM    5  C   UNL     1     -39.009 -49.831  13.016  1.00  0.00     0.204 A 
HETATM    6  C   UNL     1     -38.077 -49.273  13.955  1.00  0.00     0.138 C 
HETATM    7  N   UNL     1     -37.318 -48.827  14.717  1.00  0.00    -0.188 NA
HETATM    8  N   UNL     1     -39.506 -51.071  13.149  1.00  0.00    -0.273 N 
ATOM      9  HN  UNL     1     -39.348 -51.757  13.888  1.00  0.00     0.189 HD
ENDROOT
BRANCH   1  10
HETATM   10  C   UNL     1     -41.043 -52.361  11.772  1.00  0.00     0.252 C 
BRANCH  10  11
HETATM   11  C   UNL     1     -42.238 -52.459  12.696  1.00  0.00     0.237 C 
HETATM   12  O   UNL     1     -42.137 -52.241  13.901  1.00  0.00    -0.272 OA
HETATM   13  N   UNL     1     -43.420 -52.815  12.078  1.00  0.00    -0.355 N 
HETATM   14  H   UNL     1     -43.418 -52.985  11.080  1.00  0.00     0.162 HD
BRANCH  13  15
HETATM   15  C   UNL     1     -44.719 -52.939  12.755  1.00  0.00     0.084 C 
HETATM   16  C   UNL     1     -45.155 -51.612  13.399  1.00  0.00     0.025 C 
HETATM   17  C   UNL     1     -46.650 -51.569  13.718  1.00  0.00     0.002 C 
HETATM   18  C   UNL     1     -47.026 -52.121  15.089  1.00  0.00     0.000 C 
HETATM   19  C   UNL     1     -46.296 -53.384  15.536  1.00  0.00     0.000 C 
HETATM   20  C   UNL     1     -46.060 -54.403  14.426  1.00  0.00     0.002 C 
HETATM   21  C   UNL     1     -44.747 -54.167  13.675  1.00  0.00     0.025 C 
ENDBRANCH  13  15
ENDBRANCH  10  11
ENDBRANCH   1  10
TORSDOF 3
ENDMDL
MODEL 6
REMARK VINA RESULT:      -5.5      2.130      3.071
REMARK  3 active torsions:
REMARK  status: ('A' for Active; 'I' for Inactive)
REMARK    1  A    between atoms: C_2  and  C_3 
REMARK       I    between atoms: C_2  and  N_13 
REMARK    2  A    between atoms: C_3  and  N_4 
REMARK    3  A    between atoms: N_13  and  C_14 
ROOT
HETATM    1  N   UNL     1     -42.155 -48.176  11.646  1.00  0.00    -0.277 N 
HETATM    2  C   UNL     1     -42.948 -47.081  11.811  1.00  0.00     0.203 A 
HETATM    3  N   UNL     1     -43.469 -46.736  10.655  1.00  0.00    -0.327 N 
ATOM      4  HN  UNL     1     -44.101 -45.962  10.449  1.00  0.00     0.169 HD
HETATM    5  C   UNL     1     -42.955 -47.671   9.792  1.00  0.00     0.204 A 
HETATM    6  C   UNL     1     -43.287 -47.703   8.395  1.00  0.00     0.138 C 
HETATM    7  N   UNL     1     -43.556 -47.735   7.263  1.00  0.00    -0.188 NA
HETATM    8  N   UNL     1     -42.121 -48.562  10.352  1.00  0.00    -0.273 N 
ATOM      9  HN  UNL     1     -41.601 -49.325   9.917  1.00  0.00     0.189 HD
ENDROOT
BRANCH   1  10
HETATM   10  C   UNL     1     -41.360 -48.857  12.645  1.00  0.00     0.252 C 
BRANCH  10  11
HETATM   11  C   UNL     1     -41.472 -50.360  12.500  1.00  0.00     0.237 C 
HETATM   12  O   UNL     1     -40.775 -50.981  11.702  1.00  0.00    -0.272 OA
HETATM   13  N   UNL     1     -42.413 -50.952  13.319  1.00  0.00    -0.355 N 
HETATM   14  H   UNL     1     -42.953 -50.367  13.945  1.00  0.00     0.162 HD
BRANCH  13  15
HETATM   15  C   UNL     1     -42.680 -52.395  13.388  1.00  0.00     0.084 C 
HETATM   16  C   UNL     1     -44.184 -52.702  13.286  1.00  0.00     0.025 C 
HETATM   17  C   UNL     1     -44.469 -54.157  12.914  1.00  0.00     0.002 C 
HETATM   18  C   UNL     1     -44.564 -55.113  14.100  1.00  0.00     0.000 C 
HETATM   19  C   UNL     1     -43.547 -54.908  15.218  1.00  0.00     0.000 C 
HETATM   20  C   UNL     1     -42.145 -54.546  14.739  1.00  0.00     0.002 C 
HETATM   21  C   UNL     1     -41.948 -53.036  14.575  1.00  0.00     0.025 C 
ENDBRANCH  13  15
ENDBRANCH  10  11
ENDBRANCH   1  10
TORSDOF 3
ENDMDL
MODEL 7
REMARK VINA RESULT:      -5.4      5.884      8.363
REMARK  3 active torsions:
REMARK  status: ('A' for Active; 'I' for Inactive)
REMARK    1  A    between atoms: C_2  and  C_3 
REMARK       I    between atoms: C_2  and  N_13 
REMARK    2  A    between atoms: C_3  and  N_4 
REMARK    3  A    between atoms: N_13  and  C_14 
ROOT
HETATM    1  N   UNL     1     -44.349 -54.152  13.454  1.00  0.00    -0.277 N 
HETATM    2  C   UNL     1     -44.162 -53.377  12.350  1.00  0.00     0.203 A 
HETATM    3  N   UNL     1     -42.875 -53.196  12.152  1.00  0.00    -0.327 N 
ATOM      4  HN  UNL     1     -42.415 -52.665  11.413  1.00  0.00     0.169 HD
HETATM    5  C   UNL     1     -42.302 -53.896  13.183  1.00  0.00     0.204 A 
HETATM    6  C   UNL     1     -40.880 -54.006  13.350  1.00  0.00     0.138 C 
HETATM    7  N   UNL     1     -39.727 -54.101  13.488  1.00  0.00    -0.188 NA
HETATM    8  N   UNL     1     -43.170 -54.480  14.025  1.00  0.00    -0.273 N 
ATOM      9  HN  UNL     1     -42.988 -55.024  14.869  1.00  0.00     0.189 HD
ENDROOT
BRANCH   1  10
HETATM   10  C   UNL     1     -45.602 -54.559  14.052  1.00  0.00     0.252 C 
BRANCH  10  11
HETATM   11  C   UNL     1     -45.740 -54.010  15.456  1.00  0.00     0.237 C 
HETATM   12  O   UNL     1     -45.377 -54.655  16.436  1.00  0.00    -0.272 OA
HETATM   13  N   UNL     1     -46.306 -52.752  15.532  1.00  0.00    -0.355 N 
HETATM   14  H   UNL     1     -46.586 -52.290  14.676  1.00  0.00     0.162 HD
BRANCH  13  15
HETATM   15  C   UNL     1     -46.511 -51.996  16.776  1.00  0.00     0.084 C 
HETATM   16  C   UNL     1     -47.855 -51.249  16.773  1.00  0.00     0.025 C 
HETATM   17  C   UNL     1     -48.302 -50.825  18.173  1.00  0.00     0.002 C 
HETATM   18  C   UNL     1     -47.781 -49.465  18.626  1.00  0.00     0.000 C 
HETATM   19  C   UNL     1     -46.332 -49.143  18.274  1.00  0.00     0.000 C 
HETATM   20  C   UNL     1     -45.373 -50.323  18.401  1.00  0.00     0.002 C 
HETATM   21  C   UNL     1     -45.278 -51.148  17.115  1.00  0.00     0.025 C 
ENDBRANCH  13  15
ENDBRANCH  10  11
ENDBRANCH   1  10
TORSDOF 3
ENDMDL
MODEL 8
REMARK VINA RESULT:      -5.2      4.282      6.269
REMARK  3 active torsions:
REMARK  status: ('A' for Active; 'I' for Inactive)
REMARK    1  A    between atoms: C_2  and  C_3 
REMARK       I    between atoms: C_2  and  N_13 
REMARK    2  A    between atoms: C_3  and  N_4 
REMARK    3  A    between atoms: N_13  and  C_14 
ROOT
HETATM    1  N   UNL     1     -44.897 -53.716  13.433  1.00  0.00    -0.277 N 
HETATM    2  C   UNL     1     -45.635 -54.817  13.750  1.00  0.00     0.203 A 
HETATM    3  N   UNL     1     -46.572 -54.485  14.610  1.00  0.00    -0.327 N 
ATOM      4  HN  UNL     1     -47.280 -55.081  15.037  1.00  0.00     0.169 HD
HETATM    5  C   UNL     1     -46.364 -53.141  14.792  1.00  0.00     0.204 A 
HETATM    6  C   UNL     1     -47.195 -52.337  15.644  1.00  0.00     0.138 C 
HETATM    7  N   UNL     1     -47.867 -51.679  16.331  1.00  0.00    -0.188 NA
HETATM    8  N   UNL     1     -45.329 -52.629  14.108  1.00  0.00    -0.273 N 
ATOM      9  HN  UNL     1     -44.965 -51.675  14.101  1.00  0.00     0.189 HD
ENDROOT
BRANCH   1  10
HETATM   10  C   UNL     1     -43.746 -53.639  12.560  1.00  0.00     0.252 C 
BRANCH  10  11
HETATM   11  C   UNL     1     -42.650 -52.795  13.176  1.00  0.00     0.237 C 
HETATM   12  O   UNL     1     -42.484 -52.745  14.392  1.00  0.00    -0.272 OA
HETATM   13  N   UNL     1     -41.879 -52.096  12.268  1.00  0.00    -0.355 N 
HETATM   14  H   UNL     1     -42.086 -52.185  11.281  1.00  0.00     0.162 HD
BRANCH  13  15
HETATM   15  C   UNL     1     -40.737 -51.239  12.617  1.00  0.00     0.084 C 
HETATM   16  C   UNL     1     -40.380 -50.273  11.475  1.00  0.00     0.025 C 
HETATM   17  C   UNL     1     -39.519 -49.097  11.939  1.00  0.00     0.002 C 
HETATM   18  C   UNL     1     -38.016 -49.357  11.914  1.00  0.00     0.000 C 
HETATM   19  C   UNL     1     -37.558 -50.733  12.386  1.00  0.00     0.000 C 
HETATM   20  C   UNL     1     -38.329 -51.280  13.583  1.00  0.00     0.002 C 
HETATM   21  C   UNL     1     -39.574 -52.071  13.174  1.00  0.00     0.025 C 
ENDBRANCH  13  15
ENDBRANCH  10  11
ENDBRANCH   1  10
TORSDOF 3
ENDMDL
MODEL 9
REMARK VINA RESULT:      -5.0      2.860      4.037
REMARK  3 active torsions:
REMARK  status: ('A' for Active; 'I' for Inactive)
REMARK    1  A    between atoms: C_2  and  C_3 
REMARK       I    between atoms: C_2  and  N_13 
REMARK    2  A    between atoms: C_3  and  N_4 
REMARK    3  A    between atoms: N_13  and  C_14 
ROOT
HETATM    1  N   UNL     1     -40.241 -48.605  11.736  1.00  0.00    -0.277 N 
HETATM    2  C   UNL     1     -41.254 -48.688  10.829  1.00  0.00     0.203 A 
HETATM    3  N   UNL     1     -41.418 -47.521  10.246  1.00  0.00    -0.327 N 
ATOM      4  HN  UNL     1     -42.093 -47.261   9.527  1.00  0.00     0.169 HD
HETATM    5  C   UNL     1     -40.461 -46.739  10.841  1.00  0.00     0.204 A 
HETATM    6  C   UNL     1     -40.249 -45.365  10.482  1.00  0.00     0.138 C 
HETATM    7  N   UNL     1     -40.071 -44.251  10.193  1.00  0.00    -0.188 NA
HETATM    8  N   UNL     1     -39.729 -47.356  11.783  1.00  0.00    -0.273 N 
ATOM      9  HN  UNL     1     -38.987 -46.981  12.375  1.00  0.00     0.189 HD
ENDROOT
BRANCH   1  10
HETATM   10  C   UNL     1     -39.758 -49.639  12.625  1.00  0.00     0.252 C 
BRANCH  10  11
HETATM   11  C   UNL     1     -40.885 -50.219  13.453  1.00  0.00     0.237 C 
HETATM   12  O   UNL     1     -41.392 -49.589  14.378  1.00  0.00    -0.272 OA
HETATM   13  N   UNL     1     -41.275 -51.492  13.087  1.00  0.00    -0.355 N 
HETATM   14  H   UNL     1     -40.801 -51.946  12.317  1.00  0.00     0.162 HD
BRANCH  13  15
HETATM   15  C   UNL     1     -42.368 -52.249  13.713  1.00  0.00     0.084 C 
HETATM   16  C   UNL     1     -42.086 -53.761  13.712  1.00  0.00     0.025 C 
HETATM   17  C   UNL     1     -42.951 -54.527  14.715  1.00  0.00     0.002 C 
HETATM   18  C   UNL     1     -44.302 -54.986  14.174  1.00  0.00     0.000 C 
HETATM   19  C   UNL     1     -45.048 -53.997  13.285  1.00  0.00     0.000 C 
HETATM   20  C   UNL     1     -44.947 -52.542  13.734  1.00  0.00     0.002 C 
HETATM   21  C   UNL     1     -43.729 -51.825  13.145  1.00  0.00     0.025 C 
ENDBRANCH  13  15
ENDBRANCH  10  11
ENDBRANCH   1  10
TORSDOF 3
ENDMDL
