MODEL 1
REMARK VINA RESULT:      -6.5      0.000      0.000
REMARK  5 active torsions:
REMARK  status: ('A' for Active; 'I' for Inactive)
REMARK    1  A    between atoms: O_2  and  C_3 
REMARK    2  A    between atoms: C_3  and  C_4 
REMARK    3  A    between atoms: C_4  and  N_5 
REMARK    4  A    between atoms: C_8  and  C_13 
REMARK       I    between atoms: C_13  and  N_15 
REMARK    5  A    between atoms: N_15  and  C_16 
ROOT
HETATM    1  C   UNL     1     -43.270 -49.447  13.279  1.00  0.00     0.270 C 
HETATM    2  O   UNL     1     -42.926 -49.302  14.445  1.00  0.00    -0.266 OA
HETATM    3  N   UNL     1     -43.890 -50.567  12.776  1.00  0.00    -0.343 N 
HETATM    4  H   UNL     1     -44.249 -50.526  11.823  1.00  0.00     0.163 HD
ENDROOT
BRANCH   1   5
HETATM    5  C   UNL     1     -43.032 -48.321  12.273  1.00  0.00     0.116 A 
HETATM    6  N   UNL     1     -43.145 -48.570  11.002  1.00  0.00    -0.290 N 
HETATM    7  N   UNL     1     -42.918 -47.515  10.133  1.00  0.00    -0.255 N 
ATOM      8  HN  UNL     1     -43.389 -49.500  10.661  1.00  0.00     0.187 HD
HETATM    9  C   UNL     1     -42.591 -46.224  10.541  1.00  0.00     0.262 A 
HETATM   10  C   UNL     1     -42.468 -46.013  11.995  1.00  0.00     0.078 A 
HETATM   11  O   UNL     1     -42.404 -45.273   9.787  1.00  0.00    -0.267 OA
HETATM   12  C   UNL     1     -42.683 -47.011  12.853  1.00  0.00     0.042 A 
BRANCH   7  13
HETATM   13  C   UNL     1     -43.147 -47.777   8.714  1.00  0.00     0.178 C 
BRANCH  13  14
HETATM   14  C   UNL     1     -44.618 -47.696   8.303  1.00  0.00     0.189 C 
BRANCH  14  15
HETATM   15  O   UNL     1     -45.425 -47.603   9.482  1.00  0.00    -0.394 OA
HETATM   16  C   UNL     1     -46.778 -47.301   9.166  1.00  0.00     0.201 C 
ENDBRANCH  14  15
ENDBRANCH  13  14
ENDBRANCH   7  13
ENDBRANCH   1   5
BRANCH   3  17
HETATM   17  C   UNL     1     -44.293 -51.678  13.639  1.00  0.00     0.171 C 
HETATM   18  C   UNL     1     -43.155 -52.695  13.771  1.00  0.00     0.034 C 
HETATM   19  C   UNL     1     -43.428 -53.714  14.871  1.00  0.00     0.004 C 
HETATM   20  C   UNL     1     -44.232 -54.921  14.404  1.00  0.00     0.015 C 
HETATM   21  C   UNL     1     -45.250 -54.650  13.309  1.00  0.00     0.095 C 
HETATM   22  N   UNL     1     -46.072 -53.473  13.504  1.00  0.00    -0.261 NA
HETATM   23  C   UNL     1     -45.647 -52.223  13.133  1.00  0.00     0.220 C 
HETATM   24  H   UNL     1     -47.026 -53.596  13.182  1.00  0.00     0.130 HD
HETATM   25  O   UNL     1     -46.434 -51.509  12.505  1.00  0.00    -0.278 OA
ENDBRANCH   3  17
TORSDOF 5
ENDMDL
MODEL 2
REMARK VINA RESULT:      -6.5      2.187      2.680
REMARK  5 active torsions:
REMARK  status: ('A' for Active; 'I' for Inactive)
REMARK    1  A    between atoms: O_2  and  C_3 
REMARK    2  A    between atoms: C_3  and  C_4 
REMARK    3  A    between atoms: C_4  and  N_5 
REMARK    4  A    between atoms: C_8  and  C_13 
REMARK       I    between atoms: C_13  and  N_15 
REMARK    5  A    between atoms: N_15  and  C_16 
ROOT
HETATM    1  C   UNL     1     -41.229 -49.140  11.371  1.00  0.00     0.270 C 
HETATM    2  O   UNL     1     -40.006 -49.189  11.392  1.00  0.00    -0.266 OA
HETATM    3  N   UNL     1     -42.063 -50.063  11.956  1.00  0.00    -0.343 N 
HETATM    4  H   UNL     1     -43.060 -49.852  11.990  1.00  0.00     0.163 HD
ENDROOT
BRANCH   1   5
HETATM    5  C   UNL     1     -41.928 -47.974  10.671  1.00  0.00     0.116 A 
HETATM    6  N   UNL     1     -42.938 -48.216   9.890  1.00  0.00    -0.290 N 
HETATM    7  N   UNL     1     -43.535 -47.124   9.279  1.00  0.00    -0.255 N 
ATOM      8  HN  UNL     1     -43.276 -49.166   9.733  1.00  0.00     0.187 HD
HETATM    9  C   UNL     1     -43.124 -45.807   9.462  1.00  0.00     0.262 A 
HETATM   10  C   UNL     1     -41.966 -45.604  10.351  1.00  0.00     0.078 A 
HETATM   11  O   UNL     1     -43.652 -44.826   8.945  1.00  0.00    -0.267 OA
HETATM   12  C   UNL     1     -41.374 -46.636  10.953  1.00  0.00     0.042 A 
BRANCH   7  13
HETATM   13  C   UNL     1     -44.732 -47.394   8.485  1.00  0.00     0.178 C 
BRANCH  13  14
HETATM   14  C   UNL     1     -46.039 -47.157   9.243  1.00  0.00     0.189 C 
BRANCH  14  15
HETATM   15  O   UNL     1     -47.083 -47.910   8.616  1.00  0.00    -0.394 OA
HETATM   16  C   UNL     1     -46.561 -48.979   7.837  1.00  0.00     0.201 C 
ENDBRANCH  14  15
ENDBRANCH  13  14
ENDBRANCH   7  13
ENDBRANCH   1   5
BRANCH   3  17
HETATM   17  C   UNL     1     -41.544 -51.168  12.764  1.00  0.00     0.171 C 
HETATM   18  C   UNL     1     -41.629 -52.485  11.988  1.00  0.00     0.034 C 
HETATM   19  C   UNL     1     -40.850 -53.601  12.677  1.00  0.00     0.004 C 
HETATM   20  C   UNL     1     -41.658 -54.357  13.724  1.00  0.00     0.015 C 
HETATM   21  C   UNL     1     -42.693 -53.535  14.476  1.00  0.00     0.095 C 
HETATM   22  N   UNL     1     -42.236 -52.245  14.948  1.00  0.00    -0.261 NA
HETATM   23  C   UNL     1     -42.243 -51.134  14.141  1.00  0.00     0.220 C 
HETATM   24  H   UNL     1     -42.626 -51.989  15.848  1.00  0.00     0.130 HD
HETATM   25  O   UNL     1     -42.699 -50.086  14.608  1.00  0.00    -0.278 OA
ENDBRANCH   3  17
TORSDOF 5
ENDMDL
MODEL 3
REMARK VINA RESULT:      -6.4      1.629      1.849
REMARK  5 active torsions:
REMARK  status: ('A' for Active; 'I' for Inactive)
REMARK    1  A    between atoms: O_2  and  C_3 
REMARK    2  A    between atoms: C_3  and  C_4 
REMARK    3  A    between atoms: C_4  and  N_5 
REMARK    4  A    between atoms: C_8  and  C_13 
REMARK       I    between atoms: C_13  and  N_15 
REMARK    5  A    between atoms: N_15  and  C_16 
ROOT
HETATM    1  C   UNL     1     -41.858 -50.376  12.228  1.00  0.00     0.270 C 
HETATM    2  O   UNL     1     -40.877 -51.084  12.416  1.00  0.00    -0.266 OA
HETATM    3  N   UNL     1     -43.147 -50.712  12.570  1.00  0.00    -0.343 N 
HETATM    4  H   UNL     1     -43.865 -49.994  12.488  1.00  0.00     0.163 HD
ENDROOT
BRANCH   1   5
HETATM    5  C   UNL     1     -41.687 -48.999  11.588  1.00  0.00     0.116 A 
HETATM    6  N   UNL     1     -42.575 -48.580  10.736  1.00  0.00    -0.290 N 
HETATM    7  N   UNL     1     -42.372 -47.324  10.183  1.00  0.00    -0.255 N 
ATOM      8  HN  UNL     1     -43.384 -49.148  10.486  1.00  0.00     0.187 HD
HETATM    9  C   UNL     1     -41.293 -46.501  10.493  1.00  0.00     0.262 A 
HETATM   10  C   UNL     1     -40.317 -47.042  11.457  1.00  0.00     0.078 A 
HETATM   11  O   UNL     1     -41.106 -45.380  10.029  1.00  0.00    -0.267 OA
HETATM   12  C   UNL     1     -40.490 -48.245  12.005  1.00  0.00     0.042 A 
BRANCH   7  13
HETATM   13  C   UNL     1     -43.426 -46.818   9.307  1.00  0.00     0.178 C 
BRANCH  13  14
HETATM   14  C   UNL     1     -43.712 -47.719   8.106  1.00  0.00     0.189 C 
BRANCH  14  15
HETATM   15  O   UNL     1     -45.097 -48.085   8.119  1.00  0.00    -0.394 OA
HETATM   16  C   UNL     1     -45.777 -47.516   9.229  1.00  0.00     0.201 C 
ENDBRANCH  14  15
ENDBRANCH  13  14
ENDBRANCH   7  13
ENDBRANCH   1   5
BRANCH   3  17
HETATM   17  C   UNL     1     -43.455 -51.943  13.299  1.00  0.00     0.171 C 
HETATM   18  C   UNL     1     -44.002 -53.009  12.344  1.00  0.00     0.034 C 
HETATM   19  C   UNL     1     -44.071 -54.382  13.005  1.00  0.00     0.004 C 
HETATM   20  C   UNL     1     -45.367 -54.632  13.765  1.00  0.00     0.015 C 
HETATM   21  C   UNL     1     -45.996 -53.410  14.415  1.00  0.00     0.095 C 
HETATM   22  N   UNL     1     -45.081 -52.554  15.140  1.00  0.00    -0.261 NA
HETATM   23  C   UNL     1     -44.344 -51.583  14.510  1.00  0.00     0.220 C 
HETATM   24  H   UNL     1     -45.490 -52.153  15.977  1.00  0.00     0.130 HD
HETATM   25  O   UNL     1     -44.310 -50.461  15.023  1.00  0.00    -0.278 OA
ENDBRANCH   3  17
TORSDOF 5
ENDMDL
MODEL 4
REMARK VINA RESULT:      -6.3      2.073      2.672
REMARK  5 active torsions:
REMARK  status: ('A' for Active; 'I' for Inactive)
REMARK    1  A    between atoms: O_2  and  C_3 
REMARK    2  A    between atoms: C_3  and  C_4 
REMARK    3  A    between atoms: C_4  and  N_5 
REMARK    4  A    between atoms: C_8  and  C_13 
REMARK       I    between atoms: C_13  and  N_15 
REMARK    5  A    between atoms: N_15  and  C_16 
ROOT
HETATM    1  C   UNL     1     -42.015 -50.067  12.341  1.00  0.00     0.270 C 
HETATM    2  O   UNL     1     -42.432 -50.095  13.492  1.00  0.00    -0.266 OA
HETATM    3  N   UNL     1     -41.734 -51.179  11.580  1.00  0.00    -0.343 N 
HETATM    4  H   UNL     1     -41.519 -51.039  10.594  1.00  0.00     0.163 HD
ENDROOT
BRANCH   1   5
HETATM    5  C   UNL     1     -41.794 -48.724  11.648  1.00  0.00     0.116 A 
HETATM    6  N   UNL     1     -42.722 -48.251  10.869  1.00  0.00    -0.290 N 
HETATM    7  N   UNL     1     -42.470 -47.029  10.263  1.00  0.00    -0.255 N 
ATOM      8  HN  UNL     1     -43.594 -48.755  10.711  1.00  0.00     0.187 HD
HETATM    9  C   UNL     1     -41.304 -46.292  10.449  1.00  0.00     0.262 A 
HETATM   10  C   UNL     1     -40.289 -46.891  11.334  1.00  0.00     0.078 A 
HETATM   11  O   UNL     1     -41.071 -45.201   9.936  1.00  0.00    -0.267 OA
HETATM   12  C   UNL     1     -40.506 -48.064  11.931  1.00  0.00     0.042 A 
BRANCH   7  13
HETATM   13  C   UNL     1     -43.557 -46.456   9.473  1.00  0.00     0.178 C 
BRANCH  13  14
HETATM   14  C   UNL     1     -44.378 -47.496   8.710  1.00  0.00     0.189 C 
BRANCH  14  15
HETATM   15  O   UNL     1     -45.531 -47.840   9.488  1.00  0.00    -0.394 OA
HETATM   16  C   UNL     1     -46.672 -47.092   9.090  1.00  0.00     0.201 C 
ENDBRANCH  14  15
ENDBRANCH  13  14
ENDBRANCH   7  13
ENDBRANCH   1   5
BRANCH   3  17
HETATM   17  C   UNL     1     -42.009 -52.533  12.062  1.00  0.00     0.171 C 
HETATM   18  C   UNL     1     -43.401 -52.604  12.695  1.00  0.00     0.034 C 
HETATM   19  C   UNL     1     -43.834 -54.043  12.955  1.00  0.00     0.004 C 
HETATM   20  C   UNL     1     -43.375 -54.588  14.301  1.00  0.00     0.015 C 
HETATM   21  C   UNL     1     -42.039 -54.063  14.803  1.00  0.00     0.095 C 
HETATM   22  N   UNL     1     -40.976 -54.032  13.821  1.00  0.00    -0.261 NA
HETATM   23  C   UNL     1     -40.826 -52.984  12.948  1.00  0.00     0.220 C 
HETATM   24  H   UNL     1     -40.068 -54.257  14.211  1.00  0.00     0.130 HD
HETATM   25  O   UNL     1     -39.694 -52.515  12.799  1.00  0.00    -0.278 OA
ENDBRANCH   3  17
TORSDOF 5
ENDMDL
MODEL 5
REMARK VINA RESULT:      -6.1      2.211      7.059
REMARK  5 active torsions:
REMARK  status: ('A' for Active; 'I' for Inactive)
REMARK    1  A    between atoms: O_2  and  C_3 
REMARK    2  A    between atoms: C_3  and  C_4 
REMARK    3  A    between atoms: C_4  and  N_5 
REMARK    4  A    between atoms: C_8  and  C_13 
REMARK       I    between atoms: C_13  and  N_15 
REMARK    5  A    between atoms: N_15  and  C_16 
ROOT
HETATM    1  C   UNL     1     -41.479 -50.483  11.904  1.00  0.00     0.270 C 
HETATM    2  O   UNL     1     -40.264 -50.631  11.901  1.00  0.00    -0.266 OA
HETATM    3  N   UNL     1     -42.133 -49.350  11.477  1.00  0.00    -0.343 N 
HETATM    4  H   UNL     1     -43.149 -49.387  11.401  1.00  0.00     0.163 HD
ENDROOT
BRANCH   1   5
HETATM    5  C   UNL     1     -42.379 -51.618  12.389  1.00  0.00     0.116 A 
HETATM    6  N   UNL     1     -43.660 -51.415  12.486  1.00  0.00    -0.290 N 
HETATM    7  N   UNL     1     -44.431 -52.477  12.933  1.00  0.00    -0.255 N 
ATOM      8  HN  UNL     1     -44.077 -50.517  12.246  1.00  0.00     0.187 HD
HETATM    9  C   UNL     1     -43.919 -53.728  13.267  1.00  0.00     0.262 A 
HETATM   10  C   UNL     1     -42.458 -53.886  13.144  1.00  0.00     0.078 A 
HETATM   11  O   UNL     1     -44.588 -54.685  13.645  1.00  0.00    -0.267 OA
HETATM   12  C   UNL     1     -41.693 -52.882  12.716  1.00  0.00     0.042 A 
BRANCH   7  13
HETATM   13  C   UNL     1     -45.878 -52.275  12.941  1.00  0.00     0.178 C 
BRANCH  13  14
HETATM   14  C   UNL     1     -46.391 -51.551  14.187  1.00  0.00     0.189 C 
BRANCH  14  15
HETATM   15  O   UNL     1     -45.286 -50.924  14.849  1.00  0.00    -0.394 OA
HETATM   16  C   UNL     1     -45.501 -50.832  16.251  1.00  0.00     0.201 C 
ENDBRANCH  14  15
ENDBRANCH  13  14
ENDBRANCH   7  13
ENDBRANCH   1   5
BRANCH   3  17
HETATM   17  C   UNL     1     -41.416 -48.226  10.874  1.00  0.00     0.171 C 
HETATM   18  C   UNL     1     -40.666 -47.430  11.946  1.00  0.00     0.034 C 
HETATM   19  C   UNL     1     -39.691 -46.430  11.334  1.00  0.00     0.004 C 
HETATM   20  C   UNL     1     -40.321 -45.082  11.007  1.00  0.00     0.015 C 
HETATM   21  C   UNL     1     -41.780 -45.122  10.584  1.00  0.00     0.095 C 
HETATM   22  N   UNL     1     -42.118 -46.145   9.617  1.00  0.00    -0.261 NA
HETATM   23  C   UNL     1     -42.407 -47.432   9.994  1.00  0.00     0.220 C 
HETATM   24  H   UNL     1     -42.816 -45.843   8.946  1.00  0.00     0.130 HD
HETATM   25  O   UNL     1     -43.402 -47.969   9.498  1.00  0.00    -0.278 OA
ENDBRANCH   3  17
TORSDOF 5
ENDMDL
MODEL 6
REMARK VINA RESULT:      -5.9      2.819      3.772
REMARK  5 active torsions:
REMARK  status: ('A' for Active; 'I' for Inactive)
REMARK    1  A    between atoms: O_2  and  C_3 
REMARK    2  A    between atoms: C_3  and  C_4 
REMARK    3  A    between atoms: C_4  and  N_5 
REMARK    4  A    between atoms: C_8  and  C_13 
REMARK       I    between atoms: C_13  and  N_15 
REMARK    5  A    between atoms: N_15  and  C_16 
ROOT
HETATM    1  C   UNL     1     -42.539 -51.424  13.571  1.00  0.00     0.270 C 
HETATM    2  O   UNL     1     -42.611 -51.963  14.667  1.00  0.00    -0.266 OA
HETATM    3  N   UNL     1     -43.588 -51.287  12.691  1.00  0.00    -0.343 N 
HETATM    4  H   UNL     1     -43.447 -50.706  11.867  1.00  0.00     0.163 HD
ENDROOT
BRANCH   1   5
HETATM    5  C   UNL     1     -41.212 -50.825  13.107  1.00  0.00     0.116 A 
HETATM    6  N   UNL     1     -41.203 -49.641  12.569  1.00  0.00    -0.290 N 
HETATM    7  N   UNL     1     -39.973 -49.144  12.164  1.00  0.00    -0.255 N 
ATOM      8  HN  UNL     1     -42.061 -49.103  12.451  1.00  0.00     0.187 HD
HETATM    9  C   UNL     1     -38.770 -49.829  12.309  1.00  0.00     0.262 A 
HETATM   10  C   UNL     1     -38.852 -51.170  12.915  1.00  0.00     0.078 A 
HETATM   11  O   UNL     1     -37.670 -49.398  11.974  1.00  0.00    -0.267 OA
HETATM   12  C   UNL     1     -40.022 -51.671  13.315  1.00  0.00     0.042 A 
BRANCH   7  13
HETATM   13  C   UNL     1     -39.957 -47.775  11.657  1.00  0.00     0.178 C 
BRANCH  13  14
HETATM   14  C   UNL     1     -41.319 -47.286  11.161  1.00  0.00     0.189 C 
BRANCH  14  15
HETATM   15  O   UNL     1     -41.778 -48.162  10.124  1.00  0.00    -0.394 OA
HETATM   16  C   UNL     1     -42.955 -47.663   9.502  1.00  0.00     0.201 C 
ENDBRANCH  14  15
ENDBRANCH  13  14
ENDBRANCH   7  13
ENDBRANCH   1   5
BRANCH   3  17
HETATM   17  C   UNL     1     -44.947 -51.702  13.043  1.00  0.00     0.171 C 
HETATM   18  C   UNL     1     -45.336 -51.154  14.419  1.00  0.00     0.034 C 
HETATM   19  C   UNL     1     -46.826 -51.325  14.698  1.00  0.00     0.004 C 
HETATM   20  C   UNL     1     -47.183 -52.671  15.315  1.00  0.00     0.015 C 
HETATM   21  C   UNL     1     -46.322 -53.845  14.879  1.00  0.00     0.095 C 
HETATM   22  N   UNL     1     -46.068 -53.933  13.457  1.00  0.00    -0.261 NA
HETATM   23  C   UNL     1     -45.053 -53.232  12.856  1.00  0.00     0.220 C 
HETATM   24  H   UNL     1     -46.044 -54.888  13.115  1.00  0.00     0.130 HD
HETATM   25  O   UNL     1     -44.324 -53.837  12.065  1.00  0.00    -0.278 OA
ENDBRANCH   3  17
TORSDOF 5
ENDMDL
MODEL 7
REMARK VINA RESULT:      -5.8      1.701      2.040
REMARK  5 active torsions:
REMARK  status: ('A' for Active; 'I' for Inactive)
REMARK    1  A    between atoms: O_2  and  C_3 
REMARK    2  A    between atoms: C_3  and  C_4 
REMARK    3  A    between atoms: C_4  and  N_5 
REMARK    4  A    between atoms: C_8  and  C_13 
REMARK       I    between atoms: C_13  and  N_15 
REMARK    5  A    between atoms: N_15  and  C_16 
ROOT
HETATM    1  C   UNL     1     -43.580 -50.424  13.185  1.00  0.00     0.270 C 
HETATM    2  O   UNL     1     -43.136 -50.939  14.204  1.00  0.00    -0.266 OA
HETATM    3  N   UNL     1     -44.809 -50.704  12.634  1.00  0.00    -0.343 N 
HETATM    4  H   UNL     1     -45.129 -50.122  11.862  1.00  0.00     0.163 HD
ENDROOT
BRANCH   1   5
HETATM    5  C   UNL     1     -42.753 -49.372  12.447  1.00  0.00     0.116 A 
HETATM    6  N   UNL     1     -43.329 -48.628  11.549  1.00  0.00    -0.290 N 
HETATM    7  N   UNL     1     -42.534 -47.690  10.907  1.00  0.00    -0.255 N 
ATOM      8  HN  UNL     1     -44.319 -48.729  11.327  1.00  0.00     0.187 HD
HETATM    9  C   UNL     1     -41.181 -47.500  11.175  1.00  0.00     0.262 A 
HETATM   10  C   UNL     1     -40.589 -48.385  12.195  1.00  0.00     0.078 A 
HETATM   11  O   UNL     1     -40.466 -46.664  10.631  1.00  0.00    -0.267 OA
HETATM   12  C   UNL     1     -41.331 -49.294  12.829  1.00  0.00     0.042 A 
BRANCH   7  13
HETATM   13  C   UNL     1     -43.209 -46.790   9.976  1.00  0.00     0.178 C 
BRANCH  13  14
HETATM   14  C   UNL     1     -44.085 -47.510   8.950  1.00  0.00     0.189 C 
BRANCH  14  15
HETATM   15  O   UNL     1     -45.428 -47.024   9.062  1.00  0.00    -0.394 OA
HETATM   16  C   UNL     1     -46.377 -48.064   8.868  1.00  0.00     0.201 C 
ENDBRANCH  14  15
ENDBRANCH  13  14
ENDBRANCH   7  13
ENDBRANCH   1   5
BRANCH   3  17
HETATM   17  C   UNL     1     -45.762 -51.599  13.291  1.00  0.00     0.171 C 
HETATM   18  C   UNL     1     -45.912 -51.229  14.770  1.00  0.00     0.034 C 
HETATM   19  C   UNL     1     -47.091 -51.948  15.418  1.00  0.00     0.004 C 
HETATM   20  C   UNL     1     -46.743 -53.326  15.967  1.00  0.00     0.015 C 
HETATM   21  C   UNL     1     -45.678 -54.091  15.198  1.00  0.00     0.095 C 
HETATM   22  N   UNL     1     -45.828 -54.085  13.758  1.00  0.00    -0.261 NA
HETATM   23  C   UNL     1     -45.354 -53.057  12.984  1.00  0.00     0.220 C 
HETATM   24  H   UNL     1     -45.558 -54.962  13.327  1.00  0.00     0.130 HD
HETATM   25  O   UNL     1     -44.715 -53.347  11.969  1.00  0.00    -0.278 OA
ENDBRANCH   3  17
TORSDOF 5
ENDMDL
MODEL 8
REMARK VINA RESULT:      -5.6      3.618      4.990
REMARK  5 active torsions:
REMARK  status: ('A' for Active; 'I' for Inactive)
REMARK    1  A    between atoms: O_2  and  C_3 
REMARK    2  A    between atoms: C_3  and  C_4 
REMARK    3  A    between atoms: C_4  and  N_5 
REMARK    4  A    between atoms: C_8  and  C_13 
REMARK       I    between atoms: C_13  and  N_15 
REMARK    5  A    between atoms: N_15  and  C_16 
ROOT
HETATM    1  C   UNL     1     -42.508 -49.480  13.045  1.00  0.00     0.270 C 
HETATM    2  O   UNL     1     -43.154 -48.829  12.235  1.00  0.00    -0.266 OA
HETATM    3  N   UNL     1     -42.967 -50.601  13.699  1.00  0.00    -0.343 N 
HETATM    4  H   UNL     1     -42.299 -51.138  14.250  1.00  0.00     0.163 HD
ENDROOT
BRANCH   1   5
HETATM    5  C   UNL     1     -41.072 -49.071  13.374  1.00  0.00     0.116 A 
HETATM    6  N   UNL     1     -40.218 -49.983  13.731  1.00  0.00    -0.290 N 
HETATM    7  N   UNL     1     -38.930 -49.558  14.019  1.00  0.00    -0.255 N 
ATOM      8  HN  UNL     1     -40.482 -50.966  13.796  1.00  0.00     0.187 HD
HETATM    9  C   UNL     1     -38.509 -48.234  13.939  1.00  0.00     0.262 A 
HETATM   10  C   UNL     1     -39.531 -47.249  13.539  1.00  0.00     0.078 A 
HETATM   11  O   UNL     1     -37.369 -47.841  14.172  1.00  0.00    -0.267 OA
HETATM   12  C   UNL     1     -40.776 -47.631  13.254  1.00  0.00     0.042 A 
BRANCH   7  13
HETATM   13  C   UNL     1     -37.950 -50.600  14.319  1.00  0.00     0.178 C 
BRANCH  13  14
HETATM   14  C   UNL     1     -37.247 -51.158  13.081  1.00  0.00     0.189 C 
BRANCH  14  15
HETATM   15  O   UNL     1     -38.039 -50.865  11.925  1.00  0.00    -0.394 OA
HETATM   16  C   UNL     1     -37.317 -50.087  10.980  1.00  0.00     0.201 C 
ENDBRANCH  14  15
ENDBRANCH  13  14
ENDBRANCH   7  13
ENDBRANCH   1   5
BRANCH   3  17
HETATM   17  C   UNL     1     -44.275 -51.185  13.400  1.00  0.00     0.171 C 
HETATM   18  C   UNL     1     -45.190 -51.106  14.626  1.00  0.00     0.034 C 
HETATM   19  C   UNL     1     -46.635 -51.445  14.278  1.00  0.00     0.004 C 
HETATM   20  C   UNL     1     -46.949 -52.934  14.345  1.00  0.00     0.015 C 
HETATM   21  C   UNL     1     -45.808 -53.865  13.970  1.00  0.00     0.095 C 
HETATM   22  N   UNL     1     -45.079 -53.501  12.772  1.00  0.00    -0.261 NA
HETATM   23  C   UNL     1     -44.054 -52.590  12.796  1.00  0.00     0.220 C 
HETATM   24  H   UNL     1     -44.782 -54.304  12.228  1.00  0.00     0.130 HD
HETATM   25  O   UNL     1     -43.011 -52.880  12.203  1.00  0.00    -0.278 OA
ENDBRANCH   3  17
TORSDOF 5
ENDMDL
MODEL 9
REMARK VINA RESULT:      -5.5      3.128      4.205
REMARK  5 active torsions:
REMARK  status: ('A' for Active; 'I' for Inactive)
REMARK    1  A    between atoms: O_2  and  C_3 
REMARK    2  A    between atoms: C_3  and  C_4 
REMARK    3  A    between atoms: C_4  and  N_5 
REMARK    4  A    between atoms: C_8  and  C_13 
REMARK       I    between atoms: C_13  and  N_15 
REMARK    5  A    between atoms: N_15  and  C_16 
ROOT
HETATM    1  C   UNL     1     -40.974 -48.836  11.815  1.00  0.00     0.270 C 
HETATM    2  O   UNL     1     -41.345 -48.961  10.656  1.00  0.00    -0.266 OA
HETATM    3  N   UNL     1     -40.964 -49.844  12.751  1.00  0.00    -0.343 N 
HETATM    4  H   UNL     1     -40.511 -49.661  13.645  1.00  0.00     0.163 HD
ENDROOT
BRANCH   1   5
HETATM    5  C   UNL     1     -40.455 -47.483  12.302  1.00  0.00     0.116 A 
HETATM    6  N   UNL     1     -40.965 -46.393  11.812  1.00  0.00    -0.290 N 
HETATM    7  N   UNL     1     -40.458 -45.193  12.287  1.00  0.00    -0.255 N 
ATOM      8  HN  UNL     1     -41.705 -46.419  11.110  1.00  0.00     0.187 HD
HETATM    9  C   UNL     1     -39.457 -45.096  13.249  1.00  0.00     0.262 A 
HETATM   10  C   UNL     1     -38.914 -46.370  13.755  1.00  0.00     0.078 A 
HETATM   11  O   UNL     1     -39.009 -44.044  13.695  1.00  0.00    -0.267 OA
HETATM   12  C   UNL     1     -39.385 -47.538  13.316  1.00  0.00     0.042 A 
BRANCH   7  13
HETATM   13  C   UNL     1     -41.107 -43.975  11.808  1.00  0.00     0.178 C 
BRANCH  13  14
HETATM   14  C   UNL     1     -42.476 -44.216  11.172  1.00  0.00     0.189 C 
BRANCH  14  15
HETATM   15  O   UNL     1     -42.293 -44.845   9.898  1.00  0.00    -0.394 OA
HETATM   16  C   UNL     1     -43.446 -45.579   9.506  1.00  0.00     0.201 C 
ENDBRANCH  14  15
ENDBRANCH  13  14
ENDBRANCH   7  13
ENDBRANCH   1   5
BRANCH   3  17
HETATM   17  C   UNL     1     -41.316 -51.221  12.403  1.00  0.00     0.171 C 
HETATM   18  C   UNL     1     -42.608 -51.640  13.113  1.00  0.00     0.034 C 
HETATM   19  C   UNL     1     -43.156 -52.954  12.567  1.00  0.00     0.004 C 
HETATM   20  C   UNL     1     -42.577 -54.189  13.245  1.00  0.00     0.015 C 
HETATM   21  C   UNL     1     -41.136 -54.068  13.713  1.00  0.00     0.095 C 
HETATM   22  N   UNL     1     -40.222 -53.476  12.760  1.00  0.00    -0.261 NA
HETATM   23  C   UNL     1     -40.079 -52.116  12.641  1.00  0.00     0.220 C 
HETATM   24  H   UNL     1     -39.298 -53.893  12.781  1.00  0.00     0.130 HD
HETATM   25  O   UNL     1     -38.934 -51.658  12.593  1.00  0.00    -0.278 OA
ENDBRANCH   3  17
TORSDOF 5
ENDMDL
