MODEL 1
REMARK VINA RESULT:      -6.0      0.000      0.000
REMARK  6 active torsions:
REMARK  status: ('A' for Active; 'I' for Inactive)
REMARK    1  A    between atoms: C_2  and  O_3 
REMARK    2  A    between atoms: O_3  and  C_4 
REMARK    3  A    between atoms: C_6  and  N_7 
REMARK    4  A    between atoms: N_7  and  C_8 
REMARK    5  A    between atoms: C_8  and  C_10 
REMARK    6  A    between atoms: C_10  and  N_11 
ROOT
HETATM    1  N   UNL     1     -43.783 -49.963  12.399  1.00  0.00     0.095 N 
HETATM    2  H   UNL     1     -44.805 -49.924  12.436  1.00  0.00     0.317 HD
ENDROOT
BRANCH   1   3
HETATM    3  C   UNL     1     -43.256 -50.828  13.451  1.00  0.00     0.234 C 
HETATM    4  C   UNL     1     -42.365 -51.996  12.977  1.00  0.00     0.069 C 
HETATM    5  C   UNL     1     -43.068 -52.846  14.069  1.00  0.00     0.134 C 
HETATM    6  C   UNL     1     -44.333 -51.945  13.789  1.00  0.00     0.017 C 
HETATM    7  C   UNL     1     -45.249 -51.611  14.965  1.00  0.00     0.014 C 
HETATM    8  C   UNL     1     -45.278 -52.476  12.699  1.00  0.00     0.014 C 
HETATM    9  C   UNL     1     -46.636 -51.374  14.351  1.00  0.00     0.001 C 
HETATM   10  C   UNL     1     -46.514 -51.606  12.850  1.00  0.00     0.001 C 
BRANCH   5  11
HETATM   11  O   UNL     1     -43.217 -54.264  13.828  1.00  0.00    -0.385 OA
BRANCH  11  12
HETATM   12  C   UNL     1     -43.091 -55.110  14.966  1.00  0.00     0.163 C 
HETATM   13  C   UNL     1     -41.829 -54.737  15.714  1.00  0.00     0.033 C 
ENDBRANCH  11  12
ENDBRANCH   5  11
ENDBRANCH   1   3
BRANCH   1  14
HETATM   14  C   UNL     1     -43.265 -48.586  12.346  1.00  0.00     0.236 C 
HETATM   15  C   UNL     1     -42.636 -48.114  13.656  1.00  0.00     0.044 C 
BRANCH  14  16
HETATM   16  C   UNL     1     -42.377 -48.270  11.122  1.00  0.00     0.184 C 
BRANCH  16  17
HETATM   17  N   UNL     1     -43.109 -47.886   9.929  1.00  0.00    -0.285 N 
HETATM   18  C   UNL     1     -44.299 -47.239   9.837  1.00  0.00     0.201 A 
HETATM   19  N   UNL     1     -44.658 -47.139   8.577  1.00  0.00    -0.346 N 
HETATM   20  C   UNL     1     -43.624 -47.744   7.924  1.00  0.00     0.198 A 
ATOM     21  HN  UNL     1     -45.499 -46.715   8.185  1.00  0.00     0.167 HD
HETATM   22  N   UNL     1     -42.625 -48.168   8.704  1.00  0.00    -0.293 N 
ATOM     23  HN  UNL     1     -41.735 -48.592   8.442  1.00  0.00     0.188 HD
ENDBRANCH  16  17
ENDBRANCH  14  16
ENDBRANCH   1  14
TORSDOF 6
ENDMDL
MODEL 2
REMARK VINA RESULT:      -5.5      1.740      2.359
REMARK  6 active torsions:
REMARK  status: ('A' for Active; 'I' for Inactive)
REMARK    1  A    between atoms: C_2  and  O_3 
REMARK    2  A    between atoms: O_3  and  C_4 
REMARK    3  A    between atoms: C_6  and  N_7 
REMARK    4  A    between atoms: N_7  and  C_8 
REMARK    5  A    between atoms: C_8  and  C_10 
REMARK    6  A    between atoms: C_10  and  N_11 
ROOT
HETATM    1  N   UNL     1     -42.419 -49.841  11.785  1.00  0.00     0.095 N 
HETATM    2  H   UNL     1     -43.122 -50.573  11.656  1.00  0.00     0.317 HD
ENDROOT
BRANCH   1   3
HETATM    3  C   UNL     1     -41.367 -50.283  12.698  1.00  0.00     0.234 C 
HETATM    4  C   UNL     1     -40.175 -51.014  12.046  1.00  0.00     0.069 C 
HETATM    5  C   UNL     1     -40.203 -51.953  13.281  1.00  0.00     0.134 C 
HETATM    6  C   UNL     1     -41.760 -51.703  13.290  1.00  0.00     0.017 C 
HETATM    7  C   UNL     1     -42.472 -51.655  14.641  1.00  0.00     0.014 C 
HETATM    8  C   UNL     1     -42.582 -52.698  12.454  1.00  0.00     0.014 C 
HETATM    9  C   UNL     1     -43.917 -52.091  14.361  1.00  0.00     0.001 C 
HETATM   10  C   UNL     1     -44.013 -52.415  12.876  1.00  0.00     0.001 C 
BRANCH   5  11
HETATM   11  O   UNL     1     -39.768 -53.321  13.099  1.00  0.00    -0.385 OA
BRANCH  11  12
HETATM   12  C   UNL     1     -39.108 -53.921  14.208  1.00  0.00     0.163 C 
HETATM   13  C   UNL     1     -40.141 -54.596  15.085  1.00  0.00     0.033 C 
ENDBRANCH  11  12
ENDBRANCH   5  11
ENDBRANCH   1   3
BRANCH   1  14
HETATM   14  C   UNL     1     -43.109 -48.584  12.121  1.00  0.00     0.236 C 
HETATM   15  C   UNL     1     -42.825 -48.086  13.538  1.00  0.00     0.044 C 
BRANCH  14  16
HETATM   16  C   UNL     1     -42.972 -47.463  11.067  1.00  0.00     0.184 C 
BRANCH  16  17
HETATM   17  N   UNL     1     -43.775 -47.658   9.873  1.00  0.00    -0.285 N 
HETATM   18  C   UNL     1     -43.386 -47.609   8.573  1.00  0.00     0.201 A 
HETATM   19  N   UNL     1     -44.427 -47.772   7.789  1.00  0.00    -0.346 N 
HETATM   20  C   UNL     1     -45.449 -47.930   8.678  1.00  0.00     0.198 A 
ATOM     21  HN  UNL     1     -44.462 -47.778   6.769  1.00  0.00     0.167 HD
HETATM   22  N   UNL     1     -45.093 -47.924   9.966  1.00  0.00    -0.293 N 
ATOM     23  HN  UNL     1     -45.664 -48.079  10.796  1.00  0.00     0.188 HD
ENDBRANCH  16  17
ENDBRANCH  14  16
ENDBRANCH   1  14
TORSDOF 6
ENDMDL
MODEL 3
REMARK VINA RESULT:      -5.5      1.738      3.049
REMARK  6 active torsions:
REMARK  status: ('A' for Active; 'I' for Inactive)
REMARK    1  A    between atoms: C_2  and  O_3 
REMARK    2  A    between atoms: O_3  and  C_4 
REMARK    3  A    between atoms: C_6  and  N_7 
REMARK    4  A    between atoms: N_7  and  C_8 
REMARK    5  A    between atoms: C_8  and  C_10 
REMARK    6  A    between atoms: C_10  and  N_11 
ROOT
HETATM    1  N   UNL     1     -42.393 -50.859  12.122  1.00  0.00     0.095 N 
HETATM    2  H   UNL     1     -42.545 -50.962  11.116  1.00  0.00     0.317 HD
ENDROOT
BRANCH   1   3
HETATM    3  C   UNL     1     -43.650 -50.580  12.814  1.00  0.00     0.234 C 
HETATM    4  C   UNL     1     -43.523 -49.851  14.168  1.00  0.00     0.069 C 
HETATM    5  C   UNL     1     -44.661 -50.783  14.664  1.00  0.00     0.134 C 
HETATM    6  C   UNL     1     -44.059 -51.852  13.673  1.00  0.00     0.017 C 
HETATM    7  C   UNL     1     -45.024 -52.808  12.974  1.00  0.00     0.014 C 
HETATM    8  C   UNL     1     -42.981 -52.765  14.281  1.00  0.00     0.014 C 
HETATM    9  C   UNL     1     -44.208 -54.074  12.678  1.00  0.00     0.001 C 
HETATM   10  C   UNL     1     -42.808 -53.851  13.233  1.00  0.00     0.001 C 
BRANCH   5  11
HETATM   11  O   UNL     1     -44.681 -51.138  16.066  1.00  0.00    -0.385 OA
BRANCH  11  12
HETATM   12  C   UNL     1     -45.910 -50.920  16.750  1.00  0.00     0.163 C 
HETATM   13  C   UNL     1     -47.048 -51.401  15.876  1.00  0.00     0.033 C 
ENDBRANCH  11  12
ENDBRANCH   5  11
ENDBRANCH   1   3
BRANCH   1  14
HETATM   14  C   UNL     1     -41.291 -49.906  12.334  1.00  0.00     0.236 C 
HETATM   15  C   UNL     1     -40.044 -50.533  12.955  1.00  0.00     0.044 C 
BRANCH  14  16
HETATM   16  C   UNL     1     -40.955 -49.016  11.116  1.00  0.00     0.184 C 
BRANCH  16  17
HETATM   17  N   UNL     1     -42.048 -48.175  10.663  1.00  0.00    -0.285 N 
HETATM   18  C   UNL     1     -42.803 -47.306  11.383  1.00  0.00     0.201 A 
HETATM   19  N   UNL     1     -43.738 -46.787  10.621  1.00  0.00    -0.346 N 
HETATM   20  C   UNL     1     -43.499 -47.377   9.413  1.00  0.00     0.198 A 
ATOM     21  HN  UNL     1     -44.461 -46.112  10.868  1.00  0.00     0.167 HD
HETATM   22  N   UNL     1     -42.441 -48.192   9.374  1.00  0.00    -0.293 N 
ATOM     23  HN  UNL     1     -42.039 -48.693   8.582  1.00  0.00     0.188 HD
ENDBRANCH  16  17
ENDBRANCH  14  16
ENDBRANCH   1  14
TORSDOF 6
ENDMDL
MODEL 4
REMARK VINA RESULT:      -5.4      1.871      3.245
REMARK  6 active torsions:
REMARK  status: ('A' for Active; 'I' for Inactive)
REMARK    1  A    between atoms: C_2  and  O_3 
REMARK    2  A    between atoms: O_3  and  C_4 
REMARK    3  A    between atoms: C_6  and  N_7 
REMARK    4  A    between atoms: N_7  and  C_8 
REMARK    5  A    between atoms: C_8  and  C_10 
REMARK    6  A    between atoms: C_10  and  N_11 
ROOT
HETATM    1  N   UNL     1     -41.094 -50.953  12.311  1.00  0.00     0.095 N 
HETATM    2  H   UNL     1     -40.488 -51.155  11.512  1.00  0.00     0.317 HD
ENDROOT
BRANCH   1   3
HETATM    3  C   UNL     1     -42.225 -51.877  12.355  1.00  0.00     0.234 C 
HETATM    4  C   UNL     1     -43.444 -51.406  13.175  1.00  0.00     0.069 C 
HETATM    5  C   UNL     1     -43.562 -52.877  13.657  1.00  0.00     0.134 C 
HETATM    6  C   UNL     1     -41.991 -52.923  13.526  1.00  0.00     0.017 C 
HETATM    7  C   UNL     1     -41.347 -54.237  13.086  1.00  0.00     0.014 C 
HETATM    8  C   UNL     1     -41.222 -52.519  14.795  1.00  0.00     0.014 C 
HETATM    9  C   UNL     1     -39.934 -54.224  13.688  1.00  0.00     0.001 C 
HETATM   10  C   UNL     1     -39.794 -52.935  14.488  1.00  0.00     0.001 C 
BRANCH   5  11
HETATM   11  O   UNL     1     -44.109 -53.114  14.975  1.00  0.00    -0.385 OA
BRANCH  11  12
HETATM   12  C   UNL     1     -45.066 -54.163  15.078  1.00  0.00     0.163 C 
HETATM   13  C   UNL     1     -45.157 -54.873  13.744  1.00  0.00     0.033 C 
ENDBRANCH  11  12
ENDBRANCH   5  11
ENDBRANCH   1   3
BRANCH   1  14
HETATM   14  C   UNL     1     -41.408 -49.515  12.306  1.00  0.00     0.236 C 
HETATM   15  C   UNL     1     -40.764 -48.739  13.454  1.00  0.00     0.044 C 
BRANCH  14  16
HETATM   16  C   UNL     1     -41.219 -48.810  10.944  1.00  0.00     0.184 C 
BRANCH  16  17
HETATM   17  N   UNL     1     -42.415 -48.173  10.423  1.00  0.00    -0.285 N 
HETATM   18  C   UNL     1     -43.464 -47.649  11.109  1.00  0.00     0.201 A 
HETATM   19  N   UNL     1     -44.381 -47.227  10.269  1.00  0.00    -0.346 N 
HETATM   20  C   UNL     1     -43.827 -47.511   9.054  1.00  0.00     0.198 A 
ATOM     21  HN  UNL     1     -45.282 -46.794  10.473  1.00  0.00     0.167 HD
HETATM   22  N   UNL     1     -42.601 -48.040   9.095  1.00  0.00    -0.293 N 
ATOM     23  HN  UNL     1     -41.974 -48.279   8.327  1.00  0.00     0.188 HD
ENDBRANCH  16  17
ENDBRANCH  14  16
ENDBRANCH   1  14
TORSDOF 6
ENDMDL
MODEL 5
REMARK VINA RESULT:      -5.4      2.627      4.247
REMARK  6 active torsions:
REMARK  status: ('A' for Active; 'I' for Inactive)
REMARK    1  A    between atoms: C_2  and  O_3 
REMARK    2  A    between atoms: O_3  and  C_4 
REMARK    3  A    between atoms: C_6  and  N_7 
REMARK    4  A    between atoms: N_7  and  C_8 
REMARK    5  A    between atoms: C_8  and  C_10 
REMARK    6  A    between atoms: C_10  and  N_11 
ROOT
HETATM    1  N   UNL     1     -41.614 -48.353  12.178  1.00  0.00     0.095 N 
HETATM    2  H   UNL     1     -40.871 -48.024  12.799  1.00  0.00     0.317 HD
ENDROOT
BRANCH   1   3
HETATM    3  C   UNL     1     -41.349 -49.718  11.726  1.00  0.00     0.234 C 
HETATM    4  C   UNL     1     -42.111 -50.832  12.474  1.00  0.00     0.069 C 
HETATM    5  C   UNL     1     -40.799 -51.655  12.380  1.00  0.00     0.134 C 
HETATM    6  C   UNL     1     -40.058 -50.266  12.470  1.00  0.00     0.017 C 
HETATM    7  C   UNL     1     -38.754 -50.096  11.692  1.00  0.00     0.014 C 
HETATM    8  C   UNL     1     -39.721 -49.803  13.898  1.00  0.00     0.014 C 
HETATM    9  C   UNL     1     -37.953 -49.034  12.458  1.00  0.00     0.001 C 
HETATM   10  C   UNL     1     -38.778 -48.633  13.675  1.00  0.00     0.001 C 
BRANCH   5  11
HETATM   11  O   UNL     1     -40.522 -52.607  13.433  1.00  0.00    -0.385 OA
BRANCH  11  12
HETATM   12  C   UNL     1     -40.822 -53.968  13.143  1.00  0.00     0.163 C 
HETATM   13  C   UNL     1     -42.081 -54.360  13.886  1.00  0.00     0.033 C 
ENDBRANCH  11  12
ENDBRANCH   5  11
ENDBRANCH   1   3
BRANCH   1  14
HETATM   14  C   UNL     1     -41.837 -47.338  11.135  1.00  0.00     0.236 C 
HETATM   15  C   UNL     1     -40.630 -46.434  10.888  1.00  0.00     0.044 C 
BRANCH  14  16
HETATM   16  C   UNL     1     -42.445 -47.875   9.821  1.00  0.00     0.184 C 
BRANCH  16  17
HETATM   17  N   UNL     1     -43.731 -47.297   9.471  1.00  0.00    -0.285 N 
HETATM   18  C   UNL     1     -43.994 -46.080   8.931  1.00  0.00     0.201 A 
HETATM   19  N   UNL     1     -45.292 -45.907   8.829  1.00  0.00    -0.346 N 
HETATM   20  C   UNL     1     -45.789 -47.079   9.322  1.00  0.00     0.198 A 
ATOM     21  HN  UNL     1     -45.802 -45.099   8.472  1.00  0.00     0.167 HD
HETATM   22  N   UNL     1     -44.872 -47.984   9.676  1.00  0.00    -0.293 N 
ATOM     23  HN  UNL     1     -45.001 -48.939  10.012  1.00  0.00     0.188 HD
ENDBRANCH  16  17
ENDBRANCH  14  16
ENDBRANCH   1  14
TORSDOF 6
ENDMDL
MODEL 6
REMARK VINA RESULT:      -5.3      1.536      1.851
REMARK  6 active torsions:
REMARK  status: ('A' for Active; 'I' for Inactive)
REMARK    1  A    between atoms: C_2  and  O_3 
REMARK    2  A    between atoms: O_3  and  C_4 
REMARK    3  A    between atoms: C_6  and  N_7 
REMARK    4  A    between atoms: N_7  and  C_8 
REMARK    5  A    between atoms: C_8  and  C_10 
REMARK    6  A    between atoms: C_10  and  N_11 
ROOT
HETATM    1  N   UNL     1     -43.712 -49.994  12.511  1.00  0.00     0.095 N 
HETATM    2  H   UNL     1     -44.711 -49.795  12.605  1.00  0.00     0.317 HD
ENDROOT
BRANCH   1   3
HETATM    3  C   UNL     1     -43.255 -50.883  13.577  1.00  0.00     0.234 C 
HETATM    4  C   UNL     1     -42.369 -52.064  13.132  1.00  0.00     0.069 C 
HETATM    5  C   UNL     1     -43.142 -52.910  14.178  1.00  0.00     0.134 C 
HETATM    6  C   UNL     1     -44.372 -51.978  13.850  1.00  0.00     0.017 C 
HETATM    7  C   UNL     1     -45.336 -51.636  14.984  1.00  0.00     0.014 C 
HETATM    8  C   UNL     1     -45.275 -52.475  12.709  1.00  0.00     0.014 C 
HETATM    9  C   UNL     1     -46.686 -51.361  14.308  1.00  0.00     0.001 C 
HETATM   10  C   UNL     1     -46.498 -51.579  12.812  1.00  0.00     0.001 C 
BRANCH   5  11
HETATM   11  O   UNL     1     -43.310 -54.322  13.914  1.00  0.00    -0.385 OA
BRANCH  11  12
HETATM   12  C   UNL     1     -43.118 -55.195  15.022  1.00  0.00     0.163 C 
HETATM   13  C   UNL     1     -42.079 -54.593  15.943  1.00  0.00     0.033 C 
ENDBRANCH  11  12
ENDBRANCH   5  11
ENDBRANCH   1   3
BRANCH   1  14
HETATM   14  C   UNL     1     -42.994 -48.719  12.353  1.00  0.00     0.236 C 
HETATM   15  C   UNL     1     -42.365 -48.201  13.646  1.00  0.00     0.044 C 
BRANCH  14  16
HETATM   16  C   UNL     1     -42.011 -48.666  11.161  1.00  0.00     0.184 C 
BRANCH  16  17
HETATM   17  N   UNL     1     -41.410 -47.365  10.933  1.00  0.00    -0.285 N 
HETATM   18  C   UNL     1     -42.017 -46.197  10.600  1.00  0.00     0.201 A 
HETATM   19  N   UNL     1     -41.115 -45.261  10.416  1.00  0.00    -0.346 N 
HETATM   20  C   UNL     1     -39.946 -45.919  10.665  1.00  0.00     0.198 A 
ATOM     21  HN  UNL     1     -41.253 -44.285  10.152  1.00  0.00     0.167 HD
HETATM   22  N   UNL     1     -40.077 -47.195  11.040  1.00  0.00    -0.293 N 
ATOM     23  HN  UNL     1     -39.361 -47.861  11.330  1.00  0.00     0.188 HD
ENDBRANCH  16  17
ENDBRANCH  14  16
ENDBRANCH   1  14
TORSDOF 6
ENDMDL
MODEL 7
REMARK VINA RESULT:      -5.3      3.751      7.309
REMARK  6 active torsions:
REMARK  status: ('A' for Active; 'I' for Inactive)
REMARK    1  A    between atoms: C_2  and  O_3 
REMARK    2  A    between atoms: O_3  and  C_4 
REMARK    3  A    between atoms: C_6  and  N_7 
REMARK    4  A    between atoms: N_7  and  C_8 
REMARK    5  A    between atoms: C_8  and  C_10 
REMARK    6  A    between atoms: C_10  and  N_11 
ROOT
HETATM    1  N   UNL     1     -40.829 -51.329  11.422  1.00  0.00     0.095 N 
HETATM    2  H   UNL     1     -39.824 -51.504  11.350  1.00  0.00     0.317 HD
ENDROOT
BRANCH   1   3
HETATM    3  C   UNL     1     -41.090 -49.979  11.915  1.00  0.00     0.234 C 
HETATM    4  C   UNL     1     -41.218 -48.883  10.836  1.00  0.00     0.069 C 
HETATM    5  C   UNL     1     -40.433 -47.968  11.813  1.00  0.00     0.134 C 
HETATM    6  C   UNL     1     -39.708 -49.288  12.282  1.00  0.00     0.017 C 
HETATM    7  C   UNL     1     -39.310 -49.404  13.753  1.00  0.00     0.014 C 
HETATM    8  C   UNL     1     -38.428 -49.636  11.505  1.00  0.00     0.014 C 
HETATM    9  C   UNL     1     -38.103 -50.353  13.778  1.00  0.00     0.001 C 
HETATM   10  C   UNL     1     -37.800 -50.741  12.337  1.00  0.00     0.001 C 
BRANCH   5  11
HETATM   11  O   UNL     1     -39.594 -46.935  11.245  1.00  0.00    -0.385 OA
BRANCH  11  12
HETATM   12  C   UNL     1     -39.906 -45.598  11.620  1.00  0.00     0.163 C 
HETATM   13  C   UNL     1     -39.827 -44.716  10.392  1.00  0.00     0.033 C 
ENDBRANCH  11  12
ENDBRANCH   5  11
ENDBRANCH   1   3
BRANCH   1  14
HETATM   14  C   UNL     1     -41.445 -52.440  12.165  1.00  0.00     0.236 C 
HETATM   15  C   UNL     1     -40.438 -53.325  12.898  1.00  0.00     0.044 C 
BRANCH  14  16
HETATM   16  C   UNL     1     -42.638 -52.042  13.064  1.00  0.00     0.184 C 
BRANCH  16  17
HETATM   17  N   UNL     1     -43.505 -53.146  13.439  1.00  0.00    -0.285 N 
HETATM   18  C   UNL     1     -44.345 -53.867  12.654  1.00  0.00     0.201 A 
HETATM   19  N   UNL     1     -45.006 -54.735  13.386  1.00  0.00    -0.346 N 
HETATM   20  C   UNL     1     -44.513 -54.506  14.638  1.00  0.00     0.198 A 
ATOM     21  HN  UNL     1     -45.711 -55.411  13.092  1.00  0.00     0.167 HD
HETATM   22  N   UNL     1     -43.551 -53.581  14.713  1.00  0.00    -0.293 N 
ATOM     23  HN  UNL     1     -43.000 -53.285  15.519  1.00  0.00     0.188 HD
ENDBRANCH  16  17
ENDBRANCH  14  16
ENDBRANCH   1  14
TORSDOF 6
ENDMDL
MODEL 8
REMARK VINA RESULT:      -5.1      3.105      4.186
REMARK  6 active torsions:
REMARK  status: ('A' for Active; 'I' for Inactive)
REMARK    1  A    between atoms: C_2  and  O_3 
REMARK    2  A    between atoms: O_3  and  C_4 
REMARK    3  A    between atoms: C_6  and  N_7 
REMARK    4  A    between atoms: N_7  and  C_8 
REMARK    5  A    between atoms: C_8  and  C_10 
REMARK    6  A    between atoms: C_10  and  N_11 
ROOT
HETATM    1  N   UNL     1     -43.073 -53.257  13.531  1.00  0.00     0.095 N 
HETATM    2  H   UNL     1     -43.684 -52.678  12.950  1.00  0.00     0.317 HD
ENDROOT
BRANCH   1   3
HETATM    3  C   UNL     1     -43.396 -53.096  14.947  1.00  0.00     0.234 C 
HETATM    4  C   UNL     1     -43.502 -54.401  15.764  1.00  0.00     0.069 C 
HETATM    5  C   UNL     1     -44.706 -53.735  16.483  1.00  0.00     0.134 C 
HETATM    6  C   UNL     1     -44.972 -53.005  15.111  1.00  0.00     0.017 C 
HETATM    7  C   UNL     1     -45.528 -51.583  15.150  1.00  0.00     0.014 C 
HETATM    8  C   UNL     1     -45.904 -53.759  14.146  1.00  0.00     0.014 C 
HETATM    9  C   UNL     1     -46.302 -51.406  13.836  1.00  0.00     0.001 C 
HETATM   10  C   UNL     1     -46.215 -52.724  13.078  1.00  0.00     0.001 C 
BRANCH   5  11
HETATM   11  O   UNL     1     -45.759 -54.597  16.974  1.00  0.00    -0.385 OA
BRANCH  11  12
HETATM   12  C   UNL     1     -46.128 -54.422  18.338  1.00  0.00     0.163 C 
HETATM   13  C   UNL     1     -46.565 -52.987  18.545  1.00  0.00     0.033 C 
ENDBRANCH  11  12
ENDBRANCH   5  11
ENDBRANCH   1   3
BRANCH   1  14
HETATM   14  C   UNL     1     -41.677 -53.009  13.134  1.00  0.00     0.236 C 
HETATM   15  C   UNL     1     -40.796 -54.257  13.170  1.00  0.00     0.044 C 
BRANCH  14  16
HETATM   16  C   UNL     1     -41.505 -52.208  11.824  1.00  0.00     0.184 C 
BRANCH  16  17
HETATM   17  N   UNL     1     -40.758 -50.971  11.968  1.00  0.00    -0.285 N 
HETATM   18  C   UNL     1     -40.304 -50.383  13.105  1.00  0.00     0.201 A 
HETATM   19  N   UNL     1     -39.732 -49.236  12.817  1.00  0.00    -0.346 N 
HETATM   20  C   UNL     1     -39.854 -49.174  11.459  1.00  0.00     0.198 A 
ATOM     21  HN  UNL     1     -39.303 -48.561  13.450  1.00  0.00     0.167 HD
HETATM   22  N   UNL     1     -40.425 -50.238  10.887  1.00  0.00    -0.293 N 
ATOM     23  HN  UNL     1     -40.570 -50.442   9.899  1.00  0.00     0.188 HD
ENDBRANCH  16  17
ENDBRANCH  14  16
ENDBRANCH   1  14
TORSDOF 6
ENDMDL
MODEL 9
REMARK VINA RESULT:      -5.1      3.019      3.858
REMARK  6 active torsions:
REMARK  status: ('A' for Active; 'I' for Inactive)
REMARK    1  A    between atoms: C_2  and  O_3 
REMARK    2  A    between atoms: O_3  and  C_4 
REMARK    3  A    between atoms: C_6  and  N_7 
REMARK    4  A    between atoms: N_7  and  C_8 
REMARK    5  A    between atoms: C_8  and  C_10 
REMARK    6  A    between atoms: C_10  and  N_11 
ROOT
HETATM    1  N   UNL     1     -39.145 -48.852  12.083  1.00  0.00     0.095 N 
HETATM    2  H   UNL     1     -39.766 -49.350  11.441  1.00  0.00     0.317 HD
ENDROOT
BRANCH   1   3
HETATM    3  C   UNL     1     -38.723 -49.720  13.180  1.00  0.00     0.234 C 
HETATM    4  C   UNL     1     -37.781 -50.879  12.793  1.00  0.00     0.069 C 
HETATM    5  C   UNL     1     -38.587 -51.740  13.802  1.00  0.00     0.134 C 
HETATM    6  C   UNL     1     -39.822 -50.845  13.400  1.00  0.00     0.017 C 
HETATM    7  C   UNL     1     -40.856 -50.523  14.477  1.00  0.00     0.014 C 
HETATM    8  C   UNL     1     -40.648 -51.375  12.215  1.00  0.00     0.014 C 
HETATM    9  C   UNL     1     -42.175 -50.290  13.725  1.00  0.00     0.001 C 
HETATM   10  C   UNL     1     -41.898 -50.513  12.244  1.00  0.00     0.001 C 
BRANCH   5  11
HETATM   11  O   UNL     1     -38.701 -53.158  13.540  1.00  0.00    -0.385 OA
BRANCH  11  12
HETATM   12  C   UNL     1     -39.062 -53.974  14.649  1.00  0.00     0.163 C 
HETATM   13  C   UNL     1     -40.536 -54.306  14.552  1.00  0.00     0.033 C 
ENDBRANCH  11  12
ENDBRANCH   5  11
ENDBRANCH   1   3
BRANCH   1  14
HETATM   14  C   UNL     1     -39.781 -47.576  12.451  1.00  0.00     0.236 C 
HETATM   15  C   UNL     1     -39.111 -46.871  13.630  1.00  0.00     0.044 C 
BRANCH  14  16
HETATM   16  C   UNL     1     -40.049 -46.616  11.270  1.00  0.00     0.184 C 
BRANCH  16  17
HETATM   17  N   UNL     1     -41.375 -46.728  10.691  1.00  0.00    -0.285 N 
HETATM   18  C   UNL     1     -42.425 -45.874  10.804  1.00  0.00     0.201 A 
HETATM   19  N   UNL     1     -43.473 -46.369  10.186  1.00  0.00    -0.346 N 
HETATM   20  C   UNL     1     -42.998 -47.549   9.692  1.00  0.00     0.198 A 
ATOM     21  HN  UNL     1     -44.408 -45.971  10.098  1.00  0.00     0.167 HD
HETATM   22  N   UNL     1     -41.704 -47.788   9.927  1.00  0.00    -0.293 N 
ATOM     23  HN  UNL     1     -41.122 -48.564   9.612  1.00  0.00     0.188 HD
ENDBRANCH  16  17
ENDBRANCH  14  16
ENDBRANCH   1  14
TORSDOF 6
ENDMDL
