MODEL 1
REMARK VINA RESULT:      -6.6      0.000      0.000
REMARK  6 active torsions:
REMARK  status: ('A' for Active; 'I' for Inactive)
REMARK    1  A    between atoms: N_8  and  C_9 
REMARK    2  A    between atoms: C_9  and  C_10 
REMARK    3  A    between atoms: C_10  and  O_11 
REMARK    4  A    between atoms: C_10  and  C_12 
REMARK    5  A    between atoms: C_12  and  N_13 
REMARK    6  A    between atoms: C_17  and  O_18 
ROOT
HETATM    1  C   UNL     1     -41.898 -50.210  12.180  1.00  0.00     0.163 C 
ENDROOT
BRANCH   1   2
HETATM    2  N   UNL     1     -42.232 -51.598  12.435  1.00  0.00    -0.339 N 
HETATM    3  C   UNL     1     -41.433 -52.673  12.164  1.00  0.00     0.184 A 
HETATM    4  N   UNL     1     -41.987 -53.799  12.552  1.00  0.00    -0.350 N 
HETATM    5  C   UNL     1     -43.209 -53.441  13.065  1.00  0.00     0.060 A 
ATOM      6  HN  UNL     1     -41.593 -54.738  12.486  1.00  0.00     0.166 HD
HETATM    7  C   UNL     1     -44.211 -54.241  13.633  1.00  0.00     0.039 A 
HETATM    8  C   UNL     1     -43.404 -52.068  12.981  1.00  0.00     0.062 A 
HETATM    9  C   UNL     1     -45.395 -53.643  14.111  1.00  0.00    -0.054 A 
HETATM   10  C   UNL     1     -46.440 -54.517  14.751  1.00  0.00     0.049 C 
HETATM   11  C   UNL     1     -45.575 -52.247  13.999  1.00  0.00    -0.054 A 
HETATM   12  C   UNL     1     -44.577 -51.442  13.419  1.00  0.00     0.039 A 
HETATM   13  C   UNL     1     -46.830 -51.584  14.506  1.00  0.00     0.049 C 
ENDBRANCH   1   2
BRANCH   1  14
HETATM   14  C   UNL     1     -40.452 -49.981  11.694  1.00  0.00     0.164 C 
BRANCH  14  15
HETATM   15  O   UNL     1     -40.364 -50.021  10.265  1.00  0.00    -0.392 OA
HETATM   16  H   UNL     1     -39.744 -50.733  10.017  1.00  0.00     0.210 HD
ENDBRANCH  14  15
BRANCH  14  17
HETATM   17  C   UNL     1     -39.786 -48.690  12.238  1.00  0.00     0.305 C 
BRANCH  17  18
HETATM   18  N   UNL     1     -40.545 -47.482  11.904  1.00  0.00     0.093 N 
HETATM   19  C   UNL     1     -40.982 -46.711  13.075  1.00  0.00     0.272 C 
HETATM   20  C   UNL     1     -42.055 -45.722  12.621  1.00  0.00     0.033 C 
HETATM   21  C   UNL     1     -41.534 -44.783  11.538  1.00  0.00     0.035 C 
HETATM   22  C   UNL     1     -40.818 -45.538  10.418  1.00  0.00     0.146 C 
HETATM   23  C   UNL     1     -39.831 -46.589  10.977  1.00  0.00     0.303 C 
BRANCH  22  24
HETATM   24  O   UNL     1     -40.149 -44.618   9.562  1.00  0.00    -0.394 OA
HETATM   25  H   UNL     1     -39.402 -45.076   9.144  1.00  0.00     0.210 HD
ENDBRANCH  22  24
ENDBRANCH  17  18
ENDBRANCH  14  17
ENDBRANCH   1  14
TORSDOF 6
ENDMDL
MODEL 2
REMARK VINA RESULT:      -6.6      2.634      7.091
REMARK  6 active torsions:
REMARK  status: ('A' for Active; 'I' for Inactive)
REMARK    1  A    between atoms: N_8  and  C_9 
REMARK    2  A    between atoms: C_9  and  C_10 
REMARK    3  A    between atoms: C_10  and  O_11 
REMARK    4  A    between atoms: C_10  and  C_12 
REMARK    5  A    between atoms: C_12  and  N_13 
REMARK    6  A    between atoms: C_17  and  O_18 
ROOT
HETATM    1  C   UNL     1     -40.088 -51.527  12.839  1.00  0.00     0.163 C 
ENDROOT
BRANCH   1   2
HETATM    2  N   UNL     1     -40.164 -50.202  12.256  1.00  0.00    -0.339 N 
HETATM    3  C   UNL     1     -40.661 -49.903  11.019  1.00  0.00     0.184 A 
HETATM    4  N   UNL     1     -40.644 -48.609  10.789  1.00  0.00    -0.350 N 
HETATM    5  C   UNL     1     -40.083 -48.052  11.911  1.00  0.00     0.060 A 
ATOM      6  HN  UNL     1     -40.977 -48.123   9.956  1.00  0.00     0.166 HD
HETATM    7  C   UNL     1     -39.835 -46.705  12.214  1.00  0.00     0.039 A 
HETATM    8  C   UNL     1     -39.746 -49.029  12.840  1.00  0.00     0.062 A 
HETATM    9  C   UNL     1     -39.252 -46.363  13.451  1.00  0.00    -0.054 A 
HETATM   10  C   UNL     1     -39.030 -44.909  13.770  1.00  0.00     0.049 C 
HETATM   11  C   UNL     1     -38.904 -47.377  14.371  1.00  0.00    -0.054 A 
HETATM   12  C   UNL     1     -39.141 -48.730  14.066  1.00  0.00     0.039 A 
HETATM   13  C   UNL     1     -38.284 -47.036  15.701  1.00  0.00     0.049 C 
ENDBRANCH   1   2
BRANCH   1  14
HETATM   14  C   UNL     1     -41.166 -52.509  12.334  1.00  0.00     0.164 C 
BRANCH  14  15
HETATM   15  O   UNL     1     -40.631 -53.436  11.383  1.00  0.00    -0.392 OA
HETATM   16  H   UNL     1     -41.031 -53.247  10.513  1.00  0.00     0.210 HD
ENDBRANCH  14  15
BRANCH  14  17
HETATM   17  C   UNL     1     -41.924 -53.266  13.456  1.00  0.00     0.305 C 
BRANCH  17  18
HETATM   18  N   UNL     1     -43.297 -52.785  13.631  1.00  0.00     0.093 N 
HETATM   19  C   UNL     1     -43.385 -51.409  14.137  1.00  0.00     0.272 C 
HETATM   20  C   UNL     1     -44.814 -51.173  14.627  1.00  0.00     0.033 C 
HETATM   21  C   UNL     1     -45.834 -51.390  13.515  1.00  0.00     0.035 C 
HETATM   22  C   UNL     1     -45.603 -52.706  12.771  1.00  0.00     0.146 C 
HETATM   23  C   UNL     1     -44.112 -52.904  12.411  1.00  0.00     0.303 C 
BRANCH  22  24
HETATM   24  O   UNL     1     -46.417 -52.754  11.604  1.00  0.00    -0.394 OA
HETATM   25  H   UNL     1     -45.951 -52.295  10.886  1.00  0.00     0.210 HD
ENDBRANCH  22  24
ENDBRANCH  17  18
ENDBRANCH  14  17
ENDBRANCH   1  14
TORSDOF 6
ENDMDL
MODEL 3
REMARK VINA RESULT:      -6.6      2.375      3.472
REMARK  6 active torsions:
REMARK  status: ('A' for Active; 'I' for Inactive)
REMARK    1  A    between atoms: N_8  and  C_9 
REMARK    2  A    between atoms: C_9  and  C_10 
REMARK    3  A    between atoms: C_10  and  O_11 
REMARK    4  A    between atoms: C_10  and  C_12 
REMARK    5  A    between atoms: C_12  and  N_13 
REMARK    6  A    between atoms: C_17  and  O_18 
ROOT
HETATM    1  C   UNL     1     -41.812 -50.201  12.128  1.00  0.00     0.163 C 
ENDROOT
BRANCH   1   2
HETATM    2  N   UNL     1     -42.173 -51.580  12.395  1.00  0.00    -0.339 N 
HETATM    3  C   UNL     1     -41.395 -52.672  12.130  1.00  0.00     0.184 A 
HETATM    4  N   UNL     1     -41.970 -53.784  12.528  1.00  0.00    -0.350 N 
HETATM    5  C   UNL     1     -43.183 -53.399  13.041  1.00  0.00     0.060 A 
ATOM      6  HN  UNL     1     -41.595 -54.731  12.469  1.00  0.00     0.166 HD
HETATM    7  C   UNL     1     -44.199 -54.175  13.617  1.00  0.00     0.039 A 
HETATM    8  C   UNL     1     -43.352 -52.023  12.947  1.00  0.00     0.062 A 
HETATM    9  C   UNL     1     -45.371 -53.551  14.093  1.00  0.00    -0.054 A 
HETATM   10  C   UNL     1     -46.431 -54.399  14.742  1.00  0.00     0.049 C 
HETATM   11  C   UNL     1     -45.524 -52.152  13.971  1.00  0.00    -0.054 A 
HETATM   12  C   UNL     1     -44.511 -51.371  13.383  1.00  0.00     0.039 A 
HETATM   13  C   UNL     1     -46.764 -51.462  14.476  1.00  0.00     0.049 C 
ENDBRANCH   1   2
BRANCH   1  14
HETATM   14  C   UNL     1     -40.360 -50.002  11.648  1.00  0.00     0.164 C 
BRANCH  14  15
HETATM   15  O   UNL     1     -40.284 -49.916  10.220  1.00  0.00    -0.392 OA
HETATM   16  H   UNL     1     -39.980 -50.777   9.877  1.00  0.00     0.210 HD
ENDBRANCH  14  15
BRANCH  14  17
HETATM   17  C   UNL     1     -39.624 -48.803  12.299  1.00  0.00     0.305 C 
BRANCH  17  18
HETATM   18  N   UNL     1     -38.891 -49.182  13.510  1.00  0.00     0.093 N 
HETATM   19  C   UNL     1     -38.482 -50.592  13.541  1.00  0.00     0.272 C 
HETATM   20  C   UNL     1     -38.083 -50.942  14.975  1.00  0.00     0.033 C 
HETATM   21  C   UNL     1     -36.948 -50.054  15.474  1.00  0.00     0.035 C 
HETATM   22  C   UNL     1     -37.215 -48.573  15.208  1.00  0.00     0.146 C 
HETATM   23  C   UNL     1     -37.715 -48.333  13.765  1.00  0.00     0.303 C 
BRANCH  22  24
HETATM   24  O   UNL     1     -36.041 -47.812  15.471  1.00  0.00    -0.394 OA
HETATM   25  H   UNL     1     -36.273 -47.093  16.082  1.00  0.00     0.210 HD
ENDBRANCH  22  24
ENDBRANCH  17  18
ENDBRANCH  14  17
ENDBRANCH   1  14
TORSDOF 6
ENDMDL
MODEL 4
REMARK VINA RESULT:      -6.4      3.863      7.052
REMARK  6 active torsions:
REMARK  status: ('A' for Active; 'I' for Inactive)
REMARK    1  A    between atoms: N_8  and  C_9 
REMARK    2  A    between atoms: C_9  and  C_10 
REMARK    3  A    between atoms: C_10  and  O_11 
REMARK    4  A    between atoms: C_10  and  C_12 
REMARK    5  A    between atoms: C_12  and  N_13 
REMARK    6  A    between atoms: C_17  and  O_18 
ROOT
HETATM    1  C   UNL     1     -41.417 -54.480  14.564  1.00  0.00     0.163 C 
ENDROOT
BRANCH   1   2
HETATM    2  N   UNL     1     -41.076 -53.511  13.541  1.00  0.00    -0.339 N 
HETATM    3  C   UNL     1     -41.593 -53.473  12.276  1.00  0.00     0.184 A 
HETATM    4  N   UNL     1     -41.130 -52.450  11.594  1.00  0.00    -0.350 N 
HETATM    5  C   UNL     1     -40.253 -51.820  12.442  1.00  0.00     0.060 A 
ATOM      6  HN  UNL     1     -41.371 -52.182  10.640  1.00  0.00     0.166 HD
HETATM    7  C   UNL     1     -39.484 -50.665  12.238  1.00  0.00     0.039 A 
HETATM    8  C   UNL     1     -40.176 -52.478  13.663  1.00  0.00     0.062 A 
HETATM    9  C   UNL     1     -38.651 -50.188  13.270  1.00  0.00    -0.054 A 
HETATM   10  C   UNL     1     -37.864 -48.927  13.042  1.00  0.00     0.049 C 
HETATM   11  C   UNL     1     -38.579 -50.885  14.497  1.00  0.00    -0.054 A 
HETATM   12  C   UNL     1     -39.341 -52.051  14.702  1.00  0.00     0.039 A 
HETATM   13  C   UNL     1     -37.700 -50.394  15.617  1.00  0.00     0.049 C 
ENDBRANCH   1   2
BRANCH   1  14
HETATM   14  C   UNL     1     -42.931 -54.638  14.815  1.00  0.00     0.164 C 
BRANCH  14  15
HETATM   15  O   UNL     1     -43.246 -55.932  15.340  1.00  0.00    -0.392 OA
HETATM   16  H   UNL     1     -43.918 -56.341  14.763  1.00  0.00     0.210 HD
ENDBRANCH  14  15
BRANCH  14  17
HETATM   17  C   UNL     1     -43.557 -53.530  15.703  1.00  0.00     0.305 C 
BRANCH  17  18
HETATM   18  N   UNL     1     -44.790 -52.982  15.133  1.00  0.00     0.093 N 
HETATM   19  C   UNL     1     -45.117 -51.632  15.609  1.00  0.00     0.272 C 
HETATM   20  C   UNL     1     -46.575 -51.340  15.252  1.00  0.00     0.033 C 
HETATM   21  C   UNL     1     -46.817 -51.441  13.750  1.00  0.00     0.035 C 
HETATM   22  C   UNL     1     -46.239 -52.727  13.158  1.00  0.00     0.146 C 
HETATM   23  C   UNL     1     -44.800 -52.990  13.660  1.00  0.00     0.303 C 
BRANCH  22  24
HETATM   24  O   UNL     1     -46.277 -52.668  11.737  1.00  0.00    -0.394 OA
HETATM   25  H   UNL     1     -47.173 -52.904  11.444  1.00  0.00     0.210 HD
ENDBRANCH  22  24
ENDBRANCH  17  18
ENDBRANCH  14  17
ENDBRANCH   1  14
TORSDOF 6
ENDMDL
MODEL 5
REMARK VINA RESULT:      -6.2      2.632      7.092
REMARK  6 active torsions:
REMARK  status: ('A' for Active; 'I' for Inactive)
REMARK    1  A    between atoms: N_8  and  C_9 
REMARK    2  A    between atoms: C_9  and  C_10 
REMARK    3  A    between atoms: C_10  and  O_11 
REMARK    4  A    between atoms: C_10  and  C_12 
REMARK    5  A    between atoms: C_12  and  N_13 
REMARK    6  A    between atoms: C_17  and  O_18 
ROOT
HETATM    1  C   UNL     1     -40.440 -52.264  13.653  1.00  0.00     0.163 C 
ENDROOT
BRANCH   1   2
HETATM    2  N   UNL     1     -39.739 -51.103  13.143  1.00  0.00    -0.339 N 
HETATM    3  C   UNL     1     -38.382 -50.944  13.104  1.00  0.00     0.184 A 
HETATM    4  N   UNL     1     -38.042 -49.808  12.540  1.00  0.00    -0.350 N 
HETATM    5  C   UNL     1     -39.229 -49.190  12.232  1.00  0.00     0.060 A 
ATOM      6  HN  UNL     1     -37.099 -49.459  12.368  1.00  0.00     0.166 HD
HETATM    7  C   UNL     1     -39.461 -47.957  11.605  1.00  0.00     0.039 A 
HETATM    8  C   UNL     1     -40.313 -49.966  12.623  1.00  0.00     0.062 A 
HETATM    9  C   UNL     1     -40.783 -47.526  11.378  1.00  0.00    -0.054 A 
HETATM   10  C   UNL     1     -41.008 -46.218  10.670  1.00  0.00     0.049 C 
HETATM   11  C   UNL     1     -41.868 -48.327  11.800  1.00  0.00    -0.054 A 
HETATM   12  C   UNL     1     -41.640 -49.560  12.440  1.00  0.00     0.039 A 
HETATM   13  C   UNL     1     -43.291 -47.890  11.566  1.00  0.00     0.049 C 
ENDBRANCH   1   2
BRANCH   1  14
HETATM   14  C   UNL     1     -41.352 -52.963  12.623  1.00  0.00     0.164 C 
BRANCH  14  15
HETATM   15  O   UNL     1     -40.597 -53.506  11.534  1.00  0.00    -0.392 OA
HETATM   16  H   UNL     1     -40.896 -53.076  10.710  1.00  0.00     0.210 HD
ENDBRANCH  14  15
BRANCH  14  17
HETATM   17  C   UNL     1     -42.288 -54.045  13.221  1.00  0.00     0.305 C 
BRANCH  17  18
HETATM   18  N   UNL     1     -43.592 -53.505  13.616  1.00  0.00     0.093 N 
HETATM   19  C   UNL     1     -44.052 -52.389  12.779  1.00  0.00     0.272 C 
HETATM   20  C   UNL     1     -45.199 -51.689  13.508  1.00  0.00     0.033 C 
HETATM   21  C   UNL     1     -46.353 -52.645  13.790  1.00  0.00     0.035 C 
HETATM   22  C   UNL     1     -45.876 -53.954  14.419  1.00  0.00     0.146 C 
HETATM   23  C   UNL     1     -44.648 -54.530  13.677  1.00  0.00     0.303 C 
BRANCH  22  24
HETATM   24  O   UNL     1     -46.941 -54.898  14.445  1.00  0.00    -0.394 OA
HETATM   25  H   UNL     1     -46.600 -55.754  14.139  1.00  0.00     0.210 HD
ENDBRANCH  22  24
ENDBRANCH  17  18
ENDBRANCH  14  17
ENDBRANCH   1  14
TORSDOF 6
ENDMDL
MODEL 6
REMARK VINA RESULT:      -6.0      5.257      6.994
REMARK  6 active torsions:
REMARK  status: ('A' for Active; 'I' for Inactive)
REMARK    1  A    between atoms: N_8  and  C_9 
REMARK    2  A    between atoms: C_9  and  C_10 
REMARK    3  A    between atoms: C_10  and  O_11 
REMARK    4  A    between atoms: C_10  and  C_12 
REMARK    5  A    between atoms: C_12  and  N_13 
REMARK    6  A    between atoms: C_17  and  O_18 
ROOT
HETATM    1  C   UNL     1     -45.645 -55.117  13.875  1.00  0.00     0.163 C 
ENDROOT
BRANCH   1   2
HETATM    2  N   UNL     1     -44.515 -54.355  13.380  1.00  0.00    -0.339 N 
HETATM    3  C   UNL     1     -44.527 -53.528  12.293  1.00  0.00     0.184 A 
HETATM    4  N   UNL     1     -43.367 -52.937  12.120  1.00  0.00    -0.350 N 
HETATM    5  C   UNL     1     -42.561 -53.428  13.118  1.00  0.00     0.060 A 
ATOM      6  HN  UNL     1     -43.117 -52.258  11.400  1.00  0.00     0.166 HD
HETATM    7  C   UNL     1     -41.223 -53.130  13.417  1.00  0.00     0.039 A 
HETATM    8  C   UNL     1     -43.245 -54.342  13.909  1.00  0.00     0.062 A 
HETATM    9  C   UNL     1     -40.596 -53.757  14.512  1.00  0.00    -0.054 A 
HETATM   10  C   UNL     1     -39.172 -53.395  14.837  1.00  0.00     0.049 C 
HETATM   11  C   UNL     1     -41.309 -54.695  15.291  1.00  0.00    -0.054 A 
HETATM   12  C   UNL     1     -42.649 -55.005  14.988  1.00  0.00     0.039 A 
HETATM   13  C   UNL     1     -40.663 -55.375  16.470  1.00  0.00     0.049 C 
ENDBRANCH   1   2
BRANCH   1  14
HETATM   14  C   UNL     1     -46.464 -54.403  14.971  1.00  0.00     0.164 C 
BRANCH  14  15
HETATM   15  O   UNL     1     -45.858 -54.549  16.261  1.00  0.00    -0.392 OA
HETATM   16  H   UNL     1     -46.185 -55.378  16.660  1.00  0.00     0.210 HD
ENDBRANCH  14  15
BRANCH  14  17
HETATM   17  C   UNL     1     -46.762 -52.909  14.683  1.00  0.00     0.305 C 
BRANCH  17  18
HETATM   18  N   UNL     1     -46.164 -52.013  15.676  1.00  0.00     0.093 N 
HETATM   19  C   UNL     1     -45.103 -51.152  15.139  1.00  0.00     0.272 C 
HETATM   20  C   UNL     1     -44.324 -50.565  16.316  1.00  0.00     0.033 C 
HETATM   21  C   UNL     1     -45.228 -49.766  17.247  1.00  0.00     0.035 C 
HETATM   22  C   UNL     1     -46.497 -50.535  17.617  1.00  0.00     0.146 C 
HETATM   23  C   UNL     1     -47.156 -51.179  16.375  1.00  0.00     0.303 C 
BRANCH  22  24
HETATM   24  O   UNL     1     -47.411 -49.672  18.285  1.00  0.00    -0.394 OA
HETATM   25  H   UNL     1     -48.227 -49.624  17.760  1.00  0.00     0.210 HD
ENDBRANCH  22  24
ENDBRANCH  17  18
ENDBRANCH  14  17
ENDBRANCH   1  14
TORSDOF 6
ENDMDL
MODEL 7
REMARK VINA RESULT:      -6.0      2.596      3.709
REMARK  6 active torsions:
REMARK  status: ('A' for Active; 'I' for Inactive)
REMARK    1  A    between atoms: N_8  and  C_9 
REMARK    2  A    between atoms: C_9  and  C_10 
REMARK    3  A    between atoms: C_10  and  O_11 
REMARK    4  A    between atoms: C_10  and  C_12 
REMARK    5  A    between atoms: C_12  and  N_13 
REMARK    6  A    between atoms: C_17  and  O_18 
ROOT
HETATM    1  C   UNL     1     -42.443 -52.399  12.573  1.00  0.00     0.163 C 
ENDROOT
BRANCH   1   2
HETATM    2  N   UNL     1     -43.779 -52.702  13.049  1.00  0.00    -0.339 N 
HETATM    3  C   UNL     1     -44.601 -53.673  12.551  1.00  0.00     0.184 A 
HETATM    4  N   UNL     1     -45.730 -53.743  13.219  1.00  0.00    -0.350 N 
HETATM    5  C   UNL     1     -45.647 -52.754  14.168  1.00  0.00     0.060 A 
ATOM      6  HN  UNL     1     -46.501 -54.392  13.067  1.00  0.00     0.166 HD
HETATM    7  C   UNL     1     -46.566 -52.388  15.163  1.00  0.00     0.039 A 
HETATM    8  C   UNL     1     -44.445 -52.064  14.069  1.00  0.00     0.062 A 
HETATM    9  C   UNL     1     -46.258 -51.333  16.046  1.00  0.00    -0.054 A 
HETATM   10  C   UNL     1     -47.242 -50.983  17.128  1.00  0.00     0.049 C 
HETATM   11  C   UNL     1     -45.036 -50.638  15.913  1.00  0.00    -0.054 A 
HETATM   12  C   UNL     1     -44.115 -50.995  14.909  1.00  0.00     0.039 A 
HETATM   13  C   UNL     1     -44.681 -49.510  16.847  1.00  0.00     0.049 C 
ENDBRANCH   1   2
BRANCH   1  14
HETATM   14  C   UNL     1     -41.327 -53.244  13.221  1.00  0.00     0.164 C 
BRANCH  14  15
HETATM   15  O   UNL     1     -40.687 -54.095  12.263  1.00  0.00    -0.392 OA
HETATM   16  H   UNL     1     -39.724 -54.056  12.416  1.00  0.00     0.210 HD
ENDBRANCH  14  15
BRANCH  14  17
HETATM   17  C   UNL     1     -40.269 -52.423  14.004  1.00  0.00     0.305 C 
BRANCH  17  18
HETATM   18  N   UNL     1     -40.049 -51.094  13.427  1.00  0.00     0.093 N 
HETATM   19  C   UNL     1     -39.818 -50.043  14.426  1.00  0.00     0.272 C 
HETATM   20  C   UNL     1     -39.982 -48.688  13.737  1.00  0.00     0.033 C 
HETATM   21  C   UNL     1     -39.013 -48.528  12.572  1.00  0.00     0.035 C 
HETATM   22  C   UNL     1     -39.023 -49.742  11.643  1.00  0.00     0.146 C 
HETATM   23  C   UNL     1     -38.959 -51.068  12.437  1.00  0.00     0.303 C 
BRANCH  22  24
HETATM   24  O   UNL     1     -37.946 -49.654  10.716  1.00  0.00    -0.394 OA
HETATM   25  H   UNL     1     -38.298 -49.807   9.823  1.00  0.00     0.210 HD
ENDBRANCH  22  24
ENDBRANCH  17  18
ENDBRANCH  14  17
ENDBRANCH   1  14
TORSDOF 6
ENDMDL
MODEL 8
REMARK VINA RESULT:      -5.9      3.848      7.059
REMARK  6 active torsions:
REMARK  status: ('A' for Active; 'I' for Inactive)
REMARK    1  A    between atoms: N_8  and  C_9 
REMARK    2  A    between atoms: C_9  and  C_10 
REMARK    3  A    between atoms: C_10  and  O_11 
REMARK    4  A    between atoms: C_10  and  C_12 
REMARK    5  A    between atoms: C_12  and  N_13 
REMARK    6  A    between atoms: C_17  and  O_18 
ROOT
HETATM    1  C   UNL     1     -39.551 -54.000  13.801  1.00  0.00     0.163 C 
ENDROOT
BRANCH   1   2
HETATM    2  N   UNL     1     -39.310 -53.304  15.050  1.00  0.00    -0.339 N 
HETATM    3  C   UNL     1     -39.482 -53.829  16.300  1.00  0.00     0.184 A 
HETATM    4  N   UNL     1     -39.135 -52.975  17.236  1.00  0.00    -0.350 N 
HETATM    5  C   UNL     1     -38.755 -51.840  16.564  1.00  0.00     0.060 A 
ATOM      6  HN  UNL     1     -39.145 -53.124  18.245  1.00  0.00     0.166 HD
HETATM    7  C   UNL     1     -38.280 -50.619  17.065  1.00  0.00     0.039 A 
HETATM    8  C   UNL     1     -38.879 -52.006  15.190  1.00  0.00     0.062 A 
HETATM    9  C   UNL     1     -37.934 -49.584  16.173  1.00  0.00    -0.054 A 
HETATM   10  C   UNL     1     -37.392 -48.296  16.732  1.00  0.00     0.049 C 
HETATM   11  C   UNL     1     -38.086 -49.773  14.782  1.00  0.00    -0.054 A 
HETATM   12  C   UNL     1     -38.573 -50.993  14.275  1.00  0.00     0.039 A 
HETATM   13  C   UNL     1     -37.720 -48.683  13.807  1.00  0.00     0.049 C 
ENDBRANCH   1   2
BRANCH   1  14
HETATM   14  C   UNL     1     -40.795 -53.514  13.029  1.00  0.00     0.164 C 
BRANCH  14  15
HETATM   15  O   UNL     1     -40.589 -53.561  11.613  1.00  0.00    -0.392 OA
HETATM   16  H   UNL     1     -39.660 -53.809  11.447  1.00  0.00     0.210 HD
ENDBRANCH  14  15
BRANCH  14  17
HETATM   17  C   UNL     1     -42.112 -54.242  13.406  1.00  0.00     0.305 C 
BRANCH  17  18
HETATM   18  N   UNL     1     -43.246 -53.323  13.538  1.00  0.00     0.093 N 
HETATM   19  C   UNL     1     -42.856 -51.925  13.756  1.00  0.00     0.272 C 
HETATM   20  C   UNL     1     -44.084 -51.159  14.247  1.00  0.00     0.033 C 
HETATM   21  C   UNL     1     -45.232 -51.234  13.247  1.00  0.00     0.035 C 
HETATM   22  C   UNL     1     -45.494 -52.666  12.778  1.00  0.00     0.146 C 
HETATM   23  C   UNL     1     -44.181 -53.393  12.403  1.00  0.00     0.303 C 
BRANCH  22  24
HETATM   24  O   UNL     1     -46.401 -52.660  11.681  1.00  0.00    -0.394 OA
HETATM   25  H   UNL     1     -46.440 -51.759  11.320  1.00  0.00     0.210 HD
ENDBRANCH  22  24
ENDBRANCH  17  18
ENDBRANCH  14  17
ENDBRANCH   1  14
TORSDOF 6
ENDMDL
MODEL 9
REMARK VINA RESULT:      -5.7      4.858      7.176
REMARK  6 active torsions:
REMARK  status: ('A' for Active; 'I' for Inactive)
REMARK    1  A    between atoms: N_8  and  C_9 
REMARK    2  A    between atoms: C_9  and  C_10 
REMARK    3  A    between atoms: C_10  and  O_11 
REMARK    4  A    between atoms: C_10  and  C_12 
REMARK    5  A    between atoms: C_12  and  N_13 
REMARK    6  A    between atoms: C_17  and  O_18 
ROOT
HETATM    1  C   UNL     1     -44.869 -53.896  12.868  1.00  0.00     0.163 C 
ENDROOT
BRANCH   1   2
HETATM    2  N   UNL     1     -43.444 -53.669  13.008  1.00  0.00    -0.339 N 
HETATM    3  C   UNL     1     -42.685 -52.858  12.212  1.00  0.00     0.184 A 
HETATM    4  N   UNL     1     -41.436 -52.815  12.615  1.00  0.00    -0.350 N 
HETATM    5  C   UNL     1     -41.377 -53.659  13.697  1.00  0.00     0.060 A 
ATOM      6  HN  UNL     1     -40.673 -52.271  12.212  1.00  0.00     0.166 HD
HETATM    7  C   UNL     1     -40.291 -53.982  14.523  1.00  0.00     0.039 A 
HETATM    8  C   UNL     1     -42.617 -54.232  13.952  1.00  0.00     0.062 A 
HETATM    9  C   UNL     1     -40.472 -54.877  15.597  1.00  0.00    -0.054 A 
HETATM   10  C   UNL     1     -39.301 -55.180  16.492  1.00  0.00     0.049 C 
HETATM   11  C   UNL     1     -41.739 -55.458  15.824  1.00  0.00    -0.054 A 
HETATM   12  C   UNL     1     -42.829 -55.145  14.991  1.00  0.00     0.039 A 
HETATM   13  C   UNL     1     -41.959 -56.414  16.968  1.00  0.00     0.049 C 
ENDBRANCH   1   2
BRANCH   1  14
HETATM   14  C   UNL     1     -45.716 -52.609  12.789  1.00  0.00     0.164 C 
BRANCH  14  15
HETATM   15  O   UNL     1     -46.521 -52.581  11.605  1.00  0.00    -0.392 OA
HETATM   16  H   UNL     1     -47.424 -52.868  11.841  1.00  0.00     0.210 HD
ENDBRANCH  14  15
BRANCH  14  17
HETATM   17  C   UNL     1     -46.590 -52.334  14.040  1.00  0.00     0.305 C 
BRANCH  17  18
HETATM   18  N   UNL     1     -45.830 -52.432  15.289  1.00  0.00     0.093 N 
HETATM   19  C   UNL     1     -45.839 -51.201  16.089  1.00  0.00     0.272 C 
HETATM   20  C   UNL     1     -44.730 -51.306  17.137  1.00  0.00     0.033 C 
HETATM   21  C   UNL     1     -44.923 -52.520  18.039  1.00  0.00     0.035 C 
HETATM   22  C   UNL     1     -45.195 -53.795  17.240  1.00  0.00     0.146 C 
HETATM   23  C   UNL     1     -46.253 -53.561  16.136  1.00  0.00     0.303 C 
BRANCH  22  24
HETATM   24  O   UNL     1     -45.599 -54.842  18.115  1.00  0.00    -0.394 OA
HETATM   25  H   UNL     1     -45.447 -55.691  17.669  1.00  0.00     0.210 HD
ENDBRANCH  22  24
ENDBRANCH  17  18
ENDBRANCH  14  17
ENDBRANCH   1  14
TORSDOF 6
ENDMDL
