MODEL 1
REMARK VINA RESULT:      -6.3      0.000      0.000
REMARK  5 active torsions:
REMARK  status: ('A' for Active; 'I' for Inactive)
REMARK    1  A    between atoms: N_1  and  C1*_2 
REMARK    2  A    between atoms: C2*_7  and  O2*_18 
REMARK    3  A    between atoms: C3*_10  and  O3*_19 
REMARK    4  A    between atoms: C4*_11  and  C5*_21 
REMARK    5  A    between atoms: C5*_21  and  O5*_22 
ROOT
HETATM    1  N   UNL     1     -41.541 -47.291  11.116  1.00  0.00    -0.297 N 
HETATM    2  C   UNL     1     -41.287 -48.612  11.383  1.00  0.00     0.142 A 
HETATM    3  C   UNL     1     -39.904 -48.716  11.413  1.00  0.00     0.117 A 
HETATM    4  N   UNL     1     -39.317 -47.508  11.120  1.00  0.00    -0.346 N 
ATOM      5  HN  UNL     1     -38.321 -47.292  11.088  1.00  0.00     0.167 HD
HETATM    6  C   UNL     1     -40.321 -46.694  10.889  1.00  0.00     0.188 A 
HETATM    7  N   UNL     1     -42.167 -49.606  11.588  1.00  0.00    -0.336 N 
ATOM      8  HN  UNL     1     -43.179 -49.487  11.554  1.00  0.00     0.168 HD
HETATM    9  C   UNL     1     -39.418 -49.982  11.718  1.00  0.00     0.135 A 
HETATM   10  N   UNL     1     -40.236 -51.025  11.937  1.00  0.00    -0.341 N 
ATOM     11  HN  UNL     1     -39.877 -51.953  12.161  1.00  0.00     0.167 HD
HETATM   12  C   UNL     1     -41.555 -50.780  11.845  1.00  0.00     0.183 A 
HETATM   13 CL   UNL     1     -37.746 -50.218  11.834  1.00  0.00    -0.062 Cl
ENDROOT
BRANCH   1  14
HETATM   14  C1* UNL     1     -42.813 -46.595  10.995  1.00  0.00     0.262 C 
HETATM   15  C2* UNL     1     -42.890 -45.349  10.098  1.00  0.00     0.198 C 
HETATM   16  C3* UNL     1     -43.882 -45.704   8.989  1.00  0.00     0.182 C 
HETATM   17  C4* UNL     1     -44.062 -47.212   9.093  1.00  0.00     0.179 C 
HETATM   18  O4* UNL     1     -43.772 -47.547  10.464  1.00  0.00    -0.353 OA
BRANCH  15  19
HETATM   19  O2* UNL     1     -43.366 -44.218  10.848  1.00  0.00    -0.388 OA
HETATM   20  H2* UNL     1     -42.819 -43.456  10.556  1.00  0.00     0.210 HD
ENDBRANCH  15  19
BRANCH  16  21
HETATM   21  O3* UNL     1     -45.108 -44.988   9.226  1.00  0.00    -0.390 OA
HETATM   22  H3* UNL     1     -45.844 -45.623   9.288  1.00  0.00     0.210 HD
ENDBRANCH  16  21
BRANCH  17  23
HETATM   23  C5* UNL     1     -43.141 -47.983   8.140  1.00  0.00     0.198 C 
BRANCH  23  24
HETATM   24  O5* UNL     1     -42.981 -47.269   6.918  1.00  0.00    -0.398 OA
HETATM   25  H5* UNL     1     -42.050 -47.361   6.643  1.00  0.00     0.209 HD
ENDBRANCH  23  24
ENDBRANCH  17  23
ENDBRANCH   1  14
TORSDOF 5
ENDMDL
MODEL 2
REMARK VINA RESULT:      -6.1      1.472      1.764
REMARK  5 active torsions:
REMARK  status: ('A' for Active; 'I' for Inactive)
REMARK    1  A    between atoms: N_1  and  C1*_2 
REMARK    2  A    between atoms: C2*_7  and  O2*_18 
REMARK    3  A    between atoms: C3*_10  and  O3*_19 
REMARK    4  A    between atoms: C4*_11  and  C5*_21 
REMARK    5  A    between atoms: C5*_21  and  O5*_22 
ROOT
HETATM    1  N   UNL     1     -42.482 -48.215  11.216  1.00  0.00    -0.297 N 
HETATM    2  C   UNL     1     -42.714 -49.349  11.952  1.00  0.00     0.142 A 
HETATM    3  C   UNL     1     -41.577 -50.127  11.788  1.00  0.00     0.117 A 
HETATM    4  N   UNL     1     -40.688 -49.519  10.934  1.00  0.00    -0.346 N 
ATOM      5  HN  UNL     1     -39.768 -49.855  10.650  1.00  0.00     0.167 HD
HETATM    6  C   UNL     1     -41.284 -48.408  10.564  1.00  0.00     0.188 A 
HETATM    7  N   UNL     1     -43.794 -49.659  12.689  1.00  0.00    -0.336 N 
ATOM      8  HN  UNL     1     -44.613 -49.058  12.780  1.00  0.00     0.168 HD
HETATM    9  C   UNL     1     -41.578 -51.324  12.496  1.00  0.00     0.135 A 
HETATM   10  N   UNL     1     -42.621 -51.700  13.255  1.00  0.00    -0.341 N 
ATOM     11  HN  UNL     1     -42.619 -52.578  13.774  1.00  0.00     0.167 HD
HETATM   12  C   UNL     1     -43.667 -50.857  13.294  1.00  0.00     0.183 A 
HETATM   13 CL   UNL     1     -40.221 -52.331  12.415  1.00  0.00    -0.062 Cl
ENDROOT
BRANCH   1  14
HETATM   14  C1* UNL     1     -43.315 -47.037  11.038  1.00  0.00     0.262 C 
HETATM   15  C2* UNL     1     -42.712 -45.806  10.341  1.00  0.00     0.198 C 
HETATM   16  C3* UNL     1     -43.541 -45.609   9.070  1.00  0.00     0.182 C 
HETATM   17  C4* UNL     1     -44.335 -46.898   8.917  1.00  0.00     0.179 C 
HETATM   18  O4* UNL     1     -44.463 -47.440  10.246  1.00  0.00    -0.353 OA
BRANCH  15  19
HETATM   19  O2* UNL     1     -42.816 -44.647  11.187  1.00  0.00    -0.388 OA
HETATM   20  H2* UNL     1     -43.467 -44.056  10.750  1.00  0.00     0.210 HD
ENDBRANCH  15  19
BRANCH  16  21
HETATM   21  O3* UNL     1     -44.390 -44.461   9.253  1.00  0.00    -0.390 OA
HETATM   22  H3* UNL     1     -43.932 -43.808   9.812  1.00  0.00     0.210 HD
ENDBRANCH  16  21
BRANCH  17  23
HETATM   23  C5* UNL     1     -43.649 -47.905   7.985  1.00  0.00     0.198 C 
BRANCH  23  24
HETATM   24  O5* UNL     1     -42.973 -47.227   6.932  1.00  0.00    -0.398 OA
HETATM   25  H5* UNL     1     -43.600 -46.592   6.540  1.00  0.00     0.209 HD
ENDBRANCH  23  24
ENDBRANCH  17  23
ENDBRANCH   1  14
TORSDOF 5
ENDMDL
MODEL 3
REMARK VINA RESULT:      -6.1      3.490      5.343
REMARK  5 active torsions:
REMARK  status: ('A' for Active; 'I' for Inactive)
REMARK    1  A    between atoms: N_1  and  C1*_2 
REMARK    2  A    between atoms: C2*_7  and  O2*_18 
REMARK    3  A    between atoms: C3*_10  and  O3*_19 
REMARK    4  A    between atoms: C4*_11  and  C5*_21 
REMARK    5  A    between atoms: C5*_21  and  O5*_22 
ROOT
HETATM    1  N   UNL     1     -42.305 -45.750  11.595  1.00  0.00    -0.297 N 
HETATM    2  C   UNL     1     -42.225 -44.409  11.876  1.00  0.00     0.142 A 
HETATM    3  C   UNL     1     -42.713 -44.280  13.169  1.00  0.00     0.117 A 
HETATM    4  N   UNL     1     -43.133 -45.496  13.656  1.00  0.00    -0.346 N 
ATOM      5  HN  UNL     1     -43.516 -45.697  14.579  1.00  0.00     0.167 HD
HETATM    6  C   UNL     1     -42.930 -46.340  12.671  1.00  0.00     0.188 A 
HETATM    7  N   UNL     1     -41.768 -43.418  11.093  1.00  0.00    -0.336 N 
ATOM      8  HN  UNL     1     -41.420 -43.556  10.145  1.00  0.00     0.168 HD
HETATM    9  C   UNL     1     -42.681 -42.989  13.681  1.00  0.00     0.135 A 
HETATM   10  N   UNL     1     -42.236 -41.947  12.959  1.00  0.00    -0.341 N 
ATOM     11  HN  UNL     1     -42.213 -41.001  13.337  1.00  0.00     0.167 HD
HETATM   12  C   UNL     1     -41.822 -42.220  11.709  1.00  0.00     0.183 A 
HETATM   13 CL   UNL     1     -43.202 -42.718  15.269  1.00  0.00    -0.062 Cl
ENDROOT
BRANCH   1  14
HETATM   14  C1* UNL     1     -41.909 -46.472  10.397  1.00  0.00     0.262 C 
HETATM   15  C2* UNL     1     -42.560 -47.835  10.109  1.00  0.00     0.198 C 
HETATM   16  C3* UNL     1     -43.318 -47.656   8.792  1.00  0.00     0.182 C 
HETATM   17  C4* UNL     1     -43.358 -46.152   8.565  1.00  0.00     0.179 C 
HETATM   18  O4* UNL     1     -42.215 -45.619   9.262  1.00  0.00    -0.353 OA
BRANCH  15  19
HETATM   19  O2* UNL     1     -41.554 -48.854   9.969  1.00  0.00    -0.388 OA
HETATM   20  H2* UNL     1     -41.034 -48.828  10.802  1.00  0.00     0.210 HD
ENDBRANCH  15  19
BRANCH  16  21
HETATM   21  O3* UNL     1     -42.600 -48.348   7.754  1.00  0.00    -0.390 OA
HETATM   22  H3* UNL     1     -42.532 -49.292   7.985  1.00  0.00     0.210 HD
ENDBRANCH  16  21
BRANCH  17  23
HETATM   23  C5* UNL     1     -44.654 -45.513   9.081  1.00  0.00     0.198 C 
BRANCH  23  24
HETATM   24  O5* UNL     1     -44.433 -44.148   9.423  1.00  0.00    -0.398 OA
HETATM   25  H5* UNL     1     -45.255 -43.806   9.819  1.00  0.00     0.209 HD
ENDBRANCH  23  24
ENDBRANCH  17  23
ENDBRANCH   1  14
TORSDOF 5
ENDMDL
MODEL 4
REMARK VINA RESULT:      -6.0      4.976      6.874
REMARK  5 active torsions:
REMARK  status: ('A' for Active; 'I' for Inactive)
REMARK    1  A    between atoms: N_1  and  C1*_2 
REMARK    2  A    between atoms: C2*_7  and  O2*_18 
REMARK    3  A    between atoms: C3*_10  and  O3*_19 
REMARK    4  A    between atoms: C4*_11  and  C5*_21 
REMARK    5  A    between atoms: C5*_21  and  O5*_22 
ROOT
HETATM    1  N   UNL     1     -42.517 -51.441  12.567  1.00  0.00    -0.297 N 
HETATM    2  C   UNL     1     -43.511 -52.359  12.799  1.00  0.00     0.142 A 
HETATM    3  C   UNL     1     -44.492 -51.664  13.491  1.00  0.00     0.117 A 
HETATM    4  N   UNL     1     -44.097 -50.368  13.728  1.00  0.00    -0.346 N 
ATOM      5  HN  UNL     1     -44.626 -49.633  14.197  1.00  0.00     0.167 HD
HETATM    6  C   UNL     1     -42.891 -50.285  13.216  1.00  0.00     0.188 A 
HETATM    7  N   UNL     1     -43.554 -53.652  12.436  1.00  0.00    -0.336 N 
ATOM      8  HN  UNL     1     -42.806 -54.126  11.930  1.00  0.00     0.168 HD
HETATM    9  C   UNL     1     -45.631 -52.402  13.793  1.00  0.00     0.135 A 
HETATM   10  N   UNL     1     -45.747 -53.699  13.461  1.00  0.00    -0.341 N 
ATOM     11  HN  UNL     1     -46.583 -54.237  13.684  1.00  0.00     0.167 HD
HETATM   12  C   UNL     1     -44.701 -54.247  12.819  1.00  0.00     0.183 A 
HETATM   13 CL   UNL     1     -46.917 -51.644  14.589  1.00  0.00    -0.062 Cl
ENDROOT
BRANCH   1  14
HETATM   14  C1* UNL     1     -41.256 -51.597  11.861  1.00  0.00     0.262 C 
HETATM   15  C2* UNL     1     -40.328 -50.378  11.730  1.00  0.00     0.198 C 
HETATM   16  C3* UNL     1     -39.047 -50.756  12.475  1.00  0.00     0.182 C 
HETATM   17  C4* UNL     1     -39.412 -51.998  13.275  1.00  0.00     0.179 C 
HETATM   18  O4* UNL     1     -40.498 -52.620  12.560  1.00  0.00    -0.353 OA
BRANCH  15  19
HETATM   19  O2* UNL     1     -40.039 -50.113  10.346  1.00  0.00    -0.388 OA
HETATM   20  H2* UNL     1     -40.912 -50.046   9.900  1.00  0.00     0.210 HD
ENDBRANCH  15  19
BRANCH  16  21
HETATM   21  O3* UNL     1     -38.014 -51.011  11.507  1.00  0.00    -0.390 OA
HETATM   22  H3* UNL     1     -37.807 -50.185  11.032  1.00  0.00     0.210 HD
ENDBRANCH  16  21
BRANCH  17  23
HETATM   23  C5* UNL     1     -39.828 -51.672  14.715  1.00  0.00     0.198 C 
BRANCH  23  24
HETATM   24  O5* UNL     1     -40.709 -52.671  15.216  1.00  0.00    -0.398 OA
HETATM   25  H5* UNL     1     -40.511 -52.792  16.163  1.00  0.00     0.209 HD
ENDBRANCH  23  24
ENDBRANCH  17  23
ENDBRANCH   1  14
TORSDOF 5
ENDMDL
MODEL 5
REMARK VINA RESULT:      -5.8      7.081      8.897
REMARK  5 active torsions:
REMARK  status: ('A' for Active; 'I' for Inactive)
REMARK    1  A    between atoms: N_1  and  C1*_2 
REMARK    2  A    between atoms: C2*_7  and  O2*_18 
REMARK    3  A    between atoms: C3*_10  and  O3*_19 
REMARK    4  A    between atoms: C4*_11  and  C5*_21 
REMARK    5  A    between atoms: C5*_21  and  O5*_22 
ROOT
HETATM    1  N   UNL     1     -42.438 -53.669  13.408  1.00  0.00    -0.297 N 
HETATM    2  C   UNL     1     -43.782 -53.862  13.604  1.00  0.00     0.142 A 
HETATM    3  C   UNL     1     -44.400 -52.827  12.918  1.00  0.00     0.117 A 
HETATM    4  N   UNL     1     -43.468 -51.986  12.358  1.00  0.00    -0.346 N 
ATOM      5  HN  UNL     1     -43.639 -51.159  11.787  1.00  0.00     0.167 HD
HETATM    6  C   UNL     1     -42.307 -52.484  12.719  1.00  0.00     0.188 A 
HETATM    7  N   UNL     1     -44.392 -54.839  14.296  1.00  0.00    -0.336 N 
ATOM      8  HN  UNL     1     -43.898 -55.581  14.790  1.00  0.00     0.168 HD
HETATM    9  C   UNL     1     -45.790 -52.853  12.946  1.00  0.00     0.135 A 
HETATM   10  N   UNL     1     -46.471 -53.799  13.614  1.00  0.00    -0.341 N 
ATOM     11  HN  UNL     1     -47.490 -53.817  13.632  1.00  0.00     0.167 HD
HETATM   12  C   UNL     1     -45.736 -54.722  14.258  1.00  0.00     0.183 A 
HETATM   13 CL   UNL     1     -46.654 -51.670  12.099  1.00  0.00    -0.062 Cl
ENDROOT
BRANCH   1  14
HETATM   14  C1* UNL     1     -41.309 -54.461  13.870  1.00  0.00     0.262 C 
HETATM   15  C2* UNL     1     -39.944 -53.772  14.039  1.00  0.00     0.198 C 
HETATM   16  C3* UNL     1     -39.613 -53.882  15.528  1.00  0.00     0.182 C 
HETATM   17  C4* UNL     1     -40.917 -54.305  16.189  1.00  0.00     0.179 C 
HETATM   18  O4* UNL     1     -41.666 -54.997  15.171  1.00  0.00    -0.353 OA
BRANCH  15  19
HETATM   19  O2* UNL     1     -38.942 -54.444  13.255  1.00  0.00    -0.388 OA
HETATM   20  H2* UNL     1     -39.177 -54.269  12.318  1.00  0.00     0.210 HD
ENDBRANCH  15  19
BRANCH  16  21
HETATM   21  O3* UNL     1     -38.572 -54.861  15.694  1.00  0.00    -0.390 OA
HETATM   22  H3* UNL     1     -38.042 -54.908  14.877  1.00  0.00     0.210 HD
ENDBRANCH  16  21
BRANCH  17  23
HETATM   23  C5* UNL     1     -41.715 -53.113  16.734  1.00  0.00     0.198 C 
BRANCH  23  24
HETATM   24  O5* UNL     1     -43.088 -53.461  16.881  1.00  0.00    -0.398 OA
HETATM   25  H5* UNL     1     -43.619 -52.698  16.587  1.00  0.00     0.209 HD
ENDBRANCH  23  24
ENDBRANCH  17  23
ENDBRANCH   1  14
TORSDOF 5
ENDMDL
MODEL 6
REMARK VINA RESULT:      -5.6      3.380      5.663
REMARK  5 active torsions:
REMARK  status: ('A' for Active; 'I' for Inactive)
REMARK    1  A    between atoms: N_1  and  C1*_2 
REMARK    2  A    between atoms: C2*_7  and  O2*_18 
REMARK    3  A    between atoms: C3*_10  and  O3*_19 
REMARK    4  A    between atoms: C4*_11  and  C5*_21 
REMARK    5  A    between atoms: C5*_21  and  O5*_22 
ROOT
HETATM    1  N   UNL     1     -39.247 -48.488  12.437  1.00  0.00    -0.297 N 
HETATM    2  C   UNL     1     -39.802 -47.367  11.876  1.00  0.00     0.142 A 
HETATM    3  C   UNL     1     -39.523 -46.340  12.766  1.00  0.00     0.117 A 
HETATM    4  N   UNL     1     -38.861 -46.818  13.872  1.00  0.00    -0.346 N 
ATOM      5  HN  UNL     1     -38.519 -46.285  14.671  1.00  0.00     0.167 HD
HETATM    6  C   UNL     1     -38.764 -48.112  13.671  1.00  0.00     0.188 A 
HETATM    7  N   UNL     1     -40.467 -47.257  10.713  1.00  0.00    -0.336 N 
ATOM      8  HN  UNL     1     -40.654 -48.041  10.089  1.00  0.00     0.168 HD
HETATM    9  C   UNL     1     -39.963 -45.083  12.367  1.00  0.00     0.135 A 
HETATM   10  N   UNL     1     -40.633 -44.894  11.217  1.00  0.00    -0.341 N 
ATOM     11  HN  UNL     1     -40.953 -43.971  10.927  1.00  0.00     0.167 HD
HETATM   12  C   UNL     1     -40.857 -45.989  10.471  1.00  0.00     0.183 A 
HETATM   13 CL   UNL     1     -39.632 -43.744  13.348  1.00  0.00    -0.062 Cl
ENDROOT
BRANCH   1  14
HETATM   14  C1* UNL     1     -39.204 -49.853  11.937  1.00  0.00     0.262 C 
HETATM   15  C2* UNL     1     -39.216 -51.011  12.949  1.00  0.00     0.198 C 
HETATM   16  C3* UNL     1     -40.502 -51.788  12.665  1.00  0.00     0.182 C 
HETATM   17  C4* UNL     1     -41.321 -50.875  11.764  1.00  0.00     0.179 C 
HETATM   18  O4* UNL     1     -40.367 -50.034  11.087  1.00  0.00    -0.353 OA
BRANCH  15  19
HETATM   19  O2* UNL     1     -38.070 -51.858  12.759  1.00  0.00    -0.388 OA
HETATM   20  H2* UNL     1     -38.359 -52.759  13.020  1.00  0.00     0.210 HD
ENDBRANCH  15  19
BRANCH  16  21
HETATM   21  O3* UNL     1     -40.154 -53.026  12.019  1.00  0.00    -0.390 OA
HETATM   22  H3* UNL     1     -40.013 -53.713  12.696  1.00  0.00     0.210 HD
ENDBRANCH  16  21
BRANCH  17  23
HETATM   23  C5* UNL     1     -42.331 -50.026  12.547  1.00  0.00     0.198 C 
BRANCH  23  24
HETATM   24  O5* UNL     1     -42.922 -49.048  11.698  1.00  0.00    -0.398 OA
HETATM   25  H5* UNL     1     -43.022 -49.446  10.813  1.00  0.00     0.209 HD
ENDBRANCH  23  24
ENDBRANCH  17  23
ENDBRANCH   1  14
TORSDOF 5
ENDMDL
MODEL 7
REMARK VINA RESULT:      -5.5      3.352      5.866
REMARK  5 active torsions:
REMARK  status: ('A' for Active; 'I' for Inactive)
REMARK    1  A    between atoms: N_1  and  C1*_2 
REMARK    2  A    between atoms: C2*_7  and  O2*_18 
REMARK    3  A    between atoms: C3*_10  and  O3*_19 
REMARK    4  A    between atoms: C4*_11  and  C5*_21 
REMARK    5  A    between atoms: C5*_21  and  O5*_22 
ROOT
HETATM    1  N   UNL     1     -40.875 -49.856  11.587  1.00  0.00    -0.297 N 
HETATM    2  C   UNL     1     -41.457 -48.722  11.080  1.00  0.00     0.142 A 
HETATM    3  C   UNL     1     -40.451 -47.767  11.081  1.00  0.00     0.117 A 
HETATM    4  N   UNL     1     -39.293 -48.277  11.621  1.00  0.00    -0.346 N 
ATOM      5  HN  UNL     1     -38.396 -47.804  11.729  1.00  0.00     0.167 HD
HETATM    6  C   UNL     1     -39.598 -49.507  11.967  1.00  0.00     0.188 A 
HETATM    7  N   UNL     1     -42.720 -48.550  10.657  1.00  0.00    -0.336 N 
ATOM      8  HN  UNL     1     -43.432 -49.280  10.678  1.00  0.00     0.168 HD
HETATM    9  C   UNL     1     -40.814 -46.532  10.556  1.00  0.00     0.135 A 
HETATM   10  N   UNL     1     -42.058 -46.286  10.112  1.00  0.00    -0.341 N 
ATOM     11  HN  UNL     1     -42.322 -45.379   9.727  1.00  0.00     0.167 HD
HETATM   12  C   UNL     1     -42.936 -47.299  10.203  1.00  0.00     0.183 A 
HETATM   13 CL   UNL     1     -39.653 -45.304  10.457  1.00  0.00    -0.062 Cl
ENDROOT
BRANCH   1  14
HETATM   14  C1* UNL     1     -41.443 -51.179  11.794  1.00  0.00     0.262 C 
HETATM   15  C2* UNL     1     -40.568 -52.265  12.441  1.00  0.00     0.198 C 
HETATM   16  C3* UNL     1     -41.269 -52.628  13.751  1.00  0.00     0.182 C 
HETATM   17  C4* UNL     1     -42.295 -51.524  13.964  1.00  0.00     0.179 C 
HETATM   18  O4* UNL     1     -42.603 -51.017  12.651  1.00  0.00    -0.353 OA
BRANCH  15  19
HETATM   19  O2* UNL     1     -40.484 -53.419  11.585  1.00  0.00    -0.388 OA
HETATM   20  H2* UNL     1     -39.995 -54.097  12.101  1.00  0.00     0.210 HD
ENDBRANCH  15  19
BRANCH  16  21
HETATM   21  O3* UNL     1     -41.879 -53.922  13.599  1.00  0.00    -0.390 OA
HETATM   22  H3* UNL     1     -41.683 -54.464  14.386  1.00  0.00     0.210 HD
ENDBRANCH  16  21
BRANCH  17  23
HETATM   23  C5* UNL     1     -41.775 -50.402  14.871  1.00  0.00     0.198 C 
BRANCH  23  24
HETATM   24  O5* UNL     1     -42.432 -49.176  14.571  1.00  0.00    -0.398 OA
HETATM   25  H5* UNL     1     -41.961 -48.465  15.043  1.00  0.00     0.209 HD
ENDBRANCH  23  24
ENDBRANCH  17  23
ENDBRANCH   1  14
TORSDOF 5
ENDMDL
MODEL 8
REMARK VINA RESULT:      -5.5      2.602      3.788
REMARK  5 active torsions:
REMARK  status: ('A' for Active; 'I' for Inactive)
REMARK    1  A    between atoms: N_1  and  C1*_2 
REMARK    2  A    between atoms: C2*_7  and  O2*_18 
REMARK    3  A    between atoms: C3*_10  and  O3*_19 
REMARK    4  A    between atoms: C4*_11  and  C5*_21 
REMARK    5  A    between atoms: C5*_21  and  O5*_22 
ROOT
HETATM    1  N   UNL     1     -40.406 -47.619  11.224  1.00  0.00    -0.297 N 
HETATM    2  C   UNL     1     -39.883 -48.715  11.863  1.00  0.00     0.142 A 
HETATM    3  C   UNL     1     -40.783 -49.742  11.618  1.00  0.00     0.117 A 
HETATM    4  N   UNL     1     -41.858 -49.286  10.893  1.00  0.00    -0.346 N 
ATOM      5  HN  UNL     1     -42.657 -49.825  10.559  1.00  0.00     0.167 HD
HETATM    6  C   UNL     1     -41.631 -48.003  10.726  1.00  0.00     0.188 A 
HETATM    7  N   UNL     1     -38.744 -48.803  12.570  1.00  0.00    -0.336 N 
ATOM      8  HN  UNL     1     -38.110 -48.020  12.730  1.00  0.00     0.168 HD
HETATM    9  C   UNL     1     -40.421 -50.977  12.144  1.00  0.00     0.135 A 
HETATM   10  N   UNL     1     -39.296 -51.143  12.860  1.00  0.00    -0.341 N 
ATOM     11  HN  UNL     1     -39.033 -52.050  13.244  1.00  0.00     0.167 HD
HETATM   12  C   UNL     1     -38.536 -50.049  13.042  1.00  0.00     0.183 A 
HETATM   13 CL   UNL     1     -41.416 -52.316  11.863  1.00  0.00    -0.062 Cl
ENDROOT
BRANCH   1  14
HETATM   14  C1* UNL     1     -39.880 -46.268  11.116  1.00  0.00     0.262 C 
HETATM   15  C2* UNL     1     -40.673 -45.230  10.304  1.00  0.00     0.198 C 
HETATM   16  C3* UNL     1     -41.071 -44.145  11.306  1.00  0.00     0.182 C 
HETATM   17  C4* UNL     1     -40.800 -44.757  12.673  1.00  0.00     0.179 C 
HETATM   18  O4* UNL     1     -39.770 -45.742  12.465  1.00  0.00    -0.353 OA
BRANCH  15  19
HETATM   19  O2* UNL     1     -39.851 -44.671   9.264  1.00  0.00    -0.388 OA
HETATM   20  H2* UNL     1     -38.953 -44.585   9.653  1.00  0.00     0.210 HD
ENDBRANCH  15  19
BRANCH  16  21
HETATM   21  O3* UNL     1     -40.266 -42.978  11.059  1.00  0.00    -0.390 OA
HETATM   22  H3* UNL     1     -39.747 -43.112  10.245  1.00  0.00     0.210 HD
ENDBRANCH  16  21
BRANCH  17  23
HETATM   23  C5* UNL     1     -42.049 -45.399  13.289  1.00  0.00     0.198 C 
BRANCH  23  24
HETATM   24  O5* UNL     1     -43.187 -44.568  13.086  1.00  0.00    -0.398 OA
HETATM   25  H5* UNL     1     -43.959 -45.026  13.466  1.00  0.00     0.209 HD
ENDBRANCH  23  24
ENDBRANCH  17  23
ENDBRANCH   1  14
TORSDOF 5
ENDMDL
MODEL 9
REMARK VINA RESULT:      -5.4      4.277      6.713
REMARK  5 active torsions:
REMARK  status: ('A' for Active; 'I' for Inactive)
REMARK    1  A    between atoms: N_1  and  C1*_2 
REMARK    2  A    between atoms: C2*_7  and  O2*_18 
REMARK    3  A    between atoms: C3*_10  and  O3*_19 
REMARK    4  A    between atoms: C4*_11  and  C5*_21 
REMARK    5  A    between atoms: C5*_21  and  O5*_22 
ROOT
HETATM    1  N   UNL     1     -41.947 -53.315  13.486  1.00  0.00    -0.297 N 
HETATM    2  C   UNL     1     -41.294 -52.327  12.795  1.00  0.00     0.142 A 
HETATM    3  C   UNL     1     -40.082 -52.165  13.450  1.00  0.00     0.117 A 
HETATM    4  N   UNL     1     -40.006 -52.991  14.547  1.00  0.00    -0.346 N 
ATOM      5  HN  UNL     1     -39.226 -53.093  15.196  1.00  0.00     0.167 HD
HETATM    6  C   UNL     1     -41.158 -53.620  14.574  1.00  0.00     0.188 A 
HETATM    7  N   UNL     1     -41.711 -51.653  11.709  1.00  0.00    -0.336 N 
ATOM      8  HN  UNL     1     -42.614 -51.801  11.260  1.00  0.00     0.168 HD
HETATM    9  C   UNL     1     -39.227 -51.228  12.880  1.00  0.00     0.135 A 
HETATM   10  N   UNL     1     -39.573 -50.517  11.793  1.00  0.00    -0.341 N 
ATOM     11  HN  UNL     1     -38.945 -49.831  11.377  1.00  0.00     0.167 HD
HETATM   12  C   UNL     1     -40.794 -50.760  11.285  1.00  0.00     0.183 A 
HETATM   13 CL   UNL     1     -37.698 -50.984  13.563  1.00  0.00    -0.062 Cl
ENDROOT
BRANCH   1  14
HETATM   14  C1* UNL     1     -43.246 -53.919  13.239  1.00  0.00     0.262 C 
HETATM   15  C2* UNL     1     -44.149 -54.245  14.441  1.00  0.00     0.198 C 
HETATM   16  C3* UNL     1     -45.399 -53.383  14.259  1.00  0.00     0.182 C 
HETATM   17  C4* UNL     1     -45.024 -52.372  13.184  1.00  0.00     0.179 C 
HETATM   18  O4* UNL     1     -43.992 -53.000  12.399  1.00  0.00    -0.353 OA
BRANCH  15  19
HETATM   19  O2* UNL     1     -44.502 -55.640  14.440  1.00  0.00    -0.388 OA
HETATM   20  H2* UNL     1     -45.096 -55.763  15.212  1.00  0.00     0.210 HD
ENDBRANCH  15  19
BRANCH  16  21
HETATM   21  O3* UNL     1     -46.486 -54.234  13.855  1.00  0.00    -0.390 OA
HETATM   22  H3* UNL     1     -46.148 -54.926  13.257  1.00  0.00     0.210 HD
ENDBRANCH  16  21
BRANCH  17  23
HETATM   23  C5* UNL     1     -44.527 -51.045  13.771  1.00  0.00     0.198 C 
BRANCH  23  24
HETATM   24  O5* UNL     1     -44.050 -50.191  12.736  1.00  0.00    -0.398 OA
HETATM   25  H5* UNL     1     -43.359 -50.676  12.249  1.00  0.00     0.209 HD
ENDBRANCH  23  24
ENDBRANCH  17  23
ENDBRANCH   1  14
TORSDOF 5
ENDMDL
