MODEL 1
REMARK VINA RESULT:      -6.8      0.000      0.000
REMARK  3 active torsions:
REMARK  status: ('A' for Active; 'I' for Inactive)
REMARK    1  A    between atoms: N_6  and  C_7 
REMARK    2  A    between atoms: C_7  and  C_8 
REMARK       I    between atoms: C_8  and  N_10 
REMARK       I    between atoms: N_10  and  C_11 
REMARK       I    between atoms: C_11  and  N_13 
REMARK    3  A    between atoms: N_13  and  C_14 
ROOT
HETATM    1  C   UNL     1     -40.446 -51.275  12.272  1.00  0.00     0.245 C 
HETATM    2  O   UNL     1     -39.610 -52.171  12.110  1.00  0.00    -0.271 OA
HETATM    3  N   UNL     1     -40.542 -50.244  11.354  1.00  0.00    -0.278 N 
HETATM    4  C   UNL     1     -41.511 -49.278  11.346  1.00  0.00     0.323 C 
HETATM    5  O   UNL     1     -42.322 -49.108  12.248  1.00  0.00    -0.247 OA
HETATM    6  N   UNL     1     -41.539 -48.519  10.212  1.00  0.00    -0.338 N 
HETATM    7  H   UNL     1     -39.931 -50.340  10.559  1.00  0.00     0.173 HD
HETATM    8  H   UNL     1     -40.671 -48.375   9.716  1.00  0.00     0.164 HD
ENDROOT
BRANCH   1   9
HETATM    9  C   UNL     1     -41.468 -51.245  13.419  1.00  0.00     0.255 C 
BRANCH   9  10
HETATM   10  N   UNL     1     -42.391 -52.360  13.439  1.00  0.00    -0.248 N 
HETATM   11  N   UNL     1     -43.544 -52.213  12.706  1.00  0.00    -0.305 N 
HETATM   12  C   UNL     1     -44.431 -53.140  12.835  1.00  0.00     0.133 A 
ATOM     13  HN  UNL     1     -43.690 -51.412  12.091  1.00  0.00     0.186 HD
HETATM   14  C   UNL     1     -44.319 -54.315  13.708  1.00  0.00     0.078 A 
HETATM   15 CL   UNL     1     -45.646 -55.401  13.725  1.00  0.00    -0.081 Cl
HETATM   16  C   UNL     1     -43.204 -54.435  14.431  1.00  0.00     0.126 A 
HETATM   17  C   UNL     1     -42.136 -53.405  14.323  1.00  0.00     0.285 A 
HETATM   18 CL   UNL     1     -42.932 -55.730  15.540  1.00  0.00    -0.076 Cl
HETATM   19  O   UNL     1     -41.112 -53.476  15.000  1.00  0.00    -0.265 OA
ENDBRANCH   9  10
ENDBRANCH   1   9
BRANCH   6  20
HETATM   20  C   UNL     1     -42.596 -47.535  10.010  1.00  0.00     0.086 C 
HETATM   21  C   UNL     1     -42.089 -46.084  10.073  1.00  0.00     0.025 C 
HETATM   22  C   UNL     1     -43.273 -45.127  10.127  1.00  0.00     0.002 C 
HETATM   23  C   UNL     1     -44.236 -45.336   8.956  1.00  0.00     0.000 C 
HETATM   24  C   UNL     1     -44.601 -46.803   8.710  1.00  0.00     0.002 C 
HETATM   25  C   UNL     1     -43.380 -47.721   8.704  1.00  0.00     0.025 C 
ENDBRANCH   6  20
TORSDOF 3
ENDMDL
MODEL 2
REMARK VINA RESULT:      -6.6      1.238      1.766
REMARK  3 active torsions:
REMARK  status: ('A' for Active; 'I' for Inactive)
REMARK    1  A    between atoms: N_6  and  C_7 
REMARK    2  A    between atoms: C_7  and  C_8 
REMARK       I    between atoms: C_8  and  N_10 
REMARK       I    between atoms: N_10  and  C_11 
REMARK       I    between atoms: C_11  and  N_13 
REMARK    3  A    between atoms: N_13  and  C_14 
ROOT
HETATM    1  C   UNL     1     -40.676 -51.574  12.382  1.00  0.00     0.245 C 
HETATM    2  O   UNL     1     -40.036 -52.613  12.188  1.00  0.00    -0.271 OA
HETATM    3  N   UNL     1     -40.731 -50.603  11.396  1.00  0.00    -0.278 N 
HETATM    4  C   UNL     1     -41.514 -49.481  11.434  1.00  0.00     0.323 C 
HETATM    5  O   UNL     1     -42.141 -49.112  12.418  1.00  0.00    -0.247 OA
HETATM    6  N   UNL     1     -41.580 -48.803  10.251  1.00  0.00    -0.338 N 
HETATM    7  H   UNL     1     -40.269 -50.857  10.539  1.00  0.00     0.173 HD
HETATM    8  H   UNL     1     -40.784 -48.849   9.632  1.00  0.00     0.164 HD
ENDROOT
BRANCH   1   9
HETATM    9  C   UNL     1     -41.497 -51.288  13.648  1.00  0.00     0.255 C 
BRANCH   9  10
HETATM   10  N   UNL     1     -42.595 -52.202  13.879  1.00  0.00    -0.248 N 
HETATM   11  N   UNL     1     -42.348 -53.530  13.626  1.00  0.00    -0.305 N 
HETATM   12  C   UNL     1     -43.360 -54.327  13.692  1.00  0.00     0.133 A 
ATOM     13  HN  UNL     1     -41.413 -53.868  13.398  1.00  0.00     0.186 HD
HETATM   14  C   UNL     1     -44.742 -53.931  13.992  1.00  0.00     0.078 A 
HETATM   15 CL   UNL     1     -45.923 -55.174  14.001  1.00  0.00    -0.081 Cl
HETATM   16  C   UNL     1     -44.972 -52.636  14.214  1.00  0.00     0.126 A 
HETATM   17  C   UNL     1     -43.847 -51.664  14.162  1.00  0.00     0.285 A 
HETATM   18 CL   UNL     1     -46.544 -51.996  14.535  1.00  0.00    -0.076 Cl
HETATM   19  O   UNL     1     -44.036 -50.461  14.333  1.00  0.00    -0.265 OA
ENDBRANCH   9  10
ENDBRANCH   1   9
BRANCH   6  20
HETATM   20  C   UNL     1     -42.474 -47.660  10.107  1.00  0.00     0.086 C 
HETATM   21  C   UNL     1     -41.750 -46.308  10.232  1.00  0.00     0.025 C 
HETATM   22  C   UNL     1     -42.773 -45.185  10.344  1.00  0.00     0.002 C 
HETATM   23  C   UNL     1     -43.760 -45.187   9.174  1.00  0.00     0.000 C 
HETATM   24  C   UNL     1     -44.348 -46.568   8.864  1.00  0.00     0.002 C 
HETATM   25  C   UNL     1     -43.283 -47.661   8.802  1.00  0.00     0.025 C 
ENDBRANCH   6  20
TORSDOF 3
ENDMDL
MODEL 3
REMARK VINA RESULT:      -6.5      3.873      7.386
REMARK  3 active torsions:
REMARK  status: ('A' for Active; 'I' for Inactive)
REMARK    1  A    between atoms: N_6  and  C_7 
REMARK    2  A    between atoms: C_7  and  C_8 
REMARK       I    between atoms: C_8  and  N_10 
REMARK       I    between atoms: N_10  and  C_11 
REMARK       I    between atoms: C_11  and  N_13 
REMARK    3  A    between atoms: N_13  and  C_14 
ROOT
HETATM    1  C   UNL     1     -39.979 -49.847  11.470  1.00  0.00     0.245 C 
HETATM    2  O   UNL     1     -38.920 -49.675  10.856  1.00  0.00    -0.271 OA
HETATM    3  N   UNL     1     -40.584 -51.092  11.470  1.00  0.00    -0.278 N 
HETATM    4  C   UNL     1     -41.674 -51.443  12.219  1.00  0.00     0.323 C 
HETATM    5  O   UNL     1     -42.351 -50.651  12.862  1.00  0.00    -0.247 OA
HETATM    6  N   UNL     1     -41.938 -52.783  12.233  1.00  0.00    -0.338 N 
HETATM    7  H   UNL     1     -40.059 -51.807  10.992  1.00  0.00     0.173 HD
HETATM    8  H   UNL     1     -41.681 -53.326  11.422  1.00  0.00     0.164 HD
ENDROOT
BRANCH   1   9
HETATM    9  C   UNL     1     -40.672 -48.769  12.316  1.00  0.00     0.255 C 
BRANCH   9  10
HETATM   10  N   UNL     1     -41.592 -47.922  11.586  1.00  0.00    -0.248 N 
HETATM   11  N   UNL     1     -42.233 -48.497  10.515  1.00  0.00    -0.305 N 
HETATM   12  C   UNL     1     -42.941 -47.711   9.777  1.00  0.00     0.133 A 
ATOM     13  HN  UNL     1     -42.153 -49.494  10.314  1.00  0.00     0.186 HD
HETATM   14  C   UNL     1     -43.099 -46.265   9.976  1.00  0.00     0.078 A 
HETATM   15 CL   UNL     1     -44.078 -45.426   8.845  1.00  0.00    -0.081 Cl
HETATM   16  C   UNL     1     -42.453 -45.715  11.006  1.00  0.00     0.126 A 
HETATM   17  C   UNL     1     -41.627 -46.567  11.903  1.00  0.00     0.285 A 
HETATM   18 CL   UNL     1     -42.495 -44.024  11.354  1.00  0.00    -0.076 Cl
HETATM   19  O   UNL     1     -40.998 -46.081  12.841  1.00  0.00    -0.265 OA
ENDBRANCH   9  10
ENDBRANCH   1   9
BRANCH   6  20
HETATM   20  C   UNL     1     -42.992 -53.316  13.089  1.00  0.00     0.086 C 
HETATM   21  C   UNL     1     -44.300 -53.596  12.330  1.00  0.00     0.025 C 
HETATM   22  C   UNL     1     -45.419 -53.886  13.323  1.00  0.00     0.002 C 
HETATM   23  C   UNL     1     -45.063 -55.033  14.272  1.00  0.00     0.000 C 
HETATM   24  C   UNL     1     -43.666 -54.913  14.889  1.00  0.00     0.002 C 
HETATM   25  C   UNL     1     -42.591 -54.584  13.855  1.00  0.00     0.025 C 
ENDBRANCH   6  20
TORSDOF 3
ENDMDL
MODEL 4
REMARK VINA RESULT:      -6.4      5.533      8.941
REMARK  3 active torsions:
REMARK  status: ('A' for Active; 'I' for Inactive)
REMARK    1  A    between atoms: N_6  and  C_7 
REMARK    2  A    between atoms: C_7  and  C_8 
REMARK       I    between atoms: C_8  and  N_10 
REMARK       I    between atoms: N_10  and  C_11 
REMARK       I    between atoms: C_11  and  N_13 
REMARK    3  A    between atoms: N_13  and  C_14 
ROOT
HETATM    1  C   UNL     1     -42.616 -46.435   9.615  1.00  0.00     0.245 C 
HETATM    2  O   UNL     1     -42.899 -45.952   8.514  1.00  0.00    -0.271 OA
HETATM    3  N   UNL     1     -41.925 -47.632   9.687  1.00  0.00    -0.278 N 
HETATM    4  C   UNL     1     -41.434 -48.195  10.835  1.00  0.00     0.323 C 
HETATM    5  O   UNL     1     -41.688 -47.791  11.963  1.00  0.00    -0.247 OA
HETATM    6  N   UNL     1     -40.585 -49.244  10.628  1.00  0.00    -0.338 N 
HETATM    7  H   UNL     1     -41.646 -48.004   8.795  1.00  0.00     0.173 HD
HETATM    8  H   UNL     1     -40.720 -49.807   9.801  1.00  0.00     0.164 HD
ENDROOT
BRANCH   1   9
HETATM    9  C   UNL     1     -42.925 -45.760  10.960  1.00  0.00     0.255 C 
BRANCH   9  10
HETATM   10  N   UNL     1     -42.082 -44.628  11.279  1.00  0.00    -0.248 N 
HETATM   11  N   UNL     1     -40.993 -44.882  12.077  1.00  0.00    -0.305 N 
HETATM   12  C   UNL     1     -40.322 -43.857  12.480  1.00  0.00     0.133 A 
ATOM     13  HN  UNL     1     -40.728 -45.832  12.336  1.00  0.00     0.186 HD
HETATM   14  C   UNL     1     -40.637 -42.456  12.176  1.00  0.00     0.078 A 
HETATM   15 CL   UNL     1     -39.606 -41.262  12.849  1.00  0.00    -0.081 Cl
HETATM   16  C   UNL     1     -41.710 -42.221  11.419  1.00  0.00     0.126 A 
HETATM   17  C   UNL     1     -42.523 -43.359  10.912  1.00  0.00     0.285 A 
HETATM   18 CL   UNL     1     -42.246 -40.632  11.005  1.00  0.00    -0.076 Cl
HETATM   19  O   UNL     1     -43.533 -43.170  10.237  1.00  0.00    -0.265 OA
ENDBRANCH   9  10
ENDBRANCH   1   9
BRANCH   6  20
HETATM   20  C   UNL     1     -39.889 -49.860  11.751  1.00  0.00     0.086 C 
HETATM   21  C   UNL     1     -40.400 -51.275  12.074  1.00  0.00     0.025 C 
HETATM   22  C   UNL     1     -39.825 -51.738  13.407  1.00  0.00     0.002 C 
HETATM   23  C   UNL     1     -38.296 -51.674  13.427  1.00  0.00     0.000 C 
HETATM   24  C   UNL     1     -37.725 -50.353  12.901  1.00  0.00     0.002 C 
HETATM   25  C   UNL     1     -38.364 -49.919  11.583  1.00  0.00     0.025 C 
ENDBRANCH   6  20
TORSDOF 3
ENDMDL
MODEL 5
REMARK VINA RESULT:      -6.4      4.549      7.685
REMARK  3 active torsions:
REMARK  status: ('A' for Active; 'I' for Inactive)
REMARK    1  A    between atoms: N_6  and  C_7 
REMARK    2  A    between atoms: C_7  and  C_8 
REMARK       I    between atoms: C_8  and  N_10 
REMARK       I    between atoms: N_10  and  C_11 
REMARK       I    between atoms: C_11  and  N_13 
REMARK    3  A    between atoms: N_13  and  C_14 
ROOT
HETATM    1  C   UNL     1     -38.714 -49.863  11.807  1.00  0.00     0.245 C 
HETATM    2  O   UNL     1     -37.704 -49.740  11.105  1.00  0.00    -0.271 OA
HETATM    3  N   UNL     1     -39.562 -50.940  11.614  1.00  0.00    -0.278 N 
HETATM    4  C   UNL     1     -40.627 -51.260  12.411  1.00  0.00     0.323 C 
HETATM    5  O   UNL     1     -41.063 -50.541  13.302  1.00  0.00    -0.247 OA
HETATM    6  N   UNL     1     -41.163 -52.492  12.165  1.00  0.00    -0.338 N 
HETATM    7  H   UNL     1     -39.245 -51.598  10.922  1.00  0.00     0.173 HD
HETATM    8  H   UNL     1     -41.100 -52.857  11.225  1.00  0.00     0.164 HD
ENDROOT
BRANCH   1   9
HETATM    9  C   UNL     1     -39.086 -48.917  12.959  1.00  0.00     0.255 C 
BRANCH   9  10
HETATM   10  N   UNL     1     -39.538 -47.606  12.546  1.00  0.00    -0.248 N 
HETATM   11  N   UNL     1     -39.697 -47.411  11.195  1.00  0.00    -0.305 N 
HETATM   12  C   UNL     1     -39.961 -46.207  10.813  1.00  0.00     0.133 A 
ATOM     13  HN  UNL     1     -39.612 -48.179  10.529  1.00  0.00     0.186 HD
HETATM   14  C   UNL     1     -40.082 -45.039  11.694  1.00  0.00     0.078 A 
HETATM   15 CL   UNL     1     -40.417 -43.533  10.945  1.00  0.00    -0.081 Cl
HETATM   16  C   UNL     1     -39.904 -45.237  13.001  1.00  0.00     0.126 A 
HETATM   17  C   UNL     1     -39.606 -46.603  13.510  1.00  0.00     0.285 A 
HETATM   18 CL   UNL     1     -39.967 -43.965  14.167  1.00  0.00    -0.076 Cl
HETATM   19  O   UNL     1     -39.408 -46.809  14.706  1.00  0.00    -0.265 OA
ENDBRANCH   9  10
ENDBRANCH   1   9
BRANCH   6  20
HETATM   20  C   UNL     1     -42.221 -53.019  13.018  1.00  0.00     0.086 C 
HETATM   21  C   UNL     1     -43.563 -53.181  12.285  1.00  0.00     0.025 C 
HETATM   22  C   UNL     1     -44.668 -53.471  13.292  1.00  0.00     0.002 C 
HETATM   23  C   UNL     1     -44.351 -54.691  14.159  1.00  0.00     0.000 C 
HETATM   24  C   UNL     1     -42.933 -54.686  14.739  1.00  0.00     0.002 C 
HETATM   25  C   UNL     1     -41.871 -54.353  13.694  1.00  0.00     0.025 C 
ENDBRANCH   6  20
TORSDOF 3
ENDMDL
MODEL 6
REMARK VINA RESULT:      -6.3      4.260      6.849
REMARK  3 active torsions:
REMARK  status: ('A' for Active; 'I' for Inactive)
REMARK    1  A    between atoms: N_6  and  C_7 
REMARK    2  A    between atoms: C_7  and  C_8 
REMARK       I    between atoms: C_8  and  N_10 
REMARK       I    between atoms: N_10  and  C_11 
REMARK       I    between atoms: C_11  and  N_13 
REMARK    3  A    between atoms: N_13  and  C_14 
ROOT
HETATM    1  C   UNL     1     -40.676 -50.444  11.699  1.00  0.00     0.245 C 
HETATM    2  O   UNL     1     -40.302 -49.728  10.764  1.00  0.00    -0.271 OA
HETATM    3  N   UNL     1     -42.029 -50.623  11.934  1.00  0.00    -0.278 N 
HETATM    4  C   UNL     1     -42.566 -51.495  12.842  1.00  0.00     0.323 C 
HETATM    5  O   UNL     1     -41.913 -52.108  13.677  1.00  0.00    -0.247 OA
HETATM    6  N   UNL     1     -43.915 -51.669  12.724  1.00  0.00    -0.338 N 
HETATM    7  H   UNL     1     -42.629 -50.179  11.258  1.00  0.00     0.173 HD
HETATM    8  H   UNL     1     -44.464 -50.899  12.370  1.00  0.00     0.164 HD
ENDROOT
BRANCH   1   9
HETATM    9  C   UNL     1     -39.729 -51.231  12.617  1.00  0.00     0.255 C 
BRANCH   9  10
HETATM   10  N   UNL     1     -38.960 -50.418  13.535  1.00  0.00    -0.248 N 
HETATM   11  N   UNL     1     -38.573 -49.180  13.080  1.00  0.00    -0.305 N 
HETATM   12  C   UNL     1     -37.769 -48.513  13.836  1.00  0.00     0.133 A 
ATOM     13  HN  UNL     1     -38.905 -48.809  12.189  1.00  0.00     0.186 HD
HETATM   14  C   UNL     1     -37.225 -48.972  15.120  1.00  0.00     0.078 A 
HETATM   15 CL   UNL     1     -36.153 -47.910  15.934  1.00  0.00    -0.081 Cl
HETATM   16  C   UNL     1     -37.591 -50.184  15.541  1.00  0.00     0.126 A 
HETATM   17  C   UNL     1     -38.523 -51.003  14.721  1.00  0.00     0.285 A 
HETATM   18 CL   UNL     1     -37.007 -50.893  17.003  1.00  0.00    -0.076 Cl
HETATM   19  O   UNL     1     -38.853 -52.135  15.070  1.00  0.00    -0.265 OA
ENDBRANCH   9  10
ENDBRANCH   1   9
BRANCH   6  20
HETATM   20  C   UNL     1     -44.604 -52.660  13.541  1.00  0.00     0.086 C 
HETATM   21  C   UNL     1     -46.038 -52.246  13.912  1.00  0.00     0.025 C 
HETATM   22  C   UNL     1     -46.587 -53.189  14.975  1.00  0.00     0.002 C 
HETATM   23  C   UNL     1     -46.521 -54.653  14.535  1.00  0.00     0.000 C 
HETATM   24  C   UNL     1     -45.167 -55.062  13.948  1.00  0.00     0.002 C 
HETATM   25  C   UNL     1     -44.647 -54.062  12.916  1.00  0.00     0.025 C 
ENDBRANCH   6  20
TORSDOF 3
ENDMDL
MODEL 7
REMARK VINA RESULT:      -6.2      1.851      2.604
REMARK  3 active torsions:
REMARK  status: ('A' for Active; 'I' for Inactive)
REMARK    1  A    between atoms: N_6  and  C_7 
REMARK    2  A    between atoms: C_7  and  C_8 
REMARK       I    between atoms: C_8  and  N_10 
REMARK       I    between atoms: N_10  and  C_11 
REMARK       I    between atoms: C_11  and  N_13 
REMARK    3  A    between atoms: N_13  and  C_14 
ROOT
HETATM    1  C   UNL     1     -40.917 -51.657  12.005  1.00  0.00     0.245 C 
HETATM    2  O   UNL     1     -40.881 -52.750  11.429  1.00  0.00    -0.271 OA
HETATM    3  N   UNL     1     -40.585 -50.503  11.318  1.00  0.00    -0.278 N 
HETATM    4  C   UNL     1     -40.720 -49.228  11.799  1.00  0.00     0.323 C 
HETATM    5  O   UNL     1     -40.998 -48.957  12.960  1.00  0.00    -0.247 OA
HETATM    6  N   UNL     1     -40.557 -48.252  10.858  1.00  0.00    -0.338 N 
HETATM    7  H   UNL     1     -40.384 -50.645  10.342  1.00  0.00     0.173 HD
HETATM    8  H   UNL     1     -39.942 -48.441  10.080  1.00  0.00     0.164 HD
ENDROOT
BRANCH   1   9
HETATM    9  C   UNL     1     -41.379 -51.461  13.457  1.00  0.00     0.255 C 
BRANCH   9  10
HETATM   10  N   UNL     1     -42.587 -52.174  13.811  1.00  0.00    -0.248 N 
HETATM   11  N   UNL     1     -42.460 -53.525  14.027  1.00  0.00    -0.305 N 
HETATM   12  C   UNL     1     -43.553 -54.187  14.201  1.00  0.00     0.133 A 
ATOM     13  HN  UNL     1     -41.547 -53.981  14.047  1.00  0.00     0.186 HD
HETATM   14  C   UNL     1     -44.908 -53.624  14.168  1.00  0.00     0.078 A 
HETATM   15 CL   UNL     1     -46.210 -54.714  14.406  1.00  0.00    -0.081 Cl
HETATM   16  C   UNL     1     -45.019 -52.314  13.936  1.00  0.00     0.126 A 
HETATM   17  C   UNL     1     -43.798 -51.490  13.736  1.00  0.00     0.285 A 
HETATM   18 CL   UNL     1     -46.539 -51.502  13.820  1.00  0.00    -0.076 Cl
HETATM   19  O   UNL     1     -43.874 -50.287  13.491  1.00  0.00    -0.265 OA
ENDBRANCH   9  10
ENDBRANCH   1   9
BRANCH   6  20
HETATM   20  C   UNL     1     -40.795 -46.855  11.199  1.00  0.00     0.086 C 
HETATM   21  C   UNL     1     -39.732 -45.904  10.623  1.00  0.00     0.025 C 
HETATM   22  C   UNL     1     -39.891 -44.520  11.239  1.00  0.00     0.002 C 
HETATM   23  C   UNL     1     -41.305 -43.964  11.048  1.00  0.00     0.000 C 
HETATM   24  C   UNL     1     -42.413 -44.960  11.402  1.00  0.00     0.002 C 
HETATM   25  C   UNL     1     -42.182 -46.341  10.789  1.00  0.00     0.025 C 
ENDBRANCH   6  20
TORSDOF 3
ENDMDL
MODEL 8
REMARK VINA RESULT:      -6.2      2.252      2.659
REMARK  3 active torsions:
REMARK  status: ('A' for Active; 'I' for Inactive)
REMARK    1  A    between atoms: N_6  and  C_7 
REMARK    2  A    between atoms: C_7  and  C_8 
REMARK       I    between atoms: C_8  and  N_10 
REMARK       I    between atoms: N_10  and  C_11 
REMARK       I    between atoms: C_11  and  N_13 
REMARK    3  A    between atoms: N_13  and  C_14 
ROOT
HETATM    1  C   UNL     1     -37.669 -50.875  12.274  1.00  0.00     0.245 C 
HETATM    2  O   UNL     1     -36.849 -51.661  11.787  1.00  0.00    -0.271 OA
HETATM    3  N   UNL     1     -37.930 -49.670  11.644  1.00  0.00    -0.278 N 
HETATM    4  C   UNL     1     -38.909 -48.785  12.005  1.00  0.00     0.323 C 
HETATM    5  O   UNL     1     -39.572 -48.871  13.031  1.00  0.00    -0.247 OA
HETATM    6  N   UNL     1     -39.131 -47.791  11.095  1.00  0.00    -0.338 N 
HETATM    7  H   UNL     1     -37.449 -49.548  10.769  1.00  0.00     0.173 HD
HETATM    8  H   UNL     1     -38.355 -47.489  10.524  1.00  0.00     0.164 HD
ENDROOT
BRANCH   1   9
HETATM    9  C   UNL     1     -38.499 -51.164  13.534  1.00  0.00     0.255 C 
BRANCH   9  10
HETATM   10  N   UNL     1     -39.653 -52.011  13.320  1.00  0.00    -0.248 N 
HETATM   11  N   UNL     1     -40.417 -51.735  12.211  1.00  0.00    -0.305 N 
HETATM   12  C   UNL     1     -41.521 -52.391  12.094  1.00  0.00     0.133 A 
ATOM     13  HN  UNL     1     -40.125 -51.047  11.516  1.00  0.00     0.186 HD
HETATM   14  C   UNL     1     -42.032 -53.382  13.049  1.00  0.00     0.078 A 
HETATM   15 CL   UNL     1     -43.542 -54.108  12.684  1.00  0.00    -0.081 Cl
HETATM   16  C   UNL     1     -41.291 -53.625  14.132  1.00  0.00     0.126 A 
HETATM   17  C   UNL     1     -40.001 -52.910  14.324  1.00  0.00     0.285 A 
HETATM   18 CL   UNL     1     -41.768 -54.726  15.375  1.00  0.00    -0.076 Cl
HETATM   19  O   UNL     1     -39.315 -53.093  15.328  1.00  0.00    -0.265 OA
ENDBRANCH   9  10
ENDBRANCH   1   9
BRANCH   6  20
HETATM   20  C   UNL     1     -40.227 -46.850  11.285  1.00  0.00     0.086 C 
HETATM   21  C   UNL     1     -39.907 -45.437  10.767  1.00  0.00     0.025 C 
HETATM   22  C   UNL     1     -40.975 -44.460  11.241  1.00  0.00     0.002 C 
HETATM   23  C   UNL     1     -42.382 -44.903  10.832  1.00  0.00     0.000 C 
HETATM   24  C   UNL     1     -42.677 -46.377  11.129  1.00  0.00     0.002 C 
HETATM   25  C   UNL     1     -41.556 -47.306  10.667  1.00  0.00     0.025 C 
ENDBRANCH   6  20
TORSDOF 3
ENDMDL
MODEL 9
REMARK VINA RESULT:      -6.2      3.227      4.433
REMARK  3 active torsions:
REMARK  status: ('A' for Active; 'I' for Inactive)
REMARK    1  A    between atoms: N_6  and  C_7 
REMARK    2  A    between atoms: C_7  and  C_8 
REMARK       I    between atoms: C_8  and  N_10 
REMARK       I    between atoms: N_10  and  C_11 
REMARK       I    between atoms: C_11  and  N_13 
REMARK    3  A    between atoms: N_13  and  C_14 
ROOT
HETATM    1  C   UNL     1     -44.049 -53.724  12.947  1.00  0.00     0.245 C 
HETATM    2  O   UNL     1     -44.859 -54.476  12.394  1.00  0.00    -0.271 OA
HETATM    3  N   UNL     1     -43.249 -52.889  12.186  1.00  0.00    -0.278 N 
HETATM    4  C   UNL     1     -42.421 -51.919  12.682  1.00  0.00     0.323 C 
HETATM    5  O   UNL     1     -42.160 -51.776  13.869  1.00  0.00    -0.247 OA
HETATM    6  N   UNL     1     -41.922 -51.070  11.736  1.00  0.00    -0.338 N 
HETATM    7  H   UNL     1     -43.438 -52.923  11.198  1.00  0.00     0.173 HD
HETATM    8  H   UNL     1     -41.787 -51.427  10.801  1.00  0.00     0.164 HD
ENDROOT
BRANCH   1   9
HETATM    9  C   UNL     1     -43.897 -53.589  14.470  1.00  0.00     0.255 C 
BRANCH   9  10
HETATM   10  N   UNL     1     -45.054 -53.047  15.150  1.00  0.00    -0.248 N 
HETATM   11  N   UNL     1     -45.706 -52.014  14.520  1.00  0.00    -0.305 N 
HETATM   12  C   UNL     1     -46.647 -51.434  15.185  1.00  0.00     0.133 A 
ATOM     13  HN  UNL     1     -45.458 -51.721  13.574  1.00  0.00     0.186 HD
HETATM   14  C   UNL     1     -47.059 -51.772  16.553  1.00  0.00     0.078 A 
HETATM   15 CL   UNL     1     -48.325 -50.839  17.236  1.00  0.00    -0.081 Cl
HETATM   16  C   UNL     1     -46.404 -52.762  17.162  1.00  0.00     0.126 A 
HETATM   17  C   UNL     1     -45.314 -53.479  16.447  1.00  0.00     0.285 A 
HETATM   18 CL   UNL     1     -46.731 -53.255  18.784  1.00  0.00    -0.076 Cl
HETATM   19  O   UNL     1     -44.674 -54.375  16.996  1.00  0.00    -0.265 OA
ENDBRANCH   9  10
ENDBRANCH   1   9
BRANCH   6  20
HETATM   20  C   UNL     1     -41.127 -49.914  12.131  1.00  0.00     0.086 C 
HETATM   21  C   UNL     1     -39.840 -49.754  11.302  1.00  0.00     0.025 C 
HETATM   22  C   UNL     1     -38.942 -48.704  11.943  1.00  0.00     0.002 C 
HETATM   23  C   UNL     1     -39.662 -47.365  12.126  1.00  0.00     0.000 C 
HETATM   24  C   UNL     1     -41.054 -47.493  12.752  1.00  0.00     0.002 C 
HETATM   25  C   UNL     1     -41.897 -48.586  12.096  1.00  0.00     0.025 C 
ENDBRANCH   6  20
TORSDOF 3
ENDMDL
