MODEL 1
REMARK VINA RESULT:      -5.6      0.000      0.000
REMARK  4 active torsions:
REMARK  status: ('A' for Active; 'I' for Inactive)
REMARK       I    between atoms: N_1  and  C_2 
REMARK    1  A    between atoms: C_2  and  C_4 
REMARK    2  A    between atoms: C_4  and  N_5 
REMARK    3  A    between atoms: C_8  and  N_11 
REMARK       I    between atoms: N_11  and  C_12 
REMARK       I    between atoms: C_12  and  N_14 
REMARK    4  A    between atoms: N_14  and  C_15 
ROOT
HETATM    1  N   UNL     1     -44.188 -52.626  13.643  1.00  0.00     0.097 N 
HETATM    2  C   UNL     1     -43.296 -53.089  12.565  1.00  0.00     0.275 C 
HETATM    3  C   UNL     1     -41.882 -53.468  13.016  1.00  0.00     0.055 C 
HETATM    4  C   UNL     1     -41.212 -52.373  13.847  1.00  0.00     0.089 C 
HETATM    5  C   UNL     1     -42.163 -51.775  14.892  1.00  0.00     0.055 C 
HETATM    6  C   UNL     1     -43.563 -51.487  14.335  1.00  0.00     0.275 C 
ENDROOT
BRANCH   4   7
HETATM    7  N   UNL     1     -40.700 -51.321  12.993  1.00  0.00    -0.338 N 
HETATM    8  C   UNL     1     -39.415 -51.215  12.541  1.00  0.00     0.322 C 
HETATM    9  O   UNL     1     -38.522 -51.997  12.849  1.00  0.00    -0.247 OA
HETATM   10  N   UNL     1     -39.142 -50.130  11.756  1.00  0.00    -0.289 N 
HETATM   11  H   UNL     1     -38.175 -49.974  11.516  1.00  0.00     0.172 HD
HETATM   12  H   UNL     1     -41.372 -50.725  12.520  1.00  0.00     0.164 HD
BRANCH  10  13
HETATM   13  C   UNL     1     -40.081 -49.222  11.349  1.00  0.00     0.152 A 
HETATM   14  N   UNL     1     -40.963 -49.381  10.389  1.00  0.00    -0.346 N 
HETATM   15  C   UNL     1     -41.772 -48.269  10.322  1.00  0.00     0.097 A 
ATOM     16  HN  UNL     1     -41.037 -50.202   9.787  1.00  0.00     0.167 HD
HETATM   17  C   UNL     1     -41.495 -47.288  11.247  1.00  0.00     0.070 A 
HETATM   18  S   UNL     1     -40.126 -47.744  12.186  1.00  0.00    -0.064 SA
ENDBRANCH  10  13
ENDBRANCH   4   7
BRANCH   1  19
HETATM   19  C   UNL     1     -44.548 -53.698  14.608  1.00  0.00     0.374 C 
BRANCH  19  20
HETATM   20  C   UNL     1     -45.782 -54.495  14.177  1.00  0.00     0.243 C 
HETATM   21  N   UNL     1     -46.962 -53.810  14.173  1.00  0.00    -0.369 N 
HETATM   22  H   UNL     1     -47.800 -54.286  13.868  1.00  0.00     0.159 HD
HETATM   23  H   UNL     1     -46.956 -52.805  14.298  1.00  0.00     0.159 HD
HETATM   24  O   UNL     1     -45.749 -55.696  13.925  1.00  0.00    -0.272 OA
ENDBRANCH  19  20
ENDBRANCH   1  19
TORSDOF 4
ENDMDL
MODEL 2
REMARK VINA RESULT:      -5.5      3.056      6.449
REMARK  4 active torsions:
REMARK  status: ('A' for Active; 'I' for Inactive)
REMARK       I    between atoms: N_1  and  C_2 
REMARK    1  A    between atoms: C_2  and  C_4 
REMARK    2  A    between atoms: C_4  and  N_5 
REMARK    3  A    between atoms: C_8  and  N_11 
REMARK       I    between atoms: N_11  and  C_12 
REMARK       I    between atoms: C_12  and  N_14 
REMARK    4  A    between atoms: N_14  and  C_15 
ROOT
HETATM    1  N   UNL     1     -40.269 -51.571  13.199  1.00  0.00     0.097 N 
HETATM    2  C   UNL     1     -41.118 -51.247  14.360  1.00  0.00     0.275 C 
HETATM    3  C   UNL     1     -41.221 -52.353  15.413  1.00  0.00     0.055 C 
HETATM    4  C   UNL     1     -41.607 -53.707  14.816  1.00  0.00     0.089 C 
HETATM    5  C   UNL     1     -40.834 -54.012  13.525  1.00  0.00     0.055 C 
HETATM    6  C   UNL     1     -40.755 -52.812  12.574  1.00  0.00     0.275 C 
ENDROOT
BRANCH   4   7
HETATM    7  N   UNL     1     -43.031 -53.766  14.558  1.00  0.00    -0.338 N 
HETATM    8  C   UNL     1     -43.837 -54.847  14.777  1.00  0.00     0.322 C 
HETATM    9  O   UNL     1     -43.425 -55.926  15.190  1.00  0.00    -0.247 OA
HETATM   10  N   UNL     1     -45.154 -54.691  14.447  1.00  0.00    -0.289 N 
HETATM   11  H   UNL     1     -45.734 -55.515  14.490  1.00  0.00     0.172 HD
HETATM   12  H   UNL     1     -43.521 -52.891  14.396  1.00  0.00     0.164 HD
BRANCH  10  13
HETATM   13  C   UNL     1     -45.700 -53.519  14.001  1.00  0.00     0.152 A 
HETATM   14  N   UNL     1     -45.867 -53.156  12.750  1.00  0.00    -0.346 N 
HETATM   15  C   UNL     1     -46.505 -51.936  12.709  1.00  0.00     0.097 A 
ATOM     16  HN  UNL     1     -45.570 -53.694  11.935  1.00  0.00     0.167 HD
HETATM   17  C   UNL     1     -46.824 -51.402  13.936  1.00  0.00     0.070 A 
HETATM   18  S   UNL     1     -46.238 -52.428  15.187  1.00  0.00    -0.064 SA
ENDBRANCH  10  13
ENDBRANCH   4   7
BRANCH   1  19
HETATM   19  C   UNL     1     -38.826 -51.681  13.540  1.00  0.00     0.374 C 
BRANCH  19  20
HETATM   20  C   UNL     1     -37.913 -51.143  12.436  1.00  0.00     0.243 C 
HETATM   21  N   UNL     1     -38.482 -50.249  11.575  1.00  0.00    -0.369 N 
HETATM   22  H   UNL     1     -37.910 -49.844  10.846  1.00  0.00     0.159 HD
HETATM   23  H   UNL     1     -39.398 -49.871  11.782  1.00  0.00     0.159 HD
HETATM   24  O   UNL     1     -36.764 -51.537  12.265  1.00  0.00    -0.272 OA
ENDBRANCH  19  20
ENDBRANCH   1  19
TORSDOF 4
ENDMDL
MODEL 3
REMARK VINA RESULT:      -5.5      4.809      8.627
REMARK  4 active torsions:
REMARK  status: ('A' for Active; 'I' for Inactive)
REMARK       I    between atoms: N_1  and  C_2 
REMARK    1  A    between atoms: C_2  and  C_4 
REMARK    2  A    between atoms: C_4  and  N_5 
REMARK    3  A    between atoms: C_8  and  N_11 
REMARK       I    between atoms: N_11  and  C_12 
REMARK       I    between atoms: C_12  and  N_14 
REMARK    4  A    between atoms: N_14  and  C_15 
ROOT
HETATM    1  N   UNL     1     -40.485 -43.828  12.396  1.00  0.00     0.097 N 
HETATM    2  C   UNL     1     -39.426 -44.570  11.688  1.00  0.00     0.275 C 
HETATM    3  C   UNL     1     -39.768 -44.970  10.250  1.00  0.00     0.055 C 
HETATM    4  C   UNL     1     -41.110 -45.695  10.140  1.00  0.00     0.089 C 
HETATM    5  C   UNL     1     -42.204 -45.021  10.979  1.00  0.00     0.055 C 
HETATM    6  C   UNL     1     -41.726 -44.620  12.380  1.00  0.00     0.275 C 
ENDROOT
BRANCH   4   7
HETATM    7  N   UNL     1     -40.977 -47.083  10.536  1.00  0.00    -0.338 N 
HETATM    8  C   UNL     1     -41.867 -48.081  10.255  1.00  0.00     0.322 C 
HETATM    9  O   UNL     1     -42.921 -47.899   9.655  1.00  0.00    -0.247 OA
HETATM   10  N   UNL     1     -41.553 -49.319  10.740  1.00  0.00    -0.289 N 
HETATM   11  H   UNL     1     -42.255 -50.036  10.644  1.00  0.00     0.172 HD
HETATM   12  H   UNL     1     -40.070 -47.396  10.868  1.00  0.00     0.164 HD
BRANCH  10  13
HETATM   13  C   UNL     1     -40.390 -49.613  11.399  1.00  0.00     0.152 A 
HETATM   14  N   UNL     1     -39.228 -49.891  10.856  1.00  0.00    -0.346 N 
HETATM   15  C   UNL     1     -38.290 -50.069  11.849  1.00  0.00     0.097 A 
ATOM     16  HN  UNL     1     -39.048 -49.965   9.854  1.00  0.00     0.167 HD
HETATM   17  C   UNL     1     -38.759 -49.907  13.132  1.00  0.00     0.070 A 
HETATM   18  S   UNL     1     -40.451 -49.593  13.097  1.00  0.00    -0.064 SA
ENDBRANCH  10  13
ENDBRANCH   4   7
BRANCH   1  19
HETATM   19  C   UNL     1     -40.718 -42.468  11.843  1.00  0.00     0.374 C 
BRANCH  19  20
HETATM   20  C   UNL     1     -40.068 -41.366  12.683  1.00  0.00     0.243 C 
HETATM   21  N   UNL     1     -40.269 -40.089  12.248  1.00  0.00    -0.369 N 
HETATM   22  H   UNL     1     -39.883 -39.325  12.787  1.00  0.00     0.159 HD
HETATM   23  H   UNL     1     -40.940 -39.912  11.510  1.00  0.00     0.159 HD
HETATM   24  O   UNL     1     -39.340 -41.598  13.644  1.00  0.00    -0.272 OA
ENDBRANCH  19  20
ENDBRANCH   1  19
TORSDOF 4
ENDMDL
MODEL 4
REMARK VINA RESULT:      -5.4      3.165      6.639
REMARK  4 active torsions:
REMARK  status: ('A' for Active; 'I' for Inactive)
REMARK       I    between atoms: N_1  and  C_2 
REMARK    1  A    between atoms: C_2  and  C_4 
REMARK    2  A    between atoms: C_4  and  N_5 
REMARK    3  A    between atoms: C_8  and  N_11 
REMARK       I    between atoms: N_11  and  C_12 
REMARK       I    between atoms: C_12  and  N_14 
REMARK    4  A    between atoms: N_14  and  C_15 
ROOT
HETATM    1  N   UNL     1     -42.294 -47.542  11.864  1.00  0.00     0.097 N 
HETATM    2  C   UNL     1     -42.603 -48.146  13.172  1.00  0.00     0.275 C 
HETATM    3  C   UNL     1     -41.513 -49.062  13.734  1.00  0.00     0.055 C 
HETATM    4  C   UNL     1     -41.060 -50.127  12.734  1.00  0.00     0.089 C 
HETATM    5  C   UNL     1     -40.861 -49.552  11.326  1.00  0.00     0.055 C 
HETATM    6  C   UNL     1     -41.991 -48.609  10.896  1.00  0.00     0.275 C 
ENDROOT
BRANCH   4   7
HETATM    7  N   UNL     1     -42.010 -51.221  12.686  1.00  0.00    -0.338 N 
HETATM    8  C   UNL     1     -41.727 -52.507  12.319  1.00  0.00     0.322 C 
HETATM    9  O   UNL     1     -40.619 -52.876  11.944  1.00  0.00    -0.247 OA
HETATM   10  N   UNL     1     -42.779 -53.379  12.327  1.00  0.00    -0.289 N 
HETATM   11  H   UNL     1     -42.611 -54.297  11.946  1.00  0.00     0.172 HD
HETATM   12  H   UNL     1     -42.905 -51.093  13.146  1.00  0.00     0.164 HD
BRANCH  10  13
HETATM   13  C   UNL     1     -44.040 -53.056  12.750  1.00  0.00     0.152 A 
HETATM   14  N   UNL     1     -45.009 -52.556  12.019  1.00  0.00    -0.346 N 
HETATM   15  C   UNL     1     -46.143 -52.427  12.790  1.00  0.00     0.097 A 
ATOM     16  HN  UNL     1     -44.933 -52.302  11.034  1.00  0.00     0.167 HD
HETATM   17  C   UNL     1     -46.015 -52.849  14.093  1.00  0.00     0.070 A 
HETATM   18  S   UNL     1     -44.396 -53.355  14.384  1.00  0.00    -0.064 SA
ENDBRANCH  10  13
ENDBRANCH   4   7
BRANCH   1  19
HETATM   19  C   UNL     1     -41.186 -46.552  11.922  1.00  0.00     0.374 C 
BRANCH  19  20
HETATM   20  C   UNL     1     -40.972 -45.823  10.593  1.00  0.00     0.243 C 
HETATM   21  N   UNL     1     -39.695 -45.826  10.111  1.00  0.00    -0.369 N 
HETATM   22  H   UNL     1     -39.509 -45.382   9.223  1.00  0.00     0.159 HD
HETATM   23  H   UNL     1     -38.998 -46.416  10.549  1.00  0.00     0.159 HD
HETATM   24  O   UNL     1     -41.860 -45.199  10.020  1.00  0.00    -0.272 OA
ENDBRANCH  19  20
ENDBRANCH   1  19
TORSDOF 4
ENDMDL
MODEL 5
REMARK VINA RESULT:      -5.2      3.797      7.194
REMARK  4 active torsions:
REMARK  status: ('A' for Active; 'I' for Inactive)
REMARK       I    between atoms: N_1  and  C_2 
REMARK    1  A    between atoms: C_2  and  C_4 
REMARK    2  A    between atoms: C_4  and  N_5 
REMARK    3  A    between atoms: C_8  and  N_11 
REMARK       I    between atoms: N_11  and  C_12 
REMARK       I    between atoms: C_12  and  N_14 
REMARK    4  A    between atoms: N_14  and  C_15 
ROOT
HETATM    1  N   UNL     1     -37.786 -49.060  15.415  1.00  0.00     0.097 N 
HETATM    2  C   UNL     1     -37.419 -50.105  14.443  1.00  0.00     0.275 C 
HETATM    3  C   UNL     1     -37.498 -49.677  12.975  1.00  0.00     0.055 C 
HETATM    4  C   UNL     1     -38.842 -49.042  12.614  1.00  0.00     0.089 C 
HETATM    5  C   UNL     1     -39.318 -48.046  13.680  1.00  0.00     0.055 C 
HETATM    6  C   UNL     1     -39.140 -48.567  15.111  1.00  0.00     0.275 C 
ENDROOT
BRANCH   4   7
HETATM    7  N   UNL     1     -39.852 -50.061  12.412  1.00  0.00    -0.338 N 
HETATM    8  C   UNL     1     -40.922 -49.966  11.567  1.00  0.00     0.322 C 
HETATM    9  O   UNL     1     -41.172 -48.968  10.899  1.00  0.00    -0.247 OA
HETATM   10  N   UNL     1     -41.765 -51.042  11.544  1.00  0.00    -0.289 N 
HETATM   11  H   UNL     1     -42.619 -50.938  11.018  1.00  0.00     0.172 HD
HETATM   12  H   UNL     1     -39.659 -50.995  12.758  1.00  0.00     0.164 HD
BRANCH  10  13
HETATM   13  C   UNL     1     -41.551 -52.201  12.239  1.00  0.00     0.152 A 
HETATM   14  N   UNL     1     -40.836 -53.231  11.848  1.00  0.00    -0.346 N 
HETATM   15  C   UNL     1     -40.809 -54.175  12.850  1.00  0.00     0.097 A 
ATOM     16  HN  UNL     1     -40.374 -53.317  10.942  1.00  0.00     0.167 HD
HETATM   17  C   UNL     1     -41.495 -53.834  13.993  1.00  0.00     0.070 A 
HETATM   18  S   UNL     1     -42.263 -52.309  13.778  1.00  0.00    -0.064 SA
ENDBRANCH  10  13
ENDBRANCH   4   7
BRANCH   1  19
HETATM   19  C   UNL     1     -36.813 -47.937  15.464  1.00  0.00     0.374 C 
BRANCH  19  20
HETATM   20  C   UNL     1     -35.738 -48.129  16.537  1.00  0.00     0.243 C 
HETATM   21  N   UNL     1     -35.827 -47.307  17.623  1.00  0.00    -0.369 N 
HETATM   22  H   UNL     1     -35.156 -47.415  18.371  1.00  0.00     0.159 HD
HETATM   23  H   UNL     1     -36.651 -46.733  17.748  1.00  0.00     0.159 HD
HETATM   24  O   UNL     1     -34.800 -48.910  16.413  1.00  0.00    -0.272 OA
ENDBRANCH  19  20
ENDBRANCH   1  19
TORSDOF 4
ENDMDL
MODEL 6
REMARK VINA RESULT:      -5.2      1.731      2.023
REMARK  4 active torsions:
REMARK  status: ('A' for Active; 'I' for Inactive)
REMARK       I    between atoms: N_1  and  C_2 
REMARK    1  A    between atoms: C_2  and  C_4 
REMARK    2  A    between atoms: C_4  and  N_5 
REMARK    3  A    between atoms: C_8  and  N_11 
REMARK       I    between atoms: N_11  and  C_12 
REMARK       I    between atoms: C_12  and  N_14 
REMARK    4  A    between atoms: N_14  and  C_15 
ROOT
HETATM    1  N   UNL     1     -42.460 -52.664  14.097  1.00  0.00     0.097 N 
HETATM    2  C   UNL     1     -42.453 -52.586  12.625  1.00  0.00     0.275 C 
HETATM    3  C   UNL     1     -41.068 -52.681  11.980  1.00  0.00     0.055 C 
HETATM    4  C   UNL     1     -40.065 -51.698  12.583  1.00  0.00     0.089 C 
HETATM    5  C   UNL     1     -40.143 -51.656  14.115  1.00  0.00     0.055 C 
HETATM    6  C   UNL     1     -41.583 -51.615  14.642  1.00  0.00     0.275 C 
ENDROOT
BRANCH   4   7
HETATM    7  N   UNL     1     -40.266 -50.367  12.047  1.00  0.00    -0.338 N 
HETATM    8  C   UNL     1     -39.279 -49.472  11.742  1.00  0.00     0.322 C 
HETATM    9  O   UNL     1     -38.086 -49.690  11.928  1.00  0.00    -0.247 OA
HETATM   10  N   UNL     1     -39.694 -48.262  11.261  1.00  0.00    -0.289 N 
HETATM   11  H   UNL     1     -38.986 -47.553  11.146  1.00  0.00     0.172 HD
HETATM   12  H   UNL     1     -41.182 -50.139  11.675  1.00  0.00     0.164 HD
BRANCH  10  13
HETATM   13  C   UNL     1     -40.999 -47.945  11.004  1.00  0.00     0.152 A 
HETATM   14  N   UNL     1     -41.674 -48.222   9.912  1.00  0.00    -0.346 N 
HETATM   15  C   UNL     1     -42.975 -47.793  10.058  1.00  0.00     0.097 A 
ATOM     16  HN  UNL     1     -41.294 -48.683   9.085  1.00  0.00     0.167 HD
HETATM   17  C   UNL     1     -43.266 -47.210  11.270  1.00  0.00     0.070 A 
HETATM   18  S   UNL     1     -41.842 -47.128  12.233  1.00  0.00    -0.064 SA
ENDBRANCH  10  13
ENDBRANCH   4   7
BRANCH   1  19
HETATM   19  C   UNL     1     -42.071 -54.001  14.616  1.00  0.00     0.374 C 
BRANCH  19  20
HETATM   20  C   UNL     1     -43.268 -54.817  15.112  1.00  0.00     0.243 C 
HETATM   21  N   UNL     1     -44.470 -54.171  15.112  1.00  0.00    -0.369 N 
HETATM   22  H   UNL     1     -45.294 -54.678  15.404  1.00  0.00     0.159 HD
HETATM   23  H   UNL     1     -44.552 -53.270  14.658  1.00  0.00     0.159 HD
HETATM   24  O   UNL     1     -43.163 -55.954  15.562  1.00  0.00    -0.272 OA
ENDBRANCH  19  20
ENDBRANCH   1  19
TORSDOF 4
ENDMDL
MODEL 7
REMARK VINA RESULT:      -5.0      4.071      6.450
REMARK  4 active torsions:
REMARK  status: ('A' for Active; 'I' for Inactive)
REMARK       I    between atoms: N_1  and  C_2 
REMARK    1  A    between atoms: C_2  and  C_4 
REMARK    2  A    between atoms: C_4  and  N_5 
REMARK    3  A    between atoms: C_8  and  N_11 
REMARK       I    between atoms: N_11  and  C_12 
REMARK       I    between atoms: C_12  and  N_14 
REMARK    4  A    between atoms: N_14  and  C_15 
ROOT
HETATM    1  N   UNL     1     -37.255 -49.265  14.856  1.00  0.00     0.097 N 
HETATM    2  C   UNL     1     -38.393 -48.343  15.029  1.00  0.00     0.275 C 
HETATM    3  C   UNL     1     -39.759 -49.022  15.159  1.00  0.00     0.055 C 
HETATM    4  C   UNL     1     -40.033 -50.024  14.037  1.00  0.00     0.089 C 
HETATM    5  C   UNL     1     -38.815 -50.910  13.740  1.00  0.00     0.055 C 
HETATM    6  C   UNL     1     -37.500 -50.124  13.686  1.00  0.00     0.275 C 
ENDROOT
BRANCH   4   7
HETATM    7  N   UNL     1     -40.445 -49.339  12.828  1.00  0.00    -0.338 N 
HETATM    8  C   UNL     1     -40.883 -49.940  11.681  1.00  0.00     0.322 C 
HETATM    9  O   UNL     1     -40.940 -51.156  11.533  1.00  0.00    -0.247 OA
HETATM   10  N   UNL     1     -41.206 -49.103  10.651  1.00  0.00    -0.289 N 
HETATM   11  H   UNL     1     -41.415 -49.534   9.764  1.00  0.00     0.172 HD
HETATM   12  H   UNL     1     -40.622 -48.342  12.884  1.00  0.00     0.164 HD
BRANCH  10  13
HETATM   13  C   UNL     1     -41.191 -47.737  10.738  1.00  0.00     0.152 A 
HETATM   14  N   UNL     1     -40.154 -46.951  10.561  1.00  0.00    -0.346 N 
HETATM   15  C   UNL     1     -40.554 -45.637  10.671  1.00  0.00     0.097 A 
ATOM     16  HN  UNL     1     -39.202 -47.264  10.372  1.00  0.00     0.167 HD
HETATM   17  C   UNL     1     -41.895 -45.452  10.916  1.00  0.00     0.070 A 
HETATM   18  S   UNL     1     -42.671 -46.979  11.087  1.00  0.00    -0.064 SA
ENDBRANCH  10  13
ENDBRANCH   4   7
BRANCH   1  19
HETATM   19  C   UNL     1     -36.976 -50.084  16.065  1.00  0.00     0.374 C 
BRANCH  19  20
HETATM   20  C   UNL     1     -35.555 -49.888  16.598  1.00  0.00     0.243 C 
HETATM   21  N   UNL     1     -35.101 -50.850  17.453  1.00  0.00    -0.369 N 
HETATM   22  H   UNL     1     -34.158 -50.779  17.810  1.00  0.00     0.159 HD
HETATM   23  H   UNL     1     -35.637 -51.701  17.576  1.00  0.00     0.159 HD
HETATM   24  O   UNL     1     -34.877 -48.895  16.351  1.00  0.00    -0.272 OA
ENDBRANCH  19  20
ENDBRANCH   1  19
TORSDOF 4
ENDMDL
MODEL 8
REMARK VINA RESULT:      -4.9      1.970      2.121
REMARK  4 active torsions:
REMARK  status: ('A' for Active; 'I' for Inactive)
REMARK       I    between atoms: N_1  and  C_2 
REMARK    1  A    between atoms: C_2  and  C_4 
REMARK    2  A    between atoms: C_4  and  N_5 
REMARK    3  A    between atoms: C_8  and  N_11 
REMARK       I    between atoms: N_11  and  C_12 
REMARK       I    between atoms: C_12  and  N_14 
REMARK    4  A    between atoms: N_14  and  C_15 
ROOT
HETATM    1  N   UNL     1     -42.926 -52.527  13.529  1.00  0.00     0.097 N 
HETATM    2  C   UNL     1     -42.234 -52.211  12.267  1.00  0.00     0.275 C 
HETATM    3  C   UNL     1     -40.854 -52.857  12.109  1.00  0.00     0.055 C 
HETATM    4  C   UNL     1     -39.941 -52.606  13.310  1.00  0.00     0.089 C 
HETATM    5  C   UNL     1     -40.675 -52.794  14.645  1.00  0.00     0.055 C 
HETATM    6  C   UNL     1     -42.066 -52.148  14.663  1.00  0.00     0.275 C 
ENDROOT
BRANCH   4   7
HETATM    7  N   UNL     1     -39.370 -51.275  13.251  1.00  0.00    -0.338 N 
HETATM    8  C   UNL     1     -38.085 -50.975  12.893  1.00  0.00     0.322 C 
HETATM    9  O   UNL     1     -37.244 -51.822  12.613  1.00  0.00    -0.247 OA
HETATM   10  N   UNL     1     -37.749 -49.650  12.920  1.00  0.00    -0.289 N 
HETATM   11  H   UNL     1     -36.777 -49.426  12.776  1.00  0.00     0.172 HD
HETATM   12  H   UNL     1     -40.005 -50.484  13.274  1.00  0.00     0.164 HD
BRANCH  10  13
HETATM   13  C   UNL     1     -38.629 -48.641  13.200  1.00  0.00     0.152 A 
HETATM   14  N   UNL     1     -39.436 -48.045  12.352  1.00  0.00    -0.346 N 
HETATM   15  C   UNL     1     -40.208 -47.125  13.026  1.00  0.00     0.097 A 
ATOM     16  HN  UNL     1     -39.483 -48.235  11.351  1.00  0.00     0.167 HD
HETATM   17  C   UNL     1     -39.980 -47.051  14.381  1.00  0.00     0.070 A 
HETATM   18  S   UNL     1     -38.702 -48.119  14.815  1.00  0.00    -0.064 SA
ENDBRANCH  10  13
ENDBRANCH   4   7
BRANCH   1  19
HETATM   19  C   UNL     1     -43.340 -53.951  13.632  1.00  0.00     0.374 C 
BRANCH  19  20
HETATM   20  C   UNL     1     -44.800 -54.175  13.231  1.00  0.00     0.243 C 
HETATM   21  N   UNL     1     -45.421 -55.241  13.814  1.00  0.00    -0.369 N 
HETATM   22  H   UNL     1     -46.395 -55.412  13.602  1.00  0.00     0.159 HD
HETATM   23  H   UNL     1     -44.965 -55.730  14.574  1.00  0.00     0.159 HD
HETATM   24  O   UNL     1     -45.372 -53.500  12.380  1.00  0.00    -0.272 OA
ENDBRANCH  19  20
ENDBRANCH   1  19
TORSDOF 4
ENDMDL
MODEL 9
REMARK VINA RESULT:      -4.9      2.958      6.920
REMARK  4 active torsions:
REMARK  status: ('A' for Active; 'I' for Inactive)
REMARK       I    between atoms: N_1  and  C_2 
REMARK    1  A    between atoms: C_2  and  C_4 
REMARK    2  A    between atoms: C_4  and  N_5 
REMARK    3  A    between atoms: C_8  and  N_11 
REMARK       I    between atoms: N_11  and  C_12 
REMARK       I    between atoms: C_12  and  N_14 
REMARK    4  A    between atoms: N_14  and  C_15 
ROOT
HETATM    1  N   UNL     1     -41.639 -51.380  13.330  1.00  0.00     0.097 N 
HETATM    2  C   UNL     1     -41.522 -52.328  14.452  1.00  0.00     0.275 C 
HETATM    3  C   UNL     1     -41.914 -53.771  14.121  1.00  0.00     0.055 C 
HETATM    4  C   UNL     1     -43.288 -53.875  13.459  1.00  0.00     0.089 C 
HETATM    5  C   UNL     1     -43.492 -52.808  12.375  1.00  0.00     0.055 C 
HETATM    6  C   UNL     1     -43.015 -51.416  12.805  1.00  0.00     0.275 C 
ENDROOT
BRANCH   4   7
HETATM    7  N   UNL     1     -44.342 -53.774  14.448  1.00  0.00    -0.338 N 
HETATM    8  C   UNL     1     -45.393 -54.637  14.585  1.00  0.00     0.322 C 
HETATM    9  O   UNL     1     -45.585 -55.594  13.842  1.00  0.00    -0.247 OA
HETATM   10  N   UNL     1     -46.285 -54.344  15.578  1.00  0.00    -0.289 N 
HETATM   11  H   UNL     1     -47.125 -54.901  15.613  1.00  0.00     0.172 HD
HETATM   12  H   UNL     1     -44.199 -53.144  15.232  1.00  0.00     0.164 HD
BRANCH  10  13
HETATM   13  C   UNL     1     -46.137 -53.312  16.463  1.00  0.00     0.152 A 
HETATM   14  N   UNL     1     -46.566 -52.080  16.312  1.00  0.00    -0.346 N 
HETATM   15  C   UNL     1     -46.278 -51.353  17.446  1.00  0.00     0.097 A 
ATOM     16  HN  UNL     1     -47.039 -51.718  15.483  1.00  0.00     0.167 HD
HETATM   17  C   UNL     1     -45.645 -52.056  18.445  1.00  0.00     0.070 A 
HETATM   18  S   UNL     1     -45.334 -53.664  17.918  1.00  0.00    -0.064 SA
ENDBRANCH  10  13
ENDBRANCH   4   7
BRANCH   1  19
HETATM   19  C   UNL     1     -40.653 -51.629  12.245  1.00  0.00     0.374 C 
BRANCH  19  20
HETATM   20  C   UNL     1     -40.070 -50.338  11.666  1.00  0.00     0.243 C 
HETATM   21  N   UNL     1     -40.475 -50.014  10.404  1.00  0.00    -0.369 N 
HETATM   22  H   UNL     1     -40.139 -49.156   9.989  1.00  0.00     0.159 HD
HETATM   23  H   UNL     1     -41.233 -50.532   9.975  1.00  0.00     0.159 HD
HETATM   24  O   UNL     1     -39.226 -49.663  12.249  1.00  0.00    -0.272 OA
ENDBRANCH  19  20
ENDBRANCH   1  19
TORSDOF 4
ENDMDL
