MODEL 1
REMARK VINA RESULT:      -6.0      0.000      0.000
REMARK  3 active torsions:
REMARK  status: ('A' for Active; 'I' for Inactive)
REMARK    1  A    between atoms: N_7  and  C_8 
REMARK    2  A    between atoms: C_8  and  C_9 
REMARK       I    between atoms: C_9  and  N_11 
REMARK    3  A    between atoms: N_11  and  C_12 
ROOT
HETATM    1  C   UNL     1     -42.202 -52.494  12.773  1.00  0.00     0.236 C 
HETATM    2  O   UNL     1     -42.239 -52.369  13.995  1.00  0.00    -0.272 OA
HETATM    3  N   UNL     1     -43.302 -52.835  12.005  1.00  0.00    -0.355 N 
HETATM    4  H   UNL     1     -43.096 -53.321  11.131  1.00  0.00     0.162 HD
ENDROOT
BRANCH   1   5
HETATM    5  C   UNL     1     -40.906 -52.279  11.968  1.00  0.00     0.235 C 
BRANCH   5   6
HETATM    6  N   UNL     1     -40.028 -51.263  12.525  1.00  0.00    -0.303 N 
HETATM    7  C   UNL     1     -40.016 -49.918  12.170  1.00  0.00     0.018 A 
HETATM    8  C   UNL     1     -41.019 -49.305  11.251  1.00  0.00     0.069 C 
HETATM    9  C   UNL     1     -38.993 -49.242  12.712  1.00  0.00     0.080 A 
HETATM   10  S   UNL     1     -37.973 -50.255  13.681  1.00  0.00    -0.039 SA
HETATM   11  C   UNL     1     -38.946 -51.675  13.293  1.00  0.00     0.290 A 
HETATM   12  O   UNL     1     -38.668 -52.816  13.632  1.00  0.00    -0.259 OA
ENDBRANCH   5   6
ENDBRANCH   1   5
BRANCH   3  13
HETATM   13  C   UNL     1     -44.641 -53.038  12.575  1.00  0.00     0.084 C 
HETATM   14  C   UNL     1     -45.099 -51.777  13.326  1.00  0.00     0.025 C 
HETATM   15  C   UNL     1     -46.590 -51.792  13.667  1.00  0.00     0.002 C 
HETATM   16  C   UNL     1     -46.946 -52.449  14.998  1.00  0.00     0.000 C 
HETATM   17  C   UNL     1     -46.195 -53.729  15.349  1.00  0.00     0.000 C 
HETATM   18  C   UNL     1     -45.926 -54.651  14.165  1.00  0.00     0.002 C 
HETATM   19  C   UNL     1     -44.625 -54.313  13.433  1.00  0.00     0.025 C 
ENDBRANCH   3  13
TORSDOF 3
ENDMDL
MODEL 2
REMARK VINA RESULT:      -6.0      2.127      2.721
REMARK  3 active torsions:
REMARK  status: ('A' for Active; 'I' for Inactive)
REMARK    1  A    between atoms: N_7  and  C_8 
REMARK    2  A    between atoms: C_8  and  C_9 
REMARK       I    between atoms: C_9  and  N_11 
REMARK    3  A    between atoms: N_11  and  C_12 
ROOT
HETATM    1  C   UNL     1     -39.450 -52.834  14.010  1.00  0.00     0.236 C 
HETATM    2  O   UNL     1     -39.019 -53.919  13.626  1.00  0.00    -0.272 OA
HETATM    3  N   UNL     1     -40.798 -52.538  14.107  1.00  0.00    -0.355 N 
HETATM    4  H   UNL     1     -41.041 -51.551  14.006  1.00  0.00     0.162 HD
ENDROOT
BRANCH   1   5
HETATM    5  C   UNL     1     -38.513 -51.683  14.425  1.00  0.00     0.235 C 
BRANCH   5   6
HETATM    6  N   UNL     1     -38.295 -50.694  13.382  1.00  0.00    -0.303 N 
HETATM    7  C   UNL     1     -39.052 -49.544  13.184  1.00  0.00     0.018 A 
HETATM    8  C   UNL     1     -40.121 -49.096  14.123  1.00  0.00     0.069 C 
HETATM    9  C   UNL     1     -38.741 -48.902  12.049  1.00  0.00     0.080 A 
HETATM   10  S   UNL     1     -37.500 -49.712  11.151  1.00  0.00    -0.039 SA
HETATM   11  C   UNL     1     -37.431 -51.013  12.342  1.00  0.00     0.290 A 
HETATM   12  O   UNL     1     -36.752 -52.022  12.223  1.00  0.00    -0.259 OA
ENDBRANCH   5   6
ENDBRANCH   1   5
BRANCH   3  13
HETATM   13  C   UNL     1     -41.853 -53.513  13.802  1.00  0.00     0.084 C 
HETATM   14  C   UNL     1     -43.038 -52.818  13.110  1.00  0.00     0.025 C 
HETATM   15  C   UNL     1     -44.023 -53.802  12.479  1.00  0.00     0.002 C 
HETATM   16  C   UNL     1     -45.133 -54.294  13.403  1.00  0.00     0.000 C 
HETATM   17  C   UNL     1     -44.732 -54.621  14.838  1.00  0.00     0.000 C 
HETATM   18  C   UNL     1     -43.363 -55.278  14.979  1.00  0.00     0.002 C 
HETATM   19  C   UNL     1     -42.225 -54.260  15.092  1.00  0.00     0.025 C 
ENDBRANCH   3  13
TORSDOF 3
ENDMDL
MODEL 3
REMARK VINA RESULT:      -5.9      2.348      3.330
REMARK  3 active torsions:
REMARK  status: ('A' for Active; 'I' for Inactive)
REMARK    1  A    between atoms: N_7  and  C_8 
REMARK    2  A    between atoms: C_8  and  C_9 
REMARK       I    between atoms: C_9  and  N_11 
REMARK    3  A    between atoms: N_11  and  C_12 
ROOT
HETATM    1  C   UNL     1     -41.071 -50.880  12.348  1.00  0.00     0.236 C 
HETATM    2  O   UNL     1     -40.498 -51.300  13.351  1.00  0.00    -0.272 OA
HETATM    3  N   UNL     1     -42.420 -51.066  12.102  1.00  0.00    -0.355 N 
HETATM    4  H   UNL     1     -42.690 -51.081  11.117  1.00  0.00     0.162 HD
ENDROOT
BRANCH   1   5
HETATM    5  C   UNL     1     -40.326 -50.093  11.251  1.00  0.00     0.235 C 
BRANCH   5   6
HETATM    6  N   UNL     1     -40.302 -48.656  11.471  1.00  0.00    -0.303 N 
HETATM    7  C   UNL     1     -39.432 -47.980  12.321  1.00  0.00     0.018 A 
HETATM    8  C   UNL     1     -38.297 -48.643  13.026  1.00  0.00     0.069 C 
HETATM    9  C   UNL     1     -39.742 -46.683  12.464  1.00  0.00     0.080 A 
HETATM   10  S   UNL     1     -41.153 -46.239  11.561  1.00  0.00    -0.039 SA
HETATM   11  C   UNL     1     -41.368 -47.899  11.001  1.00  0.00     0.290 A 
HETATM   12  O   UNL     1     -42.321 -48.287  10.344  1.00  0.00    -0.259 OA
ENDBRANCH   5   6
ENDBRANCH   1   5
BRANCH   3  13
HETATM   13  C   UNL     1     -43.315 -51.751  13.044  1.00  0.00     0.084 C 
HETATM   14  C   UNL     1     -43.745 -53.114  12.477  1.00  0.00     0.025 C 
HETATM   15  C   UNL     1     -44.408 -54.014  13.521  1.00  0.00     0.002 C 
HETATM   16  C   UNL     1     -45.917 -53.842  13.664  1.00  0.00     0.000 C 
HETATM   17  C   UNL     1     -46.448 -52.413  13.621  1.00  0.00     0.000 C 
HETATM   18  C   UNL     1     -45.559 -51.385  14.314  1.00  0.00     0.002 C 
HETATM   19  C   UNL     1     -44.483 -50.812  13.388  1.00  0.00     0.025 C 
ENDBRANCH   3  13
TORSDOF 3
ENDMDL
MODEL 4
REMARK VINA RESULT:      -5.8      2.989      6.512
REMARK  3 active torsions:
REMARK  status: ('A' for Active; 'I' for Inactive)
REMARK    1  A    between atoms: N_7  and  C_8 
REMARK    2  A    between atoms: C_8  and  C_9 
REMARK       I    between atoms: C_9  and  N_11 
REMARK    3  A    between atoms: N_11  and  C_12 
ROOT
HETATM    1  C   UNL     1     -42.175 -51.156  12.698  1.00  0.00     0.236 C 
HETATM    2  O   UNL     1     -42.172 -50.843  13.886  1.00  0.00    -0.272 OA
HETATM    3  N   UNL     1     -42.035 -50.245  11.666  1.00  0.00    -0.355 N 
HETATM    4  H   UNL     1     -42.470 -50.512  10.781  1.00  0.00     0.162 HD
ENDROOT
BRANCH   1   5
HETATM    5  C   UNL     1     -42.335 -52.619  12.239  1.00  0.00     0.235 C 
BRANCH   5   6
HETATM    6  N   UNL     1     -43.098 -53.445  13.160  1.00  0.00    -0.303 N 
HETATM    7  C   UNL     1     -42.563 -54.261  14.152  1.00  0.00     0.018 A 
HETATM    8  C   UNL     1     -41.112 -54.286  14.496  1.00  0.00     0.069 C 
HETATM    9  C   UNL     1     -43.482 -55.041  14.740  1.00  0.00     0.080 A 
HETATM   10  S   UNL     1     -45.065 -54.816  14.070  1.00  0.00    -0.039 SA
HETATM   11  C   UNL     1     -44.449 -53.646  12.902  1.00  0.00     0.290 A 
HETATM   12  O   UNL     1     -45.117 -53.145  12.010  1.00  0.00    -0.259 OA
ENDBRANCH   5   6
ENDBRANCH   1   5
BRANCH   3  13
HETATM   13  C   UNL     1     -41.825 -48.809  11.892  1.00  0.00     0.084 C 
HETATM   14  C   UNL     1     -42.630 -47.985  10.873  1.00  0.00     0.025 C 
HETATM   15  C   UNL     1     -42.719 -46.503  11.239  1.00  0.00     0.002 C 
HETATM   16  C   UNL     1     -41.579 -45.634  10.715  1.00  0.00     0.000 C 
HETATM   17  C   UNL     1     -40.177 -46.229  10.790  1.00  0.00     0.000 C 
HETATM   18  C   UNL     1     -39.906 -47.056  12.043  1.00  0.00     0.002 C 
HETATM   19  C   UNL     1     -40.315 -48.522  11.885  1.00  0.00     0.025 C 
ENDBRANCH   3  13
TORSDOF 3
ENDMDL
MODEL 5
REMARK VINA RESULT:      -5.7      1.143      1.914
REMARK  3 active torsions:
REMARK  status: ('A' for Active; 'I' for Inactive)
REMARK    1  A    between atoms: N_7  and  C_8 
REMARK    2  A    between atoms: C_8  and  C_9 
REMARK       I    between atoms: C_9  and  N_11 
REMARK    3  A    between atoms: N_11  and  C_12 
ROOT
HETATM    1  C   UNL     1     -42.371 -52.627  12.832  1.00  0.00     0.236 C 
HETATM    2  O   UNL     1     -42.362 -52.546  14.058  1.00  0.00    -0.272 OA
HETATM    3  N   UNL     1     -43.519 -52.826  12.086  1.00  0.00    -0.355 N 
HETATM    4  H   UNL     1     -43.386 -53.296  11.189  1.00  0.00     0.162 HD
ENDROOT
BRANCH   1   5
HETATM    5  C   UNL     1     -41.081 -52.510  11.996  1.00  0.00     0.235 C 
BRANCH   5   6
HETATM    6  N   UNL     1     -40.156 -51.497  12.478  1.00  0.00    -0.303 N 
HETATM    7  C   UNL     1     -39.196 -51.680  13.468  1.00  0.00     0.018 A 
HETATM    8  C   UNL     1     -38.893 -53.006  14.079  1.00  0.00     0.069 C 
HETATM    9  C   UNL     1     -38.599 -50.537  13.836  1.00  0.00     0.080 A 
HETATM   10  S   UNL     1     -39.220 -49.163  12.980  1.00  0.00    -0.039 SA
HETATM   11  C   UNL     1     -40.381 -50.174  12.117  1.00  0.00     0.290 A 
HETATM   12  O   UNL     1     -41.244 -49.746  11.365  1.00  0.00    -0.259 OA
ENDBRANCH   5   6
ENDBRANCH   1   5
BRANCH   3  13
HETATM   13  C   UNL     1     -44.856 -52.918  12.689  1.00  0.00     0.084 C 
HETATM   14  C   UNL     1     -45.180 -51.631  13.467  1.00  0.00     0.025 C 
HETATM   15  C   UNL     1     -46.657 -51.518  13.847  1.00  0.00     0.002 C 
HETATM   16  C   UNL     1     -47.037 -52.160  15.178  1.00  0.00     0.000 C 
HETATM   17  C   UNL     1     -46.396 -53.507  15.494  1.00  0.00     0.000 C 
HETATM   18  C   UNL     1     -46.240 -54.432  14.292  1.00  0.00     0.002 C 
HETATM   19  C   UNL     1     -44.933 -54.201  13.530  1.00  0.00     0.025 C 
ENDBRANCH   3  13
TORSDOF 3
ENDMDL
MODEL 6
REMARK VINA RESULT:      -5.4      2.109      2.827
REMARK  3 active torsions:
REMARK  status: ('A' for Active; 'I' for Inactive)
REMARK    1  A    between atoms: N_7  and  C_8 
REMARK    2  A    between atoms: C_8  and  C_9 
REMARK       I    between atoms: C_9  and  N_11 
REMARK    3  A    between atoms: N_11  and  C_12 
ROOT
HETATM    1  C   UNL     1     -40.869 -53.757  13.287  1.00  0.00     0.236 C 
HETATM    2  O   UNL     1     -40.959 -53.435  12.104  1.00  0.00    -0.272 OA
HETATM    3  N   UNL     1     -41.963 -53.952  14.112  1.00  0.00    -0.355 N 
HETATM    4  H   UNL     1     -41.800 -53.784  15.106  1.00  0.00     0.162 HD
ENDROOT
BRANCH   1   5
HETATM    5  C   UNL     1     -39.507 -53.979  13.972  1.00  0.00     0.235 C 
BRANCH   5   6
HETATM    6  N   UNL     1     -39.025 -52.825  14.713  1.00  0.00    -0.303 N 
HETATM    7  C   UNL     1     -39.268 -52.566  16.058  1.00  0.00     0.018 A 
HETATM    8  C   UNL     1     -39.954 -53.530  16.967  1.00  0.00     0.069 C 
HETATM    9  C   UNL     1     -38.853 -51.349  16.441  1.00  0.00     0.080 A 
HETATM   10  S   UNL     1     -38.154 -50.450  15.134  1.00  0.00    -0.039 SA
HETATM   11  C   UNL     1     -38.485 -51.762  14.000  1.00  0.00     0.290 A 
HETATM   12  O   UNL     1     -38.291 -51.698  12.796  1.00  0.00    -0.259 OA
ENDBRANCH   5   6
ENDBRANCH   1   5
BRANCH   3  13
HETATM   13  C   UNL     1     -43.349 -53.834  13.640  1.00  0.00     0.084 C 
HETATM   14  C   UNL     1     -43.869 -52.404  13.863  1.00  0.00     0.025 C 
HETATM   15  C   UNL     1     -45.173 -52.118  13.116  1.00  0.00     0.002 C 
HETATM   16  C   UNL     1     -46.449 -52.468  13.877  1.00  0.00     0.000 C 
HETATM   17  C   UNL     1     -46.436 -53.772  14.667  1.00  0.00     0.000 C 
HETATM   18  C   UNL     1     -45.691 -54.917  13.989  1.00  0.00     0.002 C 
HETATM   19  C   UNL     1     -44.195 -54.926  14.313  1.00  0.00     0.025 C 
ENDBRANCH   3  13
TORSDOF 3
ENDMDL
MODEL 7
REMARK VINA RESULT:      -5.4      2.126      2.845
REMARK  3 active torsions:
REMARK  status: ('A' for Active; 'I' for Inactive)
REMARK    1  A    between atoms: N_7  and  C_8 
REMARK    2  A    between atoms: C_8  and  C_9 
REMARK       I    between atoms: C_9  and  N_11 
REMARK    3  A    between atoms: N_11  and  C_12 
ROOT
HETATM    1  C   UNL     1     -41.590 -50.955  12.316  1.00  0.00     0.236 C 
HETATM    2  O   UNL     1     -41.171 -52.057  12.660  1.00  0.00    -0.272 OA
HETATM    3  N   UNL     1     -42.853 -50.484  12.628  1.00  0.00    -0.355 N 
HETATM    4  H   UNL     1     -43.247 -49.808  11.971  1.00  0.00     0.162 HD
ENDROOT
BRANCH   1   5
HETATM    5  C   UNL     1     -40.732 -49.975  11.491  1.00  0.00     0.235 C 
BRANCH   5   6
HETATM    6  N   UNL     1     -39.868 -49.127  12.295  1.00  0.00    -0.303 N 
HETATM    7  C   UNL     1     -38.572 -49.436  12.696  1.00  0.00     0.018 A 
HETATM    8  C   UNL     1     -37.837 -50.645  12.225  1.00  0.00     0.069 C 
HETATM    9  C   UNL     1     -38.070 -48.554  13.572  1.00  0.00     0.080 A 
HETATM   10  S   UNL     1     -39.199 -47.298  13.963  1.00  0.00    -0.039 SA
HETATM   11  C   UNL     1     -40.431 -48.027  12.931  1.00  0.00     0.290 A 
HETATM   12  O   UNL     1     -41.581 -47.627  12.843  1.00  0.00    -0.259 OA
ENDBRANCH   5   6
ENDBRANCH   1   5
BRANCH   3  13
HETATM   13  C   UNL     1     -43.808 -51.246  13.445  1.00  0.00     0.084 C 
HETATM   14  C   UNL     1     -45.248 -50.969  12.979  1.00  0.00     0.025 C 
HETATM   15  C   UNL     1     -46.263 -51.955  13.558  1.00  0.00     0.002 C 
HETATM   16  C   UNL     1     -46.856 -51.561  14.908  1.00  0.00     0.000 C 
HETATM   17  C   UNL     1     -45.892 -50.963  15.927  1.00  0.00     0.000 C 
HETATM   18  C   UNL     1     -44.502 -51.590  15.930  1.00  0.00     0.002 C 
HETATM   19  C   UNL     1     -43.552 -50.932  14.927  1.00  0.00     0.025 C 
ENDBRANCH   3  13
TORSDOF 3
ENDMDL
MODEL 8
REMARK VINA RESULT:      -5.4      2.845      6.296
REMARK  3 active torsions:
REMARK  status: ('A' for Active; 'I' for Inactive)
REMARK    1  A    between atoms: N_7  and  C_8 
REMARK    2  A    between atoms: C_8  and  C_9 
REMARK       I    between atoms: C_9  and  N_11 
REMARK    3  A    between atoms: N_11  and  C_12 
ROOT
HETATM    1  C   UNL     1     -42.873 -52.625  12.859  1.00  0.00     0.236 C 
HETATM    2  O   UNL     1     -41.908 -53.088  13.464  1.00  0.00    -0.272 OA
HETATM    3  N   UNL     1     -42.990 -51.291  12.510  1.00  0.00    -0.355 N 
HETATM    4  H   UNL     1     -43.945 -50.941  12.423  1.00  0.00     0.162 HD
ENDROOT
BRANCH   1   5
HETATM    5  C   UNL     1     -44.063 -53.504  12.425  1.00  0.00     0.235 C 
BRANCH   5   6
HETATM    6  N   UNL     1     -45.121 -53.594  13.417  1.00  0.00    -0.303 N 
HETATM    7  C   UNL     1     -46.184 -52.706  13.553  1.00  0.00     0.018 A 
HETATM    8  C   UNL     1     -46.454 -51.600  12.589  1.00  0.00     0.069 C 
HETATM    9  C   UNL     1     -46.914 -52.929  14.656  1.00  0.00     0.080 A 
HETATM   10  S   UNL     1     -46.301 -54.248  15.598  1.00  0.00    -0.039 SA
HETATM   11  C   UNL     1     -44.959 -54.480  14.475  1.00  0.00     0.290 A 
HETATM   12  O   UNL     1     -44.044 -55.271  14.648  1.00  0.00    -0.259 OA
ENDBRANCH   5   6
ENDBRANCH   1   5
BRANCH   3  13
HETATM   13  C   UNL     1     -41.944 -50.298  12.792  1.00  0.00     0.084 C 
HETATM   14  C   UNL     1     -42.577 -48.939  13.133  1.00  0.00     0.025 C 
HETATM   15  C   UNL     1     -41.582 -47.952  13.745  1.00  0.00     0.002 C 
HETATM   16  C   UNL     1     -40.814 -47.097  12.741  1.00  0.00     0.000 C 
HETATM   17  C   UNL     1     -40.326 -47.800  11.478  1.00  0.00     0.000 C 
HETATM   18  C   UNL     1     -39.838 -49.229  11.696  1.00  0.00     0.002 C 
HETATM   19  C   UNL     1     -40.966 -50.260  11.607  1.00  0.00     0.025 C 
ENDBRANCH   3  13
TORSDOF 3
ENDMDL
MODEL 9
REMARK VINA RESULT:      -5.4      2.641      6.618
REMARK  3 active torsions:
REMARK  status: ('A' for Active; 'I' for Inactive)
REMARK    1  A    between atoms: N_7  and  C_8 
REMARK    2  A    between atoms: C_8  and  C_9 
REMARK       I    between atoms: C_9  and  N_11 
REMARK    3  A    between atoms: N_11  and  C_12 
ROOT
HETATM    1  C   UNL     1     -42.089 -53.363  13.991  1.00  0.00     0.236 C 
HETATM    2  O   UNL     1     -42.017 -54.065  12.985  1.00  0.00    -0.272 OA
HETATM    3  N   UNL     1     -41.318 -52.232  14.192  1.00  0.00    -0.355 N 
HETATM    4  H   UNL     1     -41.133 -51.992  15.168  1.00  0.00     0.162 HD
ENDROOT
BRANCH   1   5
HETATM    5  C   UNL     1     -43.064 -53.682  15.142  1.00  0.00     0.235 C 
BRANCH   5   6
HETATM    6  N   UNL     1     -44.403 -53.152  14.944  1.00  0.00    -0.303 N 
HETATM    7  C   UNL     1     -45.441 -53.798  14.280  1.00  0.00     0.018 A 
HETATM    8  C   UNL     1     -45.351 -55.207  13.796  1.00  0.00     0.069 C 
HETATM    9  C   UNL     1     -46.512 -53.013  14.093  1.00  0.00     0.080 A 
HETATM   10  S   UNL     1     -46.274 -51.414  14.718  1.00  0.00    -0.039 SA
HETATM   11  C   UNL     1     -44.626 -51.807  15.211  1.00  0.00     0.290 A 
HETATM   12  O   UNL     1     -43.834 -51.000  15.673  1.00  0.00    -0.259 OA
ENDBRANCH   5   6
ENDBRANCH   1   5
BRANCH   3  13
HETATM   13  C   UNL     1     -40.361 -51.732  13.196  1.00  0.00     0.084 C 
HETATM   14  C   UNL     1     -39.082 -51.231  13.889  1.00  0.00     0.025 C 
HETATM   15  C   UNL     1     -37.927 -50.997  12.915  1.00  0.00     0.002 C 
HETATM   16  C   UNL     1     -37.873 -49.606  12.291  1.00  0.00     0.000 C 
HETATM   17  C   UNL     1     -39.205 -48.999  11.862  1.00  0.00     0.000 C 
HETATM   18  C   UNL     1     -40.192 -49.995  11.263  1.00  0.00     0.002 C 
HETATM   19  C   UNL     1     -41.060 -50.679  12.322  1.00  0.00     0.025 C 
ENDBRANCH   3  13
TORSDOF 3
ENDMDL
