MODEL 1
REMARK VINA RESULT:      -5.5      0.000      0.000
REMARK  2 active torsions:
REMARK  status: ('A' for Active; 'I' for Inactive)
REMARK    1  A    between atoms: C_5  and  N_8 
REMARK       I    between atoms: N_8  and  C_9 
REMARK       I    between atoms: C_9  and  N_11 
REMARK    2  A    between atoms: N_11  and  C_12 
ROOT
HETATM    1  N   UNL     1     -43.503 -50.887  12.764  1.00  0.00    -0.338 N 
HETATM    2  C   UNL     1     -43.030 -49.595  12.677  1.00  0.00     0.321 C 
HETATM    3  O   UNL     1     -43.084 -48.794  13.597  1.00  0.00    -0.247 OA
HETATM    4  N   UNL     1     -42.583 -49.323  11.400  1.00  0.00    -0.308 N 
HETATM    5  H   UNL     1     -42.947 -51.570  12.269  1.00  0.00     0.164 HD
HETATM    6  H   UNL     1     -43.070 -49.843  10.683  1.00  0.00     0.170 HD
ENDROOT
BRANCH   1   7
HETATM    7  C   UNL     1     -44.204 -51.331  13.970  1.00  0.00     0.089 C 
HETATM    8  C   UNL     1     -43.660 -52.651  14.521  1.00  0.00     0.055 C 
HETATM    9  C   UNL     1     -44.122 -53.851  13.691  1.00  0.00     0.274 C 
HETATM   10  N   UNL     1     -45.575 -53.917  13.488  1.00  0.00     0.084 N 
HETATM   11  C   UNL     1     -46.286 -54.323  14.699  1.00  0.00     0.309 C 
HETATM   12  C   UNL     1     -46.099 -52.664  12.930  1.00  0.00     0.274 C 
HETATM   13  C   UNL     1     -45.712 -51.416  13.723  1.00  0.00     0.055 C 
ENDBRANCH   1   7
BRANCH   4  14
HETATM   14  C   UNL     1     -42.075 -48.058  11.039  1.00  0.00     0.051 A 
HETATM   15  C   UNL     1     -42.967 -47.037  10.715  1.00  0.00     0.032 A 
HETATM   16  C   UNL     1     -42.474 -45.772  10.406  1.00  0.00     0.019 A 
HETATM   17  C   UNL     1     -41.101 -45.585  10.381  1.00  0.00     0.088 A 
HETATM   18  N   UNL     1     -40.206 -46.559  10.651  1.00  0.00    -0.373 N 
HETATM   19  C   UNL     1     -40.714 -47.769  10.993  1.00  0.00     0.117 A 
ATOM     20  HN  UNL     1     -39.201 -46.393  10.602  1.00  0.00     0.164 HD
ENDBRANCH   4  14
TORSDOF 2
ENDMDL
MODEL 2
REMARK VINA RESULT:      -5.3      1.345      7.144
REMARK  2 active torsions:
REMARK  status: ('A' for Active; 'I' for Inactive)
REMARK    1  A    between atoms: C_5  and  N_8 
REMARK       I    between atoms: N_8  and  C_9 
REMARK       I    between atoms: C_9  and  N_11 
REMARK    2  A    between atoms: N_11  and  C_12 
ROOT
HETATM    1  N   UNL     1     -43.352 -49.323  12.202  1.00  0.00    -0.338 N 
HETATM    2  C   UNL     1     -43.750 -50.307  13.083  1.00  0.00     0.321 C 
HETATM    3  O   UNL     1     -43.067 -50.689  14.019  1.00  0.00    -0.247 OA
HETATM    4  N   UNL     1     -44.963 -50.843  12.700  1.00  0.00    -0.308 N 
HETATM    5  H   UNL     1     -44.096 -48.715  11.890  1.00  0.00     0.164 HD
HETATM    6  H   UNL     1     -45.118 -50.821  11.702  1.00  0.00     0.170 HD
ENDROOT
BRANCH   1   7
HETATM    7  C   UNL     1     -42.007 -48.754  12.299  1.00  0.00     0.089 C 
HETATM    8  C   UNL     1     -41.983 -47.410  13.031  1.00  0.00     0.055 C 
HETATM    9  C   UNL     1     -42.509 -46.272  12.153  1.00  0.00     0.274 C 
HETATM   10  N   UNL     1     -41.859 -46.175  10.841  1.00  0.00     0.084 N 
HETATM   11  C   UNL     1     -40.500 -45.642  10.934  1.00  0.00     0.309 C 
HETATM   12  C   UNL     1     -41.905 -47.453  10.121  1.00  0.00     0.274 C 
HETATM   13  C   UNL     1     -41.362 -48.640  10.916  1.00  0.00     0.055 C 
ENDBRANCH   1   7
BRANCH   4  14
HETATM   14  C   UNL     1     -45.578 -51.888  13.420  1.00  0.00     0.051 A 
HETATM   15  C   UNL     1     -46.390 -51.575  14.509  1.00  0.00     0.032 A 
HETATM   16  C   UNL     1     -47.038 -52.599  15.194  1.00  0.00     0.019 A 
HETATM   17  C   UNL     1     -46.811 -53.908  14.799  1.00  0.00     0.088 A 
HETATM   18  N   UNL     1     -46.002 -54.252  13.774  1.00  0.00    -0.373 N 
HETATM   19  C   UNL     1     -45.419 -53.233  13.096  1.00  0.00     0.117 A 
ATOM     20  HN  UNL     1     -45.840 -55.227  13.523  1.00  0.00     0.164 HD
ENDBRANCH   4  14
TORSDOF 2
ENDMDL
MODEL 3
REMARK VINA RESULT:      -5.1      2.689      3.410
REMARK  2 active torsions:
REMARK  status: ('A' for Active; 'I' for Inactive)
REMARK    1  A    between atoms: C_5  and  N_8 
REMARK       I    between atoms: N_8  and  C_9 
REMARK       I    between atoms: C_9  and  N_11 
REMARK    2  A    between atoms: N_11  and  C_12 
ROOT
HETATM    1  N   UNL     1     -41.892 -50.335  11.921  1.00  0.00    -0.338 N 
HETATM    2  C   UNL     1     -42.586 -49.155  11.761  1.00  0.00     0.321 C 
HETATM    3  O   UNL     1     -43.363 -48.712  12.592  1.00  0.00    -0.247 OA
HETATM    4  N   UNL     1     -42.348 -48.613  10.514  1.00  0.00    -0.308 N 
HETATM    5  H   UNL     1     -40.953 -50.321  11.550  1.00  0.00     0.164 HD
HETATM    6  H   UNL     1     -42.151 -49.305   9.804  1.00  0.00     0.170 HD
ENDROOT
BRANCH   1   7
HETATM    7  C   UNL     1     -42.146 -51.182  13.088  1.00  0.00     0.089 C 
HETATM    8  C   UNL     1     -41.088 -51.017  14.182  1.00  0.00     0.055 C 
HETATM    9  C   UNL     1     -39.781 -51.730  13.826  1.00  0.00     0.274 C 
HETATM   10  N   UNL     1     -39.949 -53.141  13.454  1.00  0.00     0.084 N 
HETATM   11  C   UNL     1     -40.240 -53.987  14.611  1.00  0.00     0.309 C 
HETATM   12  C   UNL     1     -40.940 -53.302  12.384  1.00  0.00     0.274 C 
HETATM   13  C   UNL     1     -42.290 -52.648  12.677  1.00  0.00     0.055 C 
ENDBRANCH   1   7
BRANCH   4  14
HETATM   14  C   UNL     1     -42.963 -47.418  10.089  1.00  0.00     0.051 A 
HETATM   15  C   UNL     1     -44.026 -47.486   9.189  1.00  0.00     0.032 A 
HETATM   16  C   UNL     1     -44.669 -46.313   8.803  1.00  0.00     0.019 A 
HETATM   17  C   UNL     1     -44.193 -45.105   9.289  1.00  0.00     0.088 A 
HETATM   18  N   UNL     1     -43.143 -44.998  10.131  1.00  0.00    -0.373 N 
HETATM   19  C   UNL     1     -42.563 -46.157  10.527  1.00  0.00     0.117 A 
ATOM     20  HN  UNL     1     -42.804 -44.091  10.453  1.00  0.00     0.164 HD
ENDBRANCH   4  14
TORSDOF 2
ENDMDL
MODEL 4
REMARK VINA RESULT:      -4.8      3.473      4.317
REMARK  2 active torsions:
REMARK  status: ('A' for Active; 'I' for Inactive)
REMARK    1  A    between atoms: C_5  and  N_8 
REMARK       I    between atoms: N_8  and  C_9 
REMARK       I    between atoms: C_9  and  N_11 
REMARK    2  A    between atoms: N_11  and  C_12 
ROOT
HETATM    1  N   UNL     1     -41.050 -52.529  14.147  1.00  0.00    -0.338 N 
HETATM    2  C   UNL     1     -41.543 -51.864  13.045  1.00  0.00     0.321 C 
HETATM    3  O   UNL     1     -42.004 -52.430  12.066  1.00  0.00    -0.247 OA
HETATM    4  N   UNL     1     -41.357 -50.502  13.173  1.00  0.00    -0.308 N 
HETATM    5  H   UNL     1     -41.241 -52.076  15.029  1.00  0.00     0.164 HD
HETATM    6  H   UNL     1     -40.544 -50.255  13.719  1.00  0.00     0.170 HD
ENDROOT
BRANCH   1   7
HETATM    7  C   UNL     1     -40.963 -53.990  14.142  1.00  0.00     0.089 C 
HETATM    8  C   UNL     1     -41.870 -54.643  15.187  1.00  0.00     0.055 C 
HETATM    9  C   UNL     1     -41.298 -54.515  16.601  1.00  0.00     0.274 C 
HETATM   10  N   UNL     1     -39.912 -54.982  16.732  1.00  0.00     0.084 N 
HETATM   11  C   UNL     1     -39.813 -56.440  16.690  1.00  0.00     0.309 C 
HETATM   12  C   UNL     1     -39.030 -54.337  15.751  1.00  0.00     0.274 C 
HETATM   13  C   UNL     1     -39.513 -54.451  14.306  1.00  0.00     0.055 C 
ENDBRANCH   1   7
BRANCH   4  14
HETATM   14  C   UNL     1     -41.749 -49.597  12.165  1.00  0.00     0.051 A 
HETATM   15  C   UNL     1     -42.945 -48.895  12.314  1.00  0.00     0.032 A 
HETATM   16  C   UNL     1     -43.314 -47.963  11.347  1.00  0.00     0.019 A 
HETATM   17  C   UNL     1     -42.500 -47.803  10.236  1.00  0.00     0.088 A 
HETATM   18  N   UNL     1     -41.356 -48.492  10.040  1.00  0.00    -0.373 N 
HETATM   19  C   UNL     1     -40.996 -49.359  11.018  1.00  0.00     0.117 A 
ATOM     20  HN  UNL     1     -40.791 -48.365   9.200  1.00  0.00     0.164 HD
ENDBRANCH   4  14
TORSDOF 2
ENDMDL
MODEL 5
REMARK VINA RESULT:      -4.8      1.659      7.271
REMARK  2 active torsions:
REMARK  status: ('A' for Active; 'I' for Inactive)
REMARK    1  A    between atoms: C_5  and  N_8 
REMARK       I    between atoms: N_8  and  C_9 
REMARK       I    between atoms: C_9  and  N_11 
REMARK    2  A    between atoms: N_11  and  C_12 
ROOT
HETATM    1  N   UNL     1     -41.587 -49.975  12.835  1.00  0.00    -0.338 N 
HETATM    2  C   UNL     1     -42.136 -51.232  12.696  1.00  0.00     0.321 C 
HETATM    3  O   UNL     1     -41.870 -51.985  11.773  1.00  0.00    -0.247 OA
HETATM    4  N   UNL     1     -43.076 -51.467  13.679  1.00  0.00    -0.308 N 
HETATM    5  H   UNL     1     -41.395 -49.707  13.790  1.00  0.00     0.164 HD
HETATM    6  H   UNL     1     -43.544 -50.630  13.998  1.00  0.00     0.170 HD
ENDROOT
BRANCH   1   7
HETATM    7  C   UNL     1     -40.713 -49.438  11.791  1.00  0.00     0.089 C 
HETATM    8  C   UNL     1     -39.555 -48.612  12.355  1.00  0.00     0.055 C 
HETATM    9  C   UNL     1     -40.014 -47.228  12.821  1.00  0.00     0.274 C 
HETATM   10  N   UNL     1     -40.765 -46.472  11.810  1.00  0.00     0.084 N 
HETATM   11  C   UNL     1     -39.904 -45.965  10.744  1.00  0.00     0.309 C 
HETATM   12  C   UNL     1     -41.896 -47.249  11.288  1.00  0.00     0.274 C 
HETATM   13  C   UNL     1     -41.517 -48.635  10.767  1.00  0.00     0.055 C 
ENDBRANCH   1   7
BRANCH   4  14
HETATM   14  C   UNL     1     -43.806 -52.671  13.744  1.00  0.00     0.051 A 
HETATM   15  C   UNL     1     -43.238 -53.774  14.380  1.00  0.00     0.032 A 
HETATM   16  C   UNL     1     -43.972 -54.952  14.490  1.00  0.00     0.019 A 
HETATM   17  C   UNL     1     -45.231 -55.004  13.912  1.00  0.00     0.088 A 
HETATM   18  N   UNL     1     -45.798 -53.970  13.256  1.00  0.00    -0.373 N 
HETATM   19  C   UNL     1     -45.081 -52.820  13.202  1.00  0.00     0.117 A 
ATOM     20  HN  UNL     1     -46.718 -54.048  12.823  1.00  0.00     0.164 HD
ENDBRANCH   4  14
TORSDOF 2
ENDMDL
MODEL 6
REMARK VINA RESULT:      -4.7      2.427      7.277
REMARK  2 active torsions:
REMARK  status: ('A' for Active; 'I' for Inactive)
REMARK    1  A    between atoms: C_5  and  N_8 
REMARK       I    between atoms: N_8  and  C_9 
REMARK       I    between atoms: C_9  and  N_11 
REMARK    2  A    between atoms: N_11  and  C_12 
ROOT
HETATM    1  N   UNL     1     -41.477 -48.063  12.025  1.00  0.00    -0.338 N 
HETATM    2  C   UNL     1     -41.269 -49.295  12.608  1.00  0.00     0.321 C 
HETATM    3  O   UNL     1     -40.468 -49.488  13.509  1.00  0.00    -0.247 OA
HETATM    4  N   UNL     1     -42.016 -50.268  11.974  1.00  0.00    -0.308 N 
HETATM    5  H   UNL     1     -42.437 -47.877  11.773  1.00  0.00     0.164 HD
HETATM    6  H   UNL     1     -42.179 -50.077  10.995  1.00  0.00     0.170 HD
ENDROOT
BRANCH   1   7
HETATM    7  C   UNL     1     -40.643 -46.922  12.407  1.00  0.00     0.089 C 
HETATM    8  C   UNL     1     -41.425 -45.840  13.155  1.00  0.00     0.055 C 
HETATM    9  C   UNL     1     -42.300 -45.011  12.211  1.00  0.00     0.274 C 
HETATM   10  N   UNL     1     -41.579 -44.449  11.062  1.00  0.00     0.084 N 
HETATM   11  C   UNL     1     -40.715 -43.333  11.443  1.00  0.00     0.309 C 
HETATM   12  C   UNL     1     -40.851 -45.488  10.322  1.00  0.00     0.274 C 
HETATM   13  C   UNL     1     -39.924 -46.340  11.188  1.00  0.00     0.055 C 
ENDBRANCH   1   7
BRANCH   4  14
HETATM   14  C   UNL     1     -41.961 -51.622  12.361  1.00  0.00     0.051 A 
HETATM   15  C   UNL     1     -42.914 -52.111  13.254  1.00  0.00     0.032 A 
HETATM   16  C   UNL     1     -42.895 -53.459  13.603  1.00  0.00     0.019 A 
HETATM   17  C   UNL     1     -41.891 -54.263  13.087  1.00  0.00     0.088 A 
HETATM   18  N   UNL     1     -40.930 -53.817  12.250  1.00  0.00    -0.373 N 
HETATM   19  C   UNL     1     -40.997 -52.512  11.891  1.00  0.00     0.117 A 
ATOM     20  HN  UNL     1     -40.191 -54.431  11.906  1.00  0.00     0.164 HD
ENDBRANCH   4  14
TORSDOF 2
ENDMDL
MODEL 7
REMARK VINA RESULT:      -4.6      3.202      6.736
REMARK  2 active torsions:
REMARK  status: ('A' for Active; 'I' for Inactive)
REMARK    1  A    between atoms: C_5  and  N_8 
REMARK       I    between atoms: N_8  and  C_9 
REMARK       I    between atoms: C_9  and  N_11 
REMARK    2  A    between atoms: N_11  and  C_12 
ROOT
HETATM    1  N   UNL     1     -41.907 -48.773  11.430  1.00  0.00    -0.338 N 
HETATM    2  C   UNL     1     -41.959 -49.923  12.189  1.00  0.00     0.321 C 
HETATM    3  O   UNL     1     -42.910 -50.223  12.892  1.00  0.00    -0.247 OA
HETATM    4  N   UNL     1     -40.768 -50.616  12.108  1.00  0.00    -0.308 N 
HETATM    5  H   UNL     1     -41.447 -48.882  10.537  1.00  0.00     0.164 HD
HETATM    6  H   UNL     1     -39.964 -50.022  11.957  1.00  0.00     0.170 HD
ENDROOT
BRANCH   1   7
HETATM    7  C   UNL     1     -42.983 -47.785  11.521  1.00  0.00     0.089 C 
HETATM    8  C   UNL     1     -44.061 -47.982  10.452  1.00  0.00     0.055 C 
HETATM    9  C   UNL     1     -43.598 -47.496   9.077  1.00  0.00     0.274 C 
HETATM   10  N   UNL     1     -43.083 -46.121   9.068  1.00  0.00     0.084 N 
HETATM   11  C   UNL     1     -44.150 -45.129   9.197  1.00  0.00     0.309 C 
HETATM   12  C   UNL     1     -42.027 -45.934  10.071  1.00  0.00     0.274 C 
HETATM   13  C   UNL     1     -42.423 -46.362  11.483  1.00  0.00     0.055 C 
ENDBRANCH   1   7
BRANCH   4  14
HETATM   14  C   UNL     1     -40.552 -51.815  12.817  1.00  0.00     0.051 A 
HETATM   15  C   UNL     1     -41.134 -52.993  12.350  1.00  0.00     0.032 A 
HETATM   16  C   UNL     1     -40.885 -54.189  13.017  1.00  0.00     0.019 A 
HETATM   17  C   UNL     1     -40.104 -54.159  14.162  1.00  0.00     0.088 A 
HETATM   18  N   UNL     1     -39.556 -53.033  14.665  1.00  0.00    -0.373 N 
HETATM   19  C   UNL     1     -39.776 -51.889  13.972  1.00  0.00     0.117 A 
ATOM     20  HN  UNL     1     -39.004 -53.043  15.523  1.00  0.00     0.164 HD
ENDBRANCH   4  14
TORSDOF 2
ENDMDL
MODEL 8
REMARK VINA RESULT:      -4.6      1.967      2.280
REMARK  2 active torsions:
REMARK  status: ('A' for Active; 'I' for Inactive)
REMARK    1  A    between atoms: C_5  and  N_8 
REMARK       I    between atoms: N_8  and  C_9 
REMARK       I    between atoms: C_9  and  N_11 
REMARK    2  A    between atoms: N_11  and  C_12 
ROOT
HETATM    1  N   UNL     1     -42.724 -51.173  12.631  1.00  0.00    -0.338 N 
HETATM    2  C   UNL     1     -42.231 -49.913  12.365  1.00  0.00     0.321 C 
HETATM    3  O   UNL     1     -41.101 -49.556  12.659  1.00  0.00    -0.247 OA
HETATM    4  N   UNL     1     -43.211 -49.111  11.816  1.00  0.00    -0.308 N 
HETATM    5  H   UNL     1     -43.335 -51.542  11.916  1.00  0.00     0.164 HD
HETATM    6  H   UNL     1     -44.144 -49.347  12.122  1.00  0.00     0.170 HD
ENDROOT
BRANCH   1   7
HETATM    7  C   UNL     1     -41.919 -52.128  13.393  1.00  0.00     0.089 C 
HETATM    8  C   UNL     1     -42.116 -53.573  12.929  1.00  0.00     0.055 C 
HETATM    9  C   UNL     1     -43.445 -54.154  13.416  1.00  0.00     0.274 C 
HETATM   10  N   UNL     1     -43.664 -54.025  14.862  1.00  0.00     0.084 N 
HETATM   11  C   UNL     1     -42.835 -54.951  15.632  1.00  0.00     0.309 C 
HETATM   12  C   UNL     1     -43.506 -52.636  15.309  1.00  0.00     0.274 C 
HETATM   13  C   UNL     1     -42.184 -51.991  14.894  1.00  0.00     0.055 C 
ENDBRANCH   1   7
BRANCH   4  14
HETATM   14  C   UNL     1     -42.970 -47.763  11.478  1.00  0.00     0.051 A 
HETATM   15  C   UNL     1     -42.675 -47.439  10.155  1.00  0.00     0.032 A 
HETATM   16  C   UNL     1     -42.484 -46.104   9.805  1.00  0.00     0.019 A 
HETATM   17  C   UNL     1     -42.544 -45.143  10.802  1.00  0.00     0.088 A 
HETATM   18  N   UNL     1     -42.790 -45.423  12.099  1.00  0.00    -0.373 N 
HETATM   19  C   UNL     1     -43.016 -46.724  12.405  1.00  0.00     0.117 A 
ATOM     20  HN  UNL     1     -42.805 -44.694  12.812  1.00  0.00     0.164 HD
ENDBRANCH   4  14
TORSDOF 2
ENDMDL
MODEL 9
REMARK VINA RESULT:      -4.6     14.101     14.959
REMARK  2 active torsions:
REMARK  status: ('A' for Active; 'I' for Inactive)
REMARK    1  A    between atoms: C_5  and  N_8 
REMARK       I    between atoms: N_8  and  C_9 
REMARK       I    between atoms: C_9  and  N_11 
REMARK    2  A    between atoms: N_11  and  C_12 
ROOT
HETATM    1  N   UNL     1     -50.670 -51.053  -0.631  1.00  0.00    -0.338 N 
HETATM    2  C   UNL     1     -50.504 -50.093   0.345  1.00  0.00     0.321 C 
HETATM    3  O   UNL     1     -49.985 -50.316   1.427  1.00  0.00    -0.247 OA
HETATM    4  N   UNL     1     -51.081 -48.900  -0.040  1.00  0.00    -0.308 N 
HETATM    5  H   UNL     1     -50.545 -50.714  -1.575  1.00  0.00     0.164 HD
HETATM    6  H   UNL     1     -51.877 -49.015  -0.651  1.00  0.00     0.170 HD
ENDROOT
BRANCH   1   7
HETATM    7  C   UNL     1     -50.311 -52.445  -0.358  1.00  0.00     0.089 C 
HETATM    8  C   UNL     1     -48.932 -52.821  -0.905  1.00  0.00     0.055 C 
HETATM    9  C   UNL     1     -48.953 -53.020  -2.422  1.00  0.00     0.274 C 
HETATM   10  N   UNL     1     -49.984 -53.955  -2.891  1.00  0.00     0.084 N 
HETATM   11  C   UNL     1     -49.650 -55.345  -2.587  1.00  0.00     0.309 C 
HETATM   12  C   UNL     1     -51.314 -53.582  -2.395  1.00  0.00     0.274 C 
HETATM   13  C   UNL     1     -51.389 -53.398  -0.879  1.00  0.00     0.055 C 
ENDBRANCH   1   7
BRANCH   4  14
HETATM   14  C   UNL     1     -51.074 -47.763   0.795  1.00  0.00     0.051 A 
HETATM   15  C   UNL     1     -49.936 -46.959   0.835  1.00  0.00     0.032 A 
HETATM   16  C   UNL     1     -49.941 -45.808   1.620  1.00  0.00     0.019 A 
HETATM   17  C   UNL     1     -51.066 -45.530   2.380  1.00  0.00     0.088 A 
HETATM   18  N   UNL     1     -52.170 -46.305   2.396  1.00  0.00    -0.373 N 
HETATM   19  C   UNL     1     -52.157 -47.394   1.589  1.00  0.00     0.117 A 
ATOM     20  HN  UNL     1     -52.973 -46.083   2.984  1.00  0.00     0.164 HD
ENDBRANCH   4  14
TORSDOF 2
ENDMDL
