MODEL 1
REMARK VINA RESULT:      -6.0      0.000      0.000
REMARK  3 active torsions:
REMARK  status: ('A' for Active; 'I' for Inactive)
REMARK    1  A    between atoms: C_2  and  C_3 
REMARK    2  A    between atoms: C_2  and  N_10 
REMARK    3  A    between atoms: C_3  and  N_4 
REMARK       I    between atoms: N_10  and  C_11 
REMARK       I    between atoms: C_11  and  N_13 
ROOT
HETATM    1  N   UNL     1     -41.974 -48.180  11.323  1.00  0.00    -0.337 N 
HETATM    2  C   UNL     1     -42.215 -49.362  11.970  1.00  0.00     0.318 C 
HETATM    3  O   UNL     1     -43.188 -49.540  12.693  1.00  0.00    -0.247 OA
HETATM    4  N   UNL     1     -41.283 -50.342  11.681  1.00  0.00    -0.329 N 
HETATM    5  C   UNL     1     -41.547 -51.736  12.037  1.00  0.00     0.159 C 
HETATM    6  C   UNL     1     -40.569 -52.239  13.115  1.00  0.00     0.136 C 
HETATM    7  C   UNL     1     -40.707 -53.743  13.313  1.00  0.00     0.041 C 
HETATM    8  O   UNL     1     -39.203 -51.984  12.727  1.00  0.00    -0.378 OA
HETATM    9  C   UNL     1     -38.981 -50.577  12.518  1.00  0.00     0.136 C 
HETATM   10  C   UNL     1     -37.510 -50.372  12.189  1.00  0.00     0.041 C 
HETATM   11  C   UNL     1     -39.875 -50.066  11.375  1.00  0.00     0.159 C 
HETATM   12  H   UNL     1     -41.476 -48.290  10.452  1.00  0.00     0.164 HD
ENDROOT
BRANCH   1  13
HETATM   13  C   UNL     1     -42.825 -46.993  11.446  1.00  0.00     0.100 C 
HETATM   14  C   UNL     1     -42.133 -46.021  12.408  1.00  0.00     0.034 C 
BRANCH  13  15
HETATM   15  C   UNL     1     -43.127 -46.328  10.086  1.00  0.00     0.153 C 
BRANCH  15  16
HETATM   16  N   UNL     1     -44.007 -47.103   9.233  1.00  0.00    -0.350 N 
HETATM   17  C   UNL     1     -45.316 -47.409   9.485  1.00  0.00     0.108 A 
HETATM   18  C   UNL     1     -45.725 -48.137   8.392  1.00  0.00     0.106 A 
HETATM   19  N   UNL     1     -44.700 -48.280   7.491  1.00  0.00    -0.361 N 
HETATM   20  C   UNL     1     -43.685 -47.631   8.015  1.00  0.00     0.182 A 
ATOM     21  HN  UNL     1     -44.722 -48.782   6.604  1.00  0.00     0.166 HD
ENDBRANCH  15  16
ENDBRANCH  13  15
ENDBRANCH   1  13
TORSDOF 3
ENDMDL
MODEL 2
REMARK VINA RESULT:      -5.9      2.369      6.709
REMARK  3 active torsions:
REMARK  status: ('A' for Active; 'I' for Inactive)
REMARK    1  A    between atoms: C_2  and  C_3 
REMARK    2  A    between atoms: C_2  and  N_10 
REMARK    3  A    between atoms: C_3  and  N_4 
REMARK       I    between atoms: N_10  and  C_11 
REMARK       I    between atoms: C_11  and  N_13 
ROOT
HETATM    1  N   UNL     1     -42.327 -49.837  11.846  1.00  0.00    -0.337 N 
HETATM    2  C   UNL     1     -41.556 -48.730  12.071  1.00  0.00     0.318 C 
HETATM    3  O   UNL     1     -41.014 -48.502  13.147  1.00  0.00    -0.247 OA
HETATM    4  N   UNL     1     -41.408 -47.931  10.953  1.00  0.00    -0.329 N 
HETATM    5  C   UNL     1     -40.385 -46.885  10.926  1.00  0.00     0.159 C 
HETATM    6  C   UNL     1     -41.015 -45.480  10.868  1.00  0.00     0.136 C 
HETATM    7  C   UNL     1     -39.951 -44.420  10.615  1.00  0.00     0.041 C 
HETATM    8  O   UNL     1     -41.970 -45.391   9.790  1.00  0.00    -0.378 OA
HETATM    9  C   UNL     1     -43.018 -46.364   9.950  1.00  0.00     0.136 C 
HETATM   10  C   UNL     1     -44.026 -46.164   8.829  1.00  0.00     0.041 C 
HETATM   11  C   UNL     1     -42.430 -47.785   9.911  1.00  0.00     0.159 C 
HETATM   12  H   UNL     1     -42.312 -50.153  10.887  1.00  0.00     0.164 HD
ENDROOT
BRANCH   1  13
HETATM   13  C   UNL     1     -42.621 -50.851  12.864  1.00  0.00     0.100 C 
HETATM   14  C   UNL     1     -44.079 -50.667  13.297  1.00  0.00     0.034 C 
BRANCH  13  15
HETATM   15  C   UNL     1     -42.350 -52.289  12.374  1.00  0.00     0.153 C 
BRANCH  15  16
HETATM   16  N   UNL     1     -41.169 -52.898  12.955  1.00  0.00    -0.350 N 
HETATM   17  C   UNL     1     -40.198 -52.257  13.673  1.00  0.00     0.108 A 
HETATM   18  C   UNL     1     -39.306 -53.244  14.021  1.00  0.00     0.106 A 
HETATM   19  N   UNL     1     -39.711 -54.460  13.532  1.00  0.00    -0.361 N 
HETATM   20  C   UNL     1     -40.845 -54.224  12.912  1.00  0.00     0.182 A 
ATOM     21  HN  UNL     1     -39.233 -55.356  13.629  1.00  0.00     0.166 HD
ENDBRANCH  15  16
ENDBRANCH  13  15
ENDBRANCH   1  13
TORSDOF 3
ENDMDL
MODEL 3
REMARK VINA RESULT:      -5.8      1.978      2.663
REMARK  3 active torsions:
REMARK  status: ('A' for Active; 'I' for Inactive)
REMARK    1  A    between atoms: C_2  and  C_3 
REMARK    2  A    between atoms: C_2  and  N_10 
REMARK    3  A    between atoms: C_3  and  N_4 
REMARK       I    between atoms: N_10  and  C_11 
REMARK       I    between atoms: C_11  and  N_13 
ROOT
HETATM    1  N   UNL     1     -41.798 -50.070  11.811  1.00  0.00    -0.337 N 
HETATM    2  C   UNL     1     -42.796 -50.765  12.438  1.00  0.00     0.318 C 
HETATM    3  O   UNL     1     -43.773 -50.221  12.939  1.00  0.00    -0.247 OA
HETATM    4  N   UNL     1     -42.617 -52.135  12.396  1.00  0.00    -0.329 N 
HETATM    5  C   UNL     1     -43.721 -53.032  12.743  1.00  0.00     0.159 C 
HETATM    6  C   UNL     1     -43.419 -53.829  14.026  1.00  0.00     0.136 C 
HETATM    7  C   UNL     1     -44.467 -54.912  14.249  1.00  0.00     0.041 C 
HETATM    8  O   UNL     1     -42.138 -54.487  13.932  1.00  0.00    -0.378 OA
HETATM    9  C   UNL     1     -41.083 -53.531  13.720  1.00  0.00     0.136 C 
HETATM   10  C   UNL     1     -39.760 -54.281  13.709  1.00  0.00     0.041 C 
HETATM   11  C   UNL     1     -41.304 -52.788  12.392  1.00  0.00     0.159 C 
HETATM   12  H   UNL     1     -41.345 -50.590  11.074  1.00  0.00     0.164 HD
ENDROOT
BRANCH   1  13
HETATM   13  C   UNL     1     -41.763 -48.609  11.700  1.00  0.00     0.100 C 
HETATM   14  C   UNL     1     -40.534 -48.112  12.469  1.00  0.00     0.034 C 
BRANCH  13  15
HETATM   15  C   UNL     1     -41.753 -48.119  10.236  1.00  0.00     0.153 C 
BRANCH  15  16
HETATM   16  N   UNL     1     -43.071 -47.831   9.702  1.00  0.00    -0.350 N 
HETATM   17  C   UNL     1     -44.209 -47.614  10.428  1.00  0.00     0.108 A 
HETATM   18  C   UNL     1     -45.185 -47.369   9.490  1.00  0.00     0.106 A 
HETATM   19  N   UNL     1     -44.668 -47.434   8.222  1.00  0.00    -0.361 N 
HETATM   20  C   UNL     1     -43.390 -47.694   8.381  1.00  0.00     0.182 A 
ATOM     21  HN  UNL     1     -45.168 -47.308   7.342  1.00  0.00     0.166 HD
ENDBRANCH  15  16
ENDBRANCH  13  15
ENDBRANCH   1  13
TORSDOF 3
ENDMDL
MODEL 4
REMARK VINA RESULT:      -5.6      2.812      6.566
REMARK  3 active torsions:
REMARK  status: ('A' for Active; 'I' for Inactive)
REMARK    1  A    between atoms: C_2  and  C_3 
REMARK    2  A    between atoms: C_2  and  N_10 
REMARK    3  A    between atoms: C_3  and  N_4 
REMARK       I    between atoms: N_10  and  C_11 
REMARK       I    between atoms: C_11  and  N_13 
ROOT
HETATM    1  N   UNL     1     -42.306 -49.918  11.820  1.00  0.00    -0.337 N 
HETATM    2  C   UNL     1     -41.568 -48.797  12.085  1.00  0.00     0.318 C 
HETATM    3  O   UNL     1     -41.077 -48.566  13.184  1.00  0.00    -0.247 OA
HETATM    4  N   UNL     1     -41.390 -47.987  10.979  1.00  0.00    -0.329 N 
HETATM    5  C   UNL     1     -40.390 -46.919  11.002  1.00  0.00     0.159 C 
HETATM    6  C   UNL     1     -41.046 -45.527  10.927  1.00  0.00     0.136 C 
HETATM    7  C   UNL     1     -39.995 -44.443  10.727  1.00  0.00     0.041 C 
HETATM    8  O   UNL     1     -41.958 -45.450   9.811  1.00  0.00    -0.378 OA
HETATM    9  C   UNL     1     -42.991 -46.446   9.921  1.00  0.00     0.136 C 
HETATM   10  C   UNL     1     -43.955 -46.259   8.759  1.00  0.00     0.041 C 
HETATM   11  C   UNL     1     -42.371 -47.854   9.896  1.00  0.00     0.159 C 
HETATM   12  H   UNL     1     -42.244 -50.226  10.860  1.00  0.00     0.164 HD
ENDROOT
BRANCH   1  13
HETATM   13  C   UNL     1     -42.620 -50.946  12.818  1.00  0.00     0.100 C 
HETATM   14  C   UNL     1     -43.988 -50.606  13.420  1.00  0.00     0.034 C 
BRANCH  13  15
HETATM   15  C   UNL     1     -42.594 -52.375  12.236  1.00  0.00     0.153 C 
BRANCH  15  16
HETATM   16  N   UNL     1     -43.151 -53.382  13.119  1.00  0.00    -0.350 N 
HETATM   17  C   UNL     1     -42.598 -53.830  14.287  1.00  0.00     0.108 A 
HETATM   18  C   UNL     1     -43.491 -54.759  14.767  1.00  0.00     0.106 A 
HETATM   19  N   UNL     1     -44.564 -54.884  13.923  1.00  0.00    -0.361 N 
HETATM   20  C   UNL     1     -44.341 -54.029  12.950  1.00  0.00     0.182 A 
ATOM     21  HN  UNL     1     -45.364 -55.507  14.027  1.00  0.00     0.166 HD
ENDBRANCH  15  16
ENDBRANCH  13  15
ENDBRANCH   1  13
TORSDOF 3
ENDMDL
MODEL 5
REMARK VINA RESULT:      -5.4      2.727      5.715
REMARK  3 active torsions:
REMARK  status: ('A' for Active; 'I' for Inactive)
REMARK    1  A    between atoms: C_2  and  C_3 
REMARK    2  A    between atoms: C_2  and  N_10 
REMARK    3  A    between atoms: C_3  and  N_4 
REMARK       I    between atoms: N_10  and  C_11 
REMARK       I    between atoms: C_11  and  N_13 
ROOT
HETATM    1  N   UNL     1     -42.044 -49.805  12.039  1.00  0.00    -0.337 N 
HETATM    2  C   UNL     1     -41.917 -51.128  12.362  1.00  0.00     0.318 C 
HETATM    3  O   UNL     1     -41.056 -51.853  11.878  1.00  0.00    -0.247 OA
HETATM    4  N   UNL     1     -42.819 -51.544  13.324  1.00  0.00    -0.329 N 
HETATM    5  C   UNL     1     -42.632 -52.827  14.002  1.00  0.00     0.159 C 
HETATM    6  C   UNL     1     -43.759 -53.819  13.654  1.00  0.00     0.136 C 
HETATM    7  C   UNL     1     -43.677 -55.060  14.532  1.00  0.00     0.041 C 
HETATM    8  O   UNL     1     -45.053 -53.222  13.878  1.00  0.00    -0.378 OA
HETATM    9  C   UNL     1     -45.217 -52.034  13.082  1.00  0.00     0.136 C 
HETATM   10  C   UNL     1     -46.625 -51.503  13.308  1.00  0.00     0.041 C 
HETATM   11  C   UNL     1     -44.166 -50.984  13.479  1.00  0.00     0.159 C 
HETATM   12  H   UNL     1     -42.420 -49.239  12.786  1.00  0.00     0.164 HD
ENDROOT
BRANCH   1  13
HETATM   13  C   UNL     1     -41.196 -49.116  11.061  1.00  0.00     0.100 C 
HETATM   14  C   UNL     1     -42.084 -48.141  10.279  1.00  0.00     0.034 C 
BRANCH  13  15
HETATM   15  C   UNL     1     -39.995 -48.396  11.709  1.00  0.00     0.153 C 
BRANCH  15  16
HETATM   16  N   UNL     1     -38.961 -49.292  12.192  1.00  0.00    -0.350 N 
HETATM   17  C   UNL     1     -38.079 -50.000  11.422  1.00  0.00     0.108 A 
HETATM   18  C   UNL     1     -37.295 -50.683  12.322  1.00  0.00     0.106 A 
HETATM   19  N   UNL     1     -37.679 -50.409  13.609  1.00  0.00    -0.361 N 
HETATM   20  C   UNL     1     -38.671 -49.554  13.500  1.00  0.00     0.182 A 
ATOM     21  HN  UNL     1     -37.280 -50.788  14.468  1.00  0.00     0.166 HD
ENDBRANCH  15  16
ENDBRANCH  13  15
ENDBRANCH   1  13
TORSDOF 3
ENDMDL
MODEL 6
REMARK VINA RESULT:      -5.3      3.080      5.529
REMARK  3 active torsions:
REMARK  status: ('A' for Active; 'I' for Inactive)
REMARK    1  A    between atoms: C_2  and  C_3 
REMARK    2  A    between atoms: C_2  and  N_10 
REMARK    3  A    between atoms: C_3  and  N_4 
REMARK       I    between atoms: N_10  and  C_11 
REMARK       I    between atoms: C_11  and  N_13 
ROOT
HETATM    1  N   UNL     1     -40.267 -52.103  14.287  1.00  0.00    -0.337 N 
HETATM    2  C   UNL     1     -41.590 -52.278  13.986  1.00  0.00     0.318 C 
HETATM    3  O   UNL     1     -42.342 -51.348  13.718  1.00  0.00    -0.247 OA
HETATM    4  N   UNL     1     -41.973 -53.607  13.962  1.00  0.00    -0.329 N 
HETATM    5  C   UNL     1     -43.254 -53.992  13.371  1.00  0.00     0.159 C 
HETATM    6  C   UNL     1     -44.219 -54.557  14.431  1.00  0.00     0.136 C 
HETATM    7  C   UNL     1     -45.454 -55.158  13.773  1.00  0.00     0.041 C 
HETATM    8  O   UNL     1     -43.586 -55.607  15.191  1.00  0.00    -0.378 OA
HETATM    9  C   UNL     1     -42.402 -55.124  15.851  1.00  0.00     0.136 C 
HETATM   10  C   UNL     1     -41.832 -56.256  16.692  1.00  0.00     0.041 C 
HETATM   11  C   UNL     1     -41.376 -54.645  14.809  1.00  0.00     0.159 C 
HETATM   12  H   UNL     1     -39.685 -52.885  14.025  1.00  0.00     0.164 HD
ENDROOT
BRANCH   1  13
HETATM   13  C   UNL     1     -39.610 -50.794  14.357  1.00  0.00     0.100 C 
HETATM   14  C   UNL     1     -38.620 -50.831  15.526  1.00  0.00     0.034 C 
BRANCH  13  15
HETATM   15  C   UNL     1     -38.916 -50.399  13.037  1.00  0.00     0.153 C 
BRANCH  15  16
HETATM   16  N   UNL     1     -39.724 -49.560  12.172  1.00  0.00    -0.350 N 
HETATM   17  C   UNL     1     -39.881 -48.206  12.275  1.00  0.00     0.108 A 
HETATM   18  C   UNL     1     -40.716 -47.867  11.236  1.00  0.00     0.106 A 
HETATM   19  N   UNL     1     -41.068 -48.978  10.513  1.00  0.00    -0.361 N 
HETATM   20  C   UNL     1     -40.440 -49.979  11.087  1.00  0.00     0.182 A 
ATOM     21  HN  UNL     1     -41.684 -49.018   9.702  1.00  0.00     0.166 HD
ENDBRANCH  15  16
ENDBRANCH  13  15
ENDBRANCH   1  13
TORSDOF 3
ENDMDL
MODEL 7
REMARK VINA RESULT:      -5.2      4.429      5.978
REMARK  3 active torsions:
REMARK  status: ('A' for Active; 'I' for Inactive)
REMARK    1  A    between atoms: C_2  and  C_3 
REMARK    2  A    between atoms: C_2  and  N_10 
REMARK    3  A    between atoms: C_3  and  N_4 
REMARK       I    between atoms: N_10  and  C_11 
REMARK       I    between atoms: C_11  and  N_13 
ROOT
HETATM    1  N   UNL     1     -41.162 -53.184  14.663  1.00  0.00    -0.337 N 
HETATM    2  C   UNL     1     -40.474 -52.834  13.533  1.00  0.00     0.318 C 
HETATM    3  O   UNL     1     -40.388 -53.563  12.552  1.00  0.00    -0.247 OA
HETATM    4  N   UNL     1     -39.940 -51.560  13.591  1.00  0.00    -0.329 N 
HETATM    5  C   UNL     1     -39.442 -50.914  12.376  1.00  0.00     0.159 C 
HETATM    6  C   UNL     1     -37.918 -50.698  12.435  1.00  0.00     0.136 C 
HETATM    7  C   UNL     1     -37.449 -49.831  11.274  1.00  0.00     0.041 C 
HETATM    8  O   UNL     1     -37.544 -50.020  13.653  1.00  0.00    -0.378 OA
HETATM    9  C   UNL     1     -37.951 -50.775  14.808  1.00  0.00     0.136 C 
HETATM   10  C   UNL     1     -37.459 -50.046  16.049  1.00  0.00     0.041 C 
HETATM   11  C   UNL     1     -39.482 -50.921  14.830  1.00  0.00     0.159 C 
HETATM   12  H   UNL     1     -41.553 -52.396  15.159  1.00  0.00     0.164 HD
ENDROOT
BRANCH   1  13
HETATM   13  C   UNL     1     -41.837 -54.472  14.843  1.00  0.00     0.100 C 
HETATM   14  C   UNL     1     -41.151 -55.199  16.005  1.00  0.00     0.034 C 
BRANCH  13  15
HETATM   15  C   UNL     1     -43.355 -54.326  15.082  1.00  0.00     0.153 C 
BRANCH  15  16
HETATM   16  N   UNL     1     -44.025 -53.475  14.116  1.00  0.00    -0.350 N 
HETATM   17  C   UNL     1     -44.611 -52.267  14.371  1.00  0.00     0.108 A 
HETATM   18  C   UNL     1     -45.092 -51.843  13.154  1.00  0.00     0.106 A 
HETATM   19  N   UNL     1     -44.813 -52.762  12.175  1.00  0.00    -0.361 N 
HETATM   20  C   UNL     1     -44.154 -53.724  12.779  1.00  0.00     0.182 A 
ATOM     21  HN  UNL     1     -45.064 -52.709  11.188  1.00  0.00     0.166 HD
ENDBRANCH  15  16
ENDBRANCH  13  15
ENDBRANCH   1  13
TORSDOF 3
ENDMDL
MODEL 8
REMARK VINA RESULT:      -5.2      1.995      3.161
REMARK  3 active torsions:
REMARK  status: ('A' for Active; 'I' for Inactive)
REMARK    1  A    between atoms: C_2  and  C_3 
REMARK    2  A    between atoms: C_2  and  N_10 
REMARK    3  A    between atoms: C_3  and  N_4 
REMARK       I    between atoms: N_10  and  C_11 
REMARK       I    between atoms: C_11  and  N_13 
ROOT
HETATM    1  N   UNL     1     -40.507 -49.816  12.519  1.00  0.00    -0.337 N 
HETATM    2  C   UNL     1     -41.699 -50.411  12.831  1.00  0.00     0.318 C 
HETATM    3  O   UNL     1     -42.664 -49.789  13.259  1.00  0.00    -0.247 OA
HETATM    4  N   UNL     1     -41.718 -51.768  12.564  1.00  0.00    -0.329 N 
HETATM    5  C   UNL     1     -42.986 -52.497  12.550  1.00  0.00     0.159 C 
HETATM    6  C   UNL     1     -43.058 -53.528  13.692  1.00  0.00     0.136 C 
HETATM    7  C   UNL     1     -44.276 -54.429  13.533  1.00  0.00     0.041 C 
HETATM    8  O   UNL     1     -41.893 -54.380  13.688  1.00  0.00    -0.378 OA
HETATM    9  C   UNL     1     -40.689 -53.606  13.836  1.00  0.00     0.136 C 
HETATM   10  C   UNL     1     -39.512 -54.568  13.901  1.00  0.00     0.041 C 
HETATM   11  C   UNL     1     -40.538 -52.635  12.652  1.00  0.00     0.159 C 
HETATM   12  H   UNL     1     -40.002 -50.284  11.782  1.00  0.00     0.164 HD
ENDROOT
BRANCH   1  13
HETATM   13  C   UNL     1     -40.238 -48.385  12.691  1.00  0.00     0.100 C 
HETATM   14  C   UNL     1     -38.844 -48.244  13.311  1.00  0.00     0.034 C 
BRANCH  13  15
HETATM   15  C   UNL     1     -40.357 -47.590  11.373  1.00  0.00     0.153 C 
BRANCH  15  16
HETATM   16  N   UNL     1     -41.724 -47.368  10.940  1.00  0.00    -0.350 N 
HETATM   17  C   UNL     1     -42.329 -47.932   9.851  1.00  0.00     0.108 A 
HETATM   18  C   UNL     1     -43.611 -47.435   9.862  1.00  0.00     0.106 A 
HETATM   19  N   UNL     1     -43.794 -46.587  10.925  1.00  0.00    -0.361 N 
HETATM   20  C   UNL     1     -42.648 -46.581  11.566  1.00  0.00     0.182 A 
ATOM     21  HN  UNL     1     -44.641 -46.071  11.165  1.00  0.00     0.166 HD
ENDBRANCH  15  16
ENDBRANCH  13  15
ENDBRANCH   1  13
TORSDOF 3
ENDMDL
MODEL 9
REMARK VINA RESULT:      -5.1     13.378     16.407
REMARK  3 active torsions:
REMARK  status: ('A' for Active; 'I' for Inactive)
REMARK    1  A    between atoms: C_2  and  C_3 
REMARK    2  A    between atoms: C_2  and  N_10 
REMARK    3  A    between atoms: C_3  and  N_4 
REMARK       I    between atoms: N_10  and  C_11 
REMARK       I    between atoms: C_11  and  N_13 
ROOT
HETATM    1  N   UNL     1     -51.802 -52.345  -1.096  1.00  0.00    -0.337 N 
HETATM    2  C   UNL     1     -50.857 -51.644  -0.397  1.00  0.00     0.318 C 
HETATM    3  O   UNL     1     -49.946 -52.185   0.219  1.00  0.00    -0.247 OA
HETATM    4  N   UNL     1     -51.004 -50.274  -0.503  1.00  0.00    -0.329 N 
HETATM    5  C   UNL     1     -49.923 -49.383  -0.079  1.00  0.00     0.159 C 
HETATM    6  C   UNL     1     -50.335 -48.534   1.139  1.00  0.00     0.136 C 
HETATM    7  C   UNL     1     -49.294 -47.461   1.428  1.00  0.00     0.041 C 
HETATM    8  O   UNL     1     -51.587 -47.860   0.894  1.00  0.00    -0.378 OA
HETATM    9  C   UNL     1     -52.634 -48.805   0.610  1.00  0.00     0.136 C 
HETATM   10  C   UNL     1     -53.935 -48.035   0.439  1.00  0.00     0.041 C 
HETATM   11  C   UNL     1     -52.297 -49.600  -0.663  1.00  0.00     0.159 C 
HETATM   12  H   UNL     1     -52.168 -51.845  -1.893  1.00  0.00     0.164 HD
ENDROOT
BRANCH   1  13
HETATM   13  C   UNL     1     -51.854 -53.808  -1.160  1.00  0.00     0.100 C 
HETATM   14  C   UNL     1     -53.157 -54.257  -0.489  1.00  0.00     0.034 C 
BRANCH  13  15
HETATM   15  C   UNL     1     -51.739 -54.351  -2.600  1.00  0.00     0.153 C 
BRANCH  15  16
HETATM   16  N   UNL     1     -50.613 -55.241  -2.807  1.00  0.00    -0.350 N 
HETATM   17  C   UNL     1     -50.621 -56.400  -3.533  1.00  0.00     0.108 A 
HETATM   18  C   UNL     1     -49.333 -56.877  -3.452  1.00  0.00     0.106 A 
HETATM   19  N   UNL     1     -48.552 -56.040  -2.697  1.00  0.00    -0.361 N 
HETATM   20  C   UNL     1     -49.344 -55.055  -2.339  1.00  0.00     0.182 A 
ATOM     21  HN  UNL     1     -47.566 -56.157  -2.464  1.00  0.00     0.166 HD
ENDBRANCH  15  16
ENDBRANCH  13  15
ENDBRANCH   1  13
TORSDOF 3
ENDMDL
