MODEL 1
REMARK VINA RESULT:      -6.2      0.000      0.000
REMARK  5 active torsions:
REMARK  status: ('A' for Active; 'I' for Inactive)
REMARK    1  A    between atoms: O_1  and  C_2 
REMARK    2  A    between atoms: C_2  and  C_3 
REMARK    3  A    between atoms: C_3  and  C_4 
REMARK    4  A    between atoms: C_4  and  N_10 
REMARK       I    between atoms: N_10  and  C_11 
REMARK       I    between atoms: C_11  and  N_13 
REMARK    5  A    between atoms: N_13  and  C_14 
ROOT
HETATM    1  N   UNL     1     -40.673 -49.183  10.727  1.00  0.00    -0.334 N 
HETATM    2  C   UNL     1     -41.841 -48.452  10.779  1.00  0.00     0.321 C 
HETATM    3  O   UNL     1     -42.393 -48.132  11.822  1.00  0.00    -0.247 OA
HETATM    4  N   UNL     1     -42.265 -48.074   9.524  1.00  0.00    -0.308 N 
HETATM    5  H   UNL     1     -40.640 -49.819   9.942  1.00  0.00     0.165 HD
HETATM    6  H   UNL     1     -41.508 -47.874   8.888  1.00  0.00     0.170 HD
ENDROOT
BRANCH   1   7
HETATM    7  C   UNL     1     -39.945 -49.602  11.953  1.00  0.00     0.036 C 
HETATM    8  C   UNL     1     -38.555 -50.195  11.577  1.00  0.00     0.031 C 
HETATM    9  C   UNL     1     -37.639 -50.438  12.773  1.00  0.00     0.002 C 
HETATM   10  C   UNL     1     -37.459 -49.182  13.610  1.00  0.00     0.000 C 
HETATM   11  C   UNL     1     -38.797 -48.579  14.024  1.00  0.00     0.002 C 
HETATM   12  C   UNL     1     -39.701 -48.333  12.815  1.00  0.00     0.031 C 
BRANCH   7  13
HETATM   13  C   UNL     1     -40.779 -50.664  12.736  1.00  0.00     0.057 C 
BRANCH  13  14
HETATM   14  C   UNL     1     -40.603 -52.109  12.272  1.00  0.00     0.166 C 
BRANCH  14  15
HETATM   15  O   UNL     1     -41.364 -52.301  11.083  1.00  0.00    -0.401 OA
HETATM   16  H   UNL     1     -42.284 -52.470  11.351  1.00  0.00     0.209 HD
ENDBRANCH  14  15
ENDBRANCH  13  14
ENDBRANCH   7  13
ENDBRANCH   1   7
BRANCH   4  17
HETATM   17  C   UNL     1     -43.438 -47.296   9.385  1.00  0.00     0.051 A 
HETATM   18  C   UNL     1     -44.667 -47.930   9.230  1.00  0.00     0.032 A 
HETATM   19  C   UNL     1     -45.796 -47.159   8.955  1.00  0.00     0.019 A 
HETATM   20  C   UNL     1     -45.665 -45.780   8.907  1.00  0.00     0.088 A 
HETATM   21  N   UNL     1     -44.505 -45.129   9.124  1.00  0.00    -0.373 N 
HETATM   22  C   UNL     1     -43.413 -45.902   9.340  1.00  0.00     0.117 A 
ATOM     23  HN  UNL     1     -44.451 -44.111   9.125  1.00  0.00     0.164 HD
ENDBRANCH   4  17
TORSDOF 5
ENDMDL
MODEL 2
REMARK VINA RESULT:      -5.8      3.809      5.595
REMARK  5 active torsions:
REMARK  status: ('A' for Active; 'I' for Inactive)
REMARK    1  A    between atoms: O_1  and  C_2 
REMARK    2  A    between atoms: C_2  and  C_3 
REMARK    3  A    between atoms: C_3  and  C_4 
REMARK    4  A    between atoms: C_4  and  N_10 
REMARK       I    between atoms: N_10  and  C_11 
REMARK       I    between atoms: C_11  and  N_13 
REMARK    5  A    between atoms: N_13  and  C_14 
ROOT
HETATM    1  N   UNL     1     -43.418 -51.620  12.954  1.00  0.00    -0.334 N 
HETATM    2  C   UNL     1     -42.931 -50.343  12.772  1.00  0.00     0.321 C 
HETATM    3  O   UNL     1     -43.250 -49.392  13.470  1.00  0.00    -0.247 OA
HETATM    4  N   UNL     1     -42.000 -50.289  11.758  1.00  0.00    -0.308 N 
HETATM    5  H   UNL     1     -43.549 -52.120  12.084  1.00  0.00     0.165 HD
HETATM    6  H   UNL     1     -41.430 -51.119  11.692  1.00  0.00     0.170 HD
ENDROOT
BRANCH   1   7
HETATM    7  C   UNL     1     -44.341 -51.966  14.066  1.00  0.00     0.036 C 
HETATM    8  C   UNL     1     -43.917 -51.223  15.367  1.00  0.00     0.031 C 
HETATM    9  C   UNL     1     -44.933 -51.326  16.501  1.00  0.00     0.002 C 
HETATM   10  C   UNL     1     -46.314 -50.865  16.065  1.00  0.00     0.000 C 
HETATM   11  C   UNL     1     -46.782 -51.586  14.806  1.00  0.00     0.002 C 
HETATM   12  C   UNL     1     -45.759 -51.466  13.675  1.00  0.00     0.031 C 
BRANCH   7  13
HETATM   13  C   UNL     1     -44.333 -53.507  14.311  1.00  0.00     0.057 C 
BRANCH  13  14
HETATM   14  C   UNL     1     -44.946 -54.352  13.195  1.00  0.00     0.166 C 
BRANCH  14  15
HETATM   15  O   UNL     1     -44.143 -54.214  12.027  1.00  0.00    -0.401 OA
HETATM   16  H   UNL     1     -43.233 -54.459  12.268  1.00  0.00     0.209 HD
ENDBRANCH  14  15
ENDBRANCH  13  14
ENDBRANCH   7  13
ENDBRANCH   1   7
BRANCH   4  17
HETATM   17  C   UNL     1     -41.375 -49.060  11.445  1.00  0.00     0.051 A 
HETATM   18  C   UNL     1     -40.271 -48.644  12.184  1.00  0.00     0.032 A 
HETATM   19  C   UNL     1     -39.748 -47.371  11.961  1.00  0.00     0.019 A 
HETATM   20  C   UNL     1     -40.309 -46.586  10.966  1.00  0.00     0.088 A 
HETATM   21  N   UNL     1     -41.331 -46.985  10.183  1.00  0.00    -0.373 N 
HETATM   22  C   UNL     1     -41.853 -48.205  10.452  1.00  0.00     0.117 A 
ATOM     23  HN  UNL     1     -41.691 -46.400   9.429  1.00  0.00     0.164 HD
ENDBRANCH   4  17
TORSDOF 5
ENDMDL
MODEL 3
REMARK VINA RESULT:      -5.7      4.061      6.468
REMARK  5 active torsions:
REMARK  status: ('A' for Active; 'I' for Inactive)
REMARK    1  A    between atoms: O_1  and  C_2 
REMARK    2  A    between atoms: C_2  and  C_3 
REMARK    3  A    between atoms: C_3  and  C_4 
REMARK    4  A    between atoms: C_4  and  N_10 
REMARK       I    between atoms: N_10  and  C_11 
REMARK       I    between atoms: C_11  and  N_13 
REMARK    5  A    between atoms: N_13  and  C_14 
ROOT
HETATM    1  N   UNL     1     -44.002 -51.264  12.967  1.00  0.00    -0.334 N 
HETATM    2  C   UNL     1     -42.687 -50.867  13.082  1.00  0.00     0.321 C 
HETATM    3  O   UNL     1     -42.072 -50.859  14.139  1.00  0.00    -0.247 OA
HETATM    4  N   UNL     1     -42.140 -50.547  11.859  1.00  0.00    -0.308 N 
HETATM    5  H   UNL     1     -44.517 -50.732  12.278  1.00  0.00     0.165 HD
HETATM    6  H   UNL     1     -42.488 -51.117  11.102  1.00  0.00     0.170 HD
ENDROOT
BRANCH   1   7
HETATM    7  C   UNL     1     -44.779 -51.779  14.125  1.00  0.00     0.036 C 
HETATM    8  C   UNL     1     -44.516 -50.898  15.382  1.00  0.00     0.031 C 
HETATM    9  C   UNL     1     -45.442 -51.200  16.557  1.00  0.00     0.002 C 
HETATM   10  C   UNL     1     -46.906 -51.115  16.158  1.00  0.00     0.000 C 
HETATM   11  C   UNL     1     -47.216 -51.983  14.944  1.00  0.00     0.002 C 
HETATM   12  C   UNL     1     -46.287 -51.662  13.772  1.00  0.00     0.031 C 
BRANCH   7  13
HETATM   13  C   UNL     1     -44.381 -53.258  14.423  1.00  0.00     0.057 C 
BRANCH  13  14
HETATM   14  C   UNL     1     -44.864 -54.286  13.401  1.00  0.00     0.166 C 
BRANCH  14  15
HETATM   15  O   UNL     1     -44.148 -54.089  12.185  1.00  0.00    -0.401 OA
HETATM   16  H   UNL     1     -43.412 -54.724  12.175  1.00  0.00     0.209 HD
ENDBRANCH  14  15
ENDBRANCH  13  14
ENDBRANCH   7  13
ENDBRANCH   1   7
BRANCH   4  17
HETATM   17  C   UNL     1     -40.788 -50.139  11.781  1.00  0.00     0.051 A 
HETATM   18  C   UNL     1     -39.780 -51.041  12.108  1.00  0.00     0.032 A 
HETATM   19  C   UNL     1     -38.461 -50.591  12.163  1.00  0.00     0.019 A 
HETATM   20  C   UNL     1     -38.192 -49.273  11.827  1.00  0.00     0.088 A 
HETATM   21  N   UNL     1     -39.135 -48.393  11.436  1.00  0.00    -0.373 N 
HETATM   22  C   UNL     1     -40.414 -48.839  11.439  1.00  0.00     0.117 A 
ATOM     23  HN  UNL     1     -38.898 -47.442  11.153  1.00  0.00     0.164 HD
ENDBRANCH   4  17
TORSDOF 5
ENDMDL
MODEL 4
REMARK VINA RESULT:      -5.6      3.366      4.428
REMARK  5 active torsions:
REMARK  status: ('A' for Active; 'I' for Inactive)
REMARK    1  A    between atoms: O_1  and  C_2 
REMARK    2  A    between atoms: C_2  and  C_3 
REMARK    3  A    between atoms: C_3  and  C_4 
REMARK    4  A    between atoms: C_4  and  N_10 
REMARK       I    between atoms: N_10  and  C_11 
REMARK       I    between atoms: C_11  and  N_13 
REMARK    5  A    between atoms: N_13  and  C_14 
ROOT
HETATM    1  N   UNL     1     -43.446 -51.287  12.554  1.00  0.00    -0.334 N 
HETATM    2  C   UNL     1     -42.591 -50.210  12.456  1.00  0.00     0.321 C 
HETATM    3  O   UNL     1     -41.425 -50.237  12.821  1.00  0.00    -0.247 OA
HETATM    4  N   UNL     1     -43.192 -49.132  11.843  1.00  0.00    -0.308 N 
HETATM    5  H   UNL     1     -44.398 -51.017  12.765  1.00  0.00     0.165 HD
HETATM    6  H   UNL     1     -43.844 -49.395  11.119  1.00  0.00     0.170 HD
ENDROOT
BRANCH   1   7
HETATM    7  C   UNL     1     -43.000 -52.609  13.064  1.00  0.00     0.036 C 
HETATM    8  C   UNL     1     -41.631 -52.996  12.431  1.00  0.00     0.031 C 
HETATM    9  C   UNL     1     -40.977 -54.221  13.064  1.00  0.00     0.002 C 
HETATM   10  C   UNL     1     -40.830 -54.067  14.569  1.00  0.00     0.000 C 
HETATM   11  C   UNL     1     -42.154 -53.713  15.236  1.00  0.00     0.002 C 
HETATM   12  C   UNL     1     -42.793 -52.478  14.598  1.00  0.00     0.031 C 
BRANCH   7  13
HETATM   13  C   UNL     1     -44.064 -53.700  12.729  1.00  0.00     0.057 C 
BRANCH  13  14
HETATM   14  C   UNL     1     -45.513 -53.319  13.029  1.00  0.00     0.166 C 
BRANCH  14  15
HETATM   15  O   UNL     1     -46.102 -52.800  11.840  1.00  0.00    -0.401 OA
HETATM   16  H   UNL     1     -45.451 -52.207  11.428  1.00  0.00     0.209 HD
ENDBRANCH  14  15
ENDBRANCH  13  14
ENDBRANCH   7  13
ENDBRANCH   1   7
BRANCH   4  17
HETATM   17  C   UNL     1     -42.455 -47.943  11.636  1.00  0.00     0.051 A 
HETATM   18  C   UNL     1     -42.656 -46.856  12.482  1.00  0.00     0.032 A 
HETATM   19  C   UNL     1     -42.032 -45.645  12.189  1.00  0.00     0.019 A 
HETATM   20  C   UNL     1     -41.181 -45.582  11.096  1.00  0.00     0.088 A 
HETATM   21  N   UNL     1     -40.907 -46.634  10.298  1.00  0.00    -0.373 N 
HETATM   22  C   UNL     1     -41.564 -47.785  10.575  1.00  0.00     0.117 A 
ATOM     23  HN  UNL     1     -40.242 -46.565   9.529  1.00  0.00     0.164 HD
ENDBRANCH   4  17
TORSDOF 5
ENDMDL
MODEL 5
REMARK VINA RESULT:      -5.4      3.648      5.806
REMARK  5 active torsions:
REMARK  status: ('A' for Active; 'I' for Inactive)
REMARK    1  A    between atoms: O_1  and  C_2 
REMARK    2  A    between atoms: C_2  and  C_3 
REMARK    3  A    between atoms: C_3  and  C_4 
REMARK    4  A    between atoms: C_4  and  N_10 
REMARK       I    between atoms: N_10  and  C_11 
REMARK       I    between atoms: C_11  and  N_13 
REMARK    5  A    between atoms: N_13  and  C_14 
ROOT
HETATM    1  N   UNL     1     -41.970 -50.464  11.781  1.00  0.00    -0.334 N 
HETATM    2  C   UNL     1     -42.741 -51.166  12.684  1.00  0.00     0.321 C 
HETATM    3  O   UNL     1     -42.978 -50.776  13.818  1.00  0.00    -0.247 OA
HETATM    4  N   UNL     1     -43.260 -52.315  12.129  1.00  0.00    -0.308 N 
HETATM    5  H   UNL     1     -41.415 -51.065  11.186  1.00  0.00     0.165 HD
HETATM    6  H   UNL     1     -43.491 -52.220  11.152  1.00  0.00     0.170 HD
ENDROOT
BRANCH   1   7
HETATM    7  C   UNL     1     -41.399 -49.129  12.096  1.00  0.00     0.036 C 
HETATM    8  C   UNL     1     -41.124 -48.339  10.783  1.00  0.00     0.031 C 
HETATM    9  C   UNL     1     -40.759 -46.873  11.004  1.00  0.00     0.002 C 
HETATM   10  C   UNL     1     -41.806 -46.151  11.836  1.00  0.00     0.000 C 
HETATM   11  C   UNL     1     -42.090 -46.876  13.146  1.00  0.00     0.002 C 
HETATM   12  C   UNL     1     -42.463 -48.341  12.909  1.00  0.00     0.031 C 
BRANCH   7  13
HETATM   13  C   UNL     1     -40.074 -49.288  12.905  1.00  0.00     0.057 C 
BRANCH  13  14
HETATM   14  C   UNL     1     -38.916 -49.932  12.146  1.00  0.00     0.166 C 
BRANCH  14  15
HETATM   15  O   UNL     1     -39.210 -51.313  11.954  1.00  0.00    -0.401 OA
HETATM   16  H   UNL     1     -38.711 -51.611  11.174  1.00  0.00     0.209 HD
ENDBRANCH  14  15
ENDBRANCH  13  14
ENDBRANCH   7  13
ENDBRANCH   1   7
BRANCH   4  17
HETATM   17  C   UNL     1     -44.097 -53.151  12.904  1.00  0.00     0.051 A 
HETATM   18  C   UNL     1     -43.534 -54.177  13.657  1.00  0.00     0.032 A 
HETATM   19  C   UNL     1     -44.375 -55.081  14.306  1.00  0.00     0.019 A 
HETATM   20  C   UNL     1     -45.745 -54.888  14.229  1.00  0.00     0.088 A 
HETATM   21  N   UNL     1     -46.322 -53.864  13.569  1.00  0.00    -0.373 N 
HETATM   22  C   UNL     1     -45.487 -53.029  12.906  1.00  0.00     0.117 A 
ATOM     23  HN  UNL     1     -47.332 -53.726  13.568  1.00  0.00     0.164 HD
ENDBRANCH   4  17
TORSDOF 5
ENDMDL
MODEL 6
REMARK VINA RESULT:      -5.4      4.013      5.720
REMARK  5 active torsions:
REMARK  status: ('A' for Active; 'I' for Inactive)
REMARK    1  A    between atoms: O_1  and  C_2 
REMARK    2  A    between atoms: C_2  and  C_3 
REMARK    3  A    between atoms: C_3  and  C_4 
REMARK    4  A    between atoms: C_4  and  N_10 
REMARK       I    between atoms: N_10  and  C_11 
REMARK       I    between atoms: C_11  and  N_13 
REMARK    5  A    between atoms: N_13  and  C_14 
ROOT
HETATM    1  N   UNL     1     -42.294 -50.846  12.067  1.00  0.00    -0.334 N 
HETATM    2  C   UNL     1     -43.017 -51.640  12.931  1.00  0.00     0.321 C 
HETATM    3  O   UNL     1     -42.601 -52.013  14.018  1.00  0.00    -0.247 OA
HETATM    4  N   UNL     1     -44.281 -51.904  12.447  1.00  0.00    -0.308 N 
HETATM    5  H   UNL     1     -42.454 -51.071  11.094  1.00  0.00     0.165 HD
HETATM    6  H   UNL     1     -44.679 -51.136  11.927  1.00  0.00     0.170 HD
ENDROOT
BRANCH   1   7
HETATM    7  C   UNL     1     -40.948 -50.319  12.415  1.00  0.00     0.036 C 
HETATM    8  C   UNL     1     -41.016 -49.503  13.740  1.00  0.00     0.031 C 
HETATM    9  C   UNL     1     -39.651 -49.119  14.303  1.00  0.00     0.002 C 
HETATM   10  C   UNL     1     -38.754 -50.333  14.484  1.00  0.00     0.000 C 
HETATM   11  C   UNL     1     -38.637 -51.150  13.202  1.00  0.00     0.002 C 
HETATM   12  C   UNL     1     -40.012 -51.535  12.654  1.00  0.00     0.031 C 
BRANCH   7  13
HETATM   13  C   UNL     1     -40.413 -49.412  11.262  1.00  0.00     0.057 C 
BRANCH  13  14
HETATM   14  C   UNL     1     -41.245 -48.166  10.968  1.00  0.00     0.166 C 
BRANCH  14  15
HETATM   15  O   UNL     1     -42.338 -48.536  10.133  1.00  0.00    -0.401 OA
HETATM   16  H   UNL     1     -43.028 -48.911  10.706  1.00  0.00     0.209 HD
ENDBRANCH  14  15
ENDBRANCH  13  14
ENDBRANCH   7  13
ENDBRANCH   1   7
BRANCH   4  17
HETATM   17  C   UNL     1     -45.175 -52.688  13.213  1.00  0.00     0.051 A 
HETATM   18  C   UNL     1     -46.086 -52.060  14.058  1.00  0.00     0.032 A 
HETATM   19  C   UNL     1     -46.866 -52.840  14.910  1.00  0.00     0.019 A 
HETATM   20  C   UNL     1     -46.752 -54.220  14.842  1.00  0.00     0.088 A 
HETATM   21  N   UNL     1     -45.933 -54.862  13.985  1.00  0.00    -0.373 N 
HETATM   22  C   UNL     1     -45.149 -54.082  13.203  1.00  0.00     0.117 A 
ATOM     23  HN  UNL     1     -45.905 -55.880  13.929  1.00  0.00     0.164 HD
ENDBRANCH   4  17
TORSDOF 5
ENDMDL
MODEL 7
REMARK VINA RESULT:      -5.4      2.298      3.009
REMARK  5 active torsions:
REMARK  status: ('A' for Active; 'I' for Inactive)
REMARK    1  A    between atoms: O_1  and  C_2 
REMARK    2  A    between atoms: C_2  and  C_3 
REMARK    3  A    between atoms: C_3  and  C_4 
REMARK    4  A    between atoms: C_4  and  N_10 
REMARK       I    between atoms: N_10  and  C_11 
REMARK       I    between atoms: C_11  and  N_13 
REMARK    5  A    between atoms: N_13  and  C_14 
ROOT
HETATM    1  N   UNL     1     -39.516 -48.409  11.088  1.00  0.00    -0.334 N 
HETATM    2  C   UNL     1     -40.246 -47.300  11.460  1.00  0.00     0.321 C 
HETATM    3  O   UNL     1     -40.741 -47.156  12.568  1.00  0.00    -0.247 OA
HETATM    4  N   UNL     1     -40.292 -46.357  10.456  1.00  0.00    -0.308 N 
HETATM    5  H   UNL     1     -39.656 -48.668  10.121  1.00  0.00     0.165 HD
HETATM    6  H   UNL     1     -39.445 -46.311   9.910  1.00  0.00     0.170 HD
ENDROOT
BRANCH   1   7
HETATM    7  C   UNL     1     -39.214 -49.513  12.036  1.00  0.00     0.036 C 
HETATM    8  C   UNL     1     -37.773 -50.052  11.792  1.00  0.00     0.031 C 
HETATM    9  C   UNL     1     -37.284 -51.023  12.862  1.00  0.00     0.002 C 
HETATM   10  C   UNL     1     -37.386 -50.426  14.256  1.00  0.00     0.000 C 
HETATM   11  C   UNL     1     -38.790 -49.907  14.550  1.00  0.00     0.002 C 
HETATM   12  C   UNL     1     -39.263 -48.927  13.474  1.00  0.00     0.031 C 
BRANCH   7  13
HETATM   13  C   UNL     1     -40.248 -50.668  11.861  1.00  0.00     0.057 C 
BRANCH  13  14
HETATM   14  C   UNL     1     -41.624 -50.415  12.472  1.00  0.00     0.166 C 
BRANCH  14  15
HETATM   15  O   UNL     1     -42.403 -49.665  11.544  1.00  0.00    -0.401 OA
HETATM   16  H   UNL     1     -41.814 -49.402  10.817  1.00  0.00     0.209 HD
ENDBRANCH  14  15
ENDBRANCH  13  14
ENDBRANCH   7  13
ENDBRANCH   1   7
BRANCH   4  17
HETATM   17  C   UNL     1     -40.981 -45.140  10.669  1.00  0.00     0.051 A 
HETATM   18  C   UNL     1     -40.261 -43.988  10.970  1.00  0.00     0.032 A 
HETATM   19  C   UNL     1     -40.952 -42.828  11.314  1.00  0.00     0.019 A 
HETATM   20  C   UNL     1     -42.338 -42.845  11.283  1.00  0.00     0.088 A 
HETATM   21  N   UNL     1     -43.067 -43.922  10.926  1.00  0.00    -0.373 N 
HETATM   22  C   UNL     1     -42.373 -45.051  10.645  1.00  0.00     0.117 A 
ATOM     23  HN  UNL     1     -44.084 -43.888  10.871  1.00  0.00     0.164 HD
ENDBRANCH   4  17
TORSDOF 5
ENDMDL
MODEL 8
REMARK VINA RESULT:      -5.4      2.607      6.033
REMARK  5 active torsions:
REMARK  status: ('A' for Active; 'I' for Inactive)
REMARK    1  A    between atoms: O_1  and  C_2 
REMARK    2  A    between atoms: C_2  and  C_3 
REMARK    3  A    between atoms: C_3  and  C_4 
REMARK    4  A    between atoms: C_4  and  N_10 
REMARK       I    between atoms: N_10  and  C_11 
REMARK       I    between atoms: C_11  and  N_13 
REMARK    5  A    between atoms: N_13  and  C_14 
ROOT
HETATM    1  N   UNL     1     -40.474 -48.180  11.026  1.00  0.00    -0.334 N 
HETATM    2  C   UNL     1     -40.825 -49.204  11.881  1.00  0.00     0.321 C 
HETATM    3  O   UNL     1     -41.408 -49.030  12.941  1.00  0.00    -0.247 OA
HETATM    4  N   UNL     1     -40.498 -50.438  11.364  1.00  0.00    -0.308 N 
HETATM    5  H   UNL     1     -39.593 -48.343  10.556  1.00  0.00     0.165 HD
HETATM    6  H   UNL     1     -40.592 -50.490  10.360  1.00  0.00     0.170 HD
ENDROOT
BRANCH   1   7
HETATM    7  C   UNL     1     -40.831 -46.764  11.297  1.00  0.00     0.036 C 
HETATM    8  C   UNL     1     -40.600 -46.429  12.800  1.00  0.00     0.031 C 
HETATM    9  C   UNL     1     -40.713 -44.944  13.131  1.00  0.00     0.002 C 
HETATM   10  C   UNL     1     -39.794 -44.101  12.263  1.00  0.00     0.000 C 
HETATM   11  C   UNL     1     -40.003 -44.377  10.778  1.00  0.00     0.002 C 
HETATM   12  C   UNL     1     -39.877 -45.867  10.460  1.00  0.00     0.031 C 
BRANCH   7  13
HETATM   13  C   UNL     1     -42.324 -46.506  10.921  1.00  0.00     0.057 C 
BRANCH  13  14
HETATM   14  C   UNL     1     -42.773 -47.087   9.582  1.00  0.00     0.166 C 
BRANCH  14  15
HETATM   15  O   UNL     1     -42.744 -46.051   8.605  1.00  0.00    -0.401 OA
HETATM   16  H   UNL     1     -43.414 -45.393   8.857  1.00  0.00     0.209 HD
ENDBRANCH  14  15
ENDBRANCH  13  14
ENDBRANCH   7  13
ENDBRANCH   1   7
BRANCH   4  17
HETATM   17  C   UNL     1     -40.805 -51.609  12.095  1.00  0.00     0.051 A 
HETATM   18  C   UNL     1     -39.882 -52.108  13.010  1.00  0.00     0.032 A 
HETATM   19  C   UNL     1     -40.133 -53.335  13.623  1.00  0.00     0.019 A 
HETATM   20  C   UNL     1     -41.325 -53.986  13.346  1.00  0.00     0.088 A 
HETATM   21  N   UNL     1     -42.272 -53.497  12.522  1.00  0.00    -0.373 N 
HETATM   22  C   UNL     1     -41.984 -52.329  11.900  1.00  0.00     0.117 A 
ATOM     23  HN  UNL     1     -43.158 -53.981  12.374  1.00  0.00     0.164 HD
ENDBRANCH   4  17
TORSDOF 5
ENDMDL
MODEL 9
REMARK VINA RESULT:      -5.3      3.474      5.896
REMARK  5 active torsions:
REMARK  status: ('A' for Active; 'I' for Inactive)
REMARK    1  A    between atoms: O_1  and  C_2 
REMARK    2  A    between atoms: C_2  and  C_3 
REMARK    3  A    between atoms: C_3  and  C_4 
REMARK    4  A    between atoms: C_4  and  N_10 
REMARK       I    between atoms: N_10  and  C_11 
REMARK       I    between atoms: C_11  and  N_13 
REMARK    5  A    between atoms: N_13  and  C_14 
ROOT
HETATM    1  N   UNL     1     -42.046 -50.069  11.836  1.00  0.00    -0.334 N 
HETATM    2  C   UNL     1     -42.855 -50.808  12.673  1.00  0.00     0.321 C 
HETATM    3  O   UNL     1     -43.370 -50.359  13.686  1.00  0.00    -0.247 OA
HETATM    4  N   UNL     1     -43.061 -52.083  12.192  1.00  0.00    -0.308 N 
HETATM    5  H   UNL     1     -41.295 -50.612  11.432  1.00  0.00     0.165 HD
HETATM    6  H   UNL     1     -43.107 -52.129  11.185  1.00  0.00     0.170 HD
ENDROOT
BRANCH   1   7
HETATM    7  C   UNL     1     -41.774 -48.626  12.068  1.00  0.00     0.036 C 
HETATM    8  C   UNL     1     -41.269 -48.401  13.523  1.00  0.00     0.031 C 
HETATM    9  C   UNL     1     -40.742 -46.994  13.788  1.00  0.00     0.002 C 
HETATM   10  C   UNL     1     -39.660 -46.601  12.795  1.00  0.00     0.000 C 
HETATM   11  C   UNL     1     -40.120 -46.781  11.352  1.00  0.00     0.002 C 
HETATM   12  C   UNL     1     -40.637 -48.199  11.100  1.00  0.00     0.031 C 
BRANCH   7  13
HETATM   13  C   UNL     1     -43.069 -47.791  11.822  1.00  0.00     0.057 C 
BRANCH  13  14
HETATM   14  C   UNL     1     -43.439 -47.569  10.357  1.00  0.00     0.166 C 
BRANCH  14  15
HETATM   15  O   UNL     1     -44.749 -48.082  10.135  1.00  0.00    -0.401 OA
HETATM   16  H   UNL     1     -44.686 -49.053  10.140  1.00  0.00     0.209 HD
ENDBRANCH  14  15
ENDBRANCH  13  14
ENDBRANCH   7  13
ENDBRANCH   1   7
BRANCH   4  17
HETATM   17  C   UNL     1     -43.886 -52.979  12.911  1.00  0.00     0.051 A 
HETATM   18  C   UNL     1     -43.304 -53.932  13.741  1.00  0.00     0.032 A 
HETATM   19  C   UNL     1     -44.115 -54.898  14.336  1.00  0.00     0.019 A 
HETATM   20  C   UNL     1     -45.484 -54.837  14.128  1.00  0.00     0.088 A 
HETATM   21  N   UNL     1     -46.089 -53.885  13.388  1.00  0.00    -0.373 N 
HETATM   22  C   UNL     1     -45.275 -52.988  12.781  1.00  0.00     0.117 A 
ATOM     23  HN  UNL     1     -47.103 -53.843  13.292  1.00  0.00     0.164 HD
ENDBRANCH   4  17
TORSDOF 5
ENDMDL
