MODEL 1
REMARK VINA RESULT:      -6.4      0.000      0.000
REMARK  7 active torsions:
REMARK  status: ('A' for Active; 'I' for Inactive)
REMARK       I    between atoms: N_1  and  C_2 
REMARK    1  A    between atoms: C_2  and  C_4 
REMARK    2  A    between atoms: C_4  and  C_5 
REMARK    3  A    between atoms: C_5  and  N_6 
REMARK    4  A    between atoms: N_6  and  C_7 
REMARK    5  A    between atoms: C_7  and  C_8 
REMARK    6  A    between atoms: C_7  and  C_16 
REMARK    7  A    between atoms: C_8  and  C_9 
ROOT
HETATM    1  N   UNL     1     -39.916 -51.185  11.879  1.00  0.00     0.098 N 
HETATM    2  H   UNL     1     -40.405 -51.507  11.039  1.00  0.00     0.316 HD
ENDROOT
BRANCH   1   3
HETATM    3  C   UNL     1     -40.844 -51.105  13.013  1.00  0.00     0.289 C 
BRANCH   3   4
HETATM    4  C   UNL     1     -41.552 -52.463  13.316  1.00  0.00     0.070 C 
HETATM    5  C   UNL     1     -41.936 -52.564  14.814  1.00  0.00     0.047 C 
HETATM    6  C   UNL     1     -42.797 -53.794  15.085  1.00  0.00     0.168 C 
HETATM    7  O   UNL     1     -43.981 -53.733  14.295  1.00  0.00    -0.391 OA
HETATM    8  C   UNL     1     -43.699 -53.800  12.902  1.00  0.00     0.168 C 
HETATM    9  C   UNL     1     -42.833 -52.626  12.459  1.00  0.00     0.047 C 
BRANCH   4  10
HETATM   10  C   UNL     1     -40.521 -53.570  13.014  1.00  0.00     0.226 C 
HETATM   11  N   UNL     1     -40.829 -54.497  12.066  1.00  0.00    -0.369 N 
HETATM   12  H   UNL     1     -40.138 -55.218  11.890  1.00  0.00     0.159 HD
HETATM   13  H   UNL     1     -41.711 -54.555  11.581  1.00  0.00     0.159 HD
HETATM   14  O   UNL     1     -39.411 -53.615  13.537  1.00  0.00    -0.273 OA
ENDBRANCH   4  10
ENDBRANCH   3   4
ENDBRANCH   1   3
BRANCH   1  15
HETATM   15  C   UNL     1     -39.188 -49.926  11.522  1.00  0.00     0.331 C 
BRANCH  15  16
HETATM   16  C   UNL     1     -39.863 -48.689  12.159  1.00  0.00     0.083 C 
BRANCH  16  17
HETATM   17  C   UNL     1     -40.699 -47.812  11.254  1.00  0.00    -0.053 A 
HETATM   18  C   UNL     1     -41.819 -48.304  10.583  1.00  0.00     0.024 A 
HETATM   19  C   UNL     1     -42.571 -47.424   9.816  1.00  0.00     0.088 A 
HETATM   20  N   UNL     1     -42.285 -46.113   9.675  1.00  0.00    -0.375 N 
HETATM   21  C   UNL     1     -41.195 -45.657  10.326  1.00  0.00     0.088 A 
ATOM     22  HN  UNL     1     -42.863 -45.497   9.103  1.00  0.00     0.164 HD
HETATM   23  C   UNL     1     -40.385 -46.454  11.112  1.00  0.00     0.024 A 
ENDBRANCH  16  17
ENDBRANCH  15  16
BRANCH  15  24
HETATM   24  C   UNL     1     -37.673 -49.999  11.907  1.00  0.00     0.418 C 
HETATM   25  F   UNL     1     -36.890 -49.758  10.823  1.00  0.00    -0.169 F 
HETATM   26  F   UNL     1     -37.365 -49.047  12.818  1.00  0.00    -0.169 F 
HETATM   27  F   UNL     1     -37.297 -51.195  12.405  1.00  0.00    -0.169 F 
ENDBRANCH  15  24
ENDBRANCH   1  15
TORSDOF 7
ENDMDL
MODEL 2
REMARK VINA RESULT:      -6.3      3.552      4.917
REMARK  7 active torsions:
REMARK  status: ('A' for Active; 'I' for Inactive)
REMARK       I    between atoms: N_1  and  C_2 
REMARK    1  A    between atoms: C_2  and  C_4 
REMARK    2  A    between atoms: C_4  and  C_5 
REMARK    3  A    between atoms: C_5  and  N_6 
REMARK    4  A    between atoms: N_6  and  C_7 
REMARK    5  A    between atoms: C_7  and  C_8 
REMARK    6  A    between atoms: C_7  and  C_16 
REMARK    7  A    between atoms: C_8  and  C_9 
ROOT
HETATM    1  N   UNL     1     -43.260 -52.246  12.414  1.00  0.00     0.098 N 
HETATM    2  H   UNL     1     -43.403 -51.823  11.493  1.00  0.00     0.316 HD
ENDROOT
BRANCH   1   3
HETATM    3  C   UNL     1     -43.937 -51.458  13.452  1.00  0.00     0.289 C 
BRANCH   3   4
HETATM    4  C   UNL     1     -45.133 -52.217  14.106  1.00  0.00     0.070 C 
HETATM    5  C   UNL     1     -44.639 -53.165  15.229  1.00  0.00     0.047 C 
HETATM    6  C   UNL     1     -45.808 -53.764  16.005  1.00  0.00     0.168 C 
HETATM    7  O   UNL     1     -46.590 -52.718  16.576  1.00  0.00    -0.391 OA
HETATM    8  C   UNL     1     -47.206 -51.907  15.581  1.00  0.00     0.168 C 
HETATM    9  C   UNL     1     -46.162 -51.225  14.705  1.00  0.00     0.047 C 
BRANCH   4  10
HETATM   10  C   UNL     1     -45.761 -53.086  12.996  1.00  0.00     0.226 C 
HETATM   11  N   UNL     1     -46.693 -52.519  12.182  1.00  0.00    -0.369 N 
HETATM   12  H   UNL     1     -47.095 -53.110  11.465  1.00  0.00     0.159 HD
HETATM   13  H   UNL     1     -47.055 -51.582  12.285  1.00  0.00     0.159 HD
HETATM   14  O   UNL     1     -45.411 -54.241  12.767  1.00  0.00    -0.273 OA
ENDBRANCH   4  10
ENDBRANCH   3   4
ENDBRANCH   1   3
BRANCH   1  15
HETATM   15  C   UNL     1     -41.788 -52.456  12.590  1.00  0.00     0.331 C 
BRANCH  15  16
HETATM   16  C   UNL     1     -41.128 -51.244  13.287  1.00  0.00     0.083 C 
BRANCH  16  17
HETATM   17  C   UNL     1     -39.745 -50.846  12.823  1.00  0.00    -0.053 A 
HETATM   18  C   UNL     1     -38.594 -51.404  13.380  1.00  0.00     0.024 A 
HETATM   19  C   UNL     1     -37.360 -51.033  12.863  1.00  0.00     0.088 A 
HETATM   20  N   UNL     1     -37.201 -50.157  11.848  1.00  0.00    -0.375 N 
HETATM   21  C   UNL     1     -38.324 -49.624  11.327  1.00  0.00     0.088 A 
ATOM     22  HN  UNL     1     -36.277 -49.911  11.494  1.00  0.00     0.164 HD
HETATM   23  C   UNL     1     -39.596 -49.930  11.773  1.00  0.00     0.024 A 
ENDBRANCH  16  17
ENDBRANCH  15  16
BRANCH  15  24
HETATM   24  C   UNL     1     -41.476 -53.783  13.359  1.00  0.00     0.418 C 
HETATM   25  F   UNL     1     -40.365 -54.381  12.855  1.00  0.00    -0.169 F 
HETATM   26  F   UNL     1     -41.213 -53.529  14.662  1.00  0.00    -0.169 F 
HETATM   27  F   UNL     1     -42.471 -54.691  13.299  1.00  0.00    -0.169 F 
ENDBRANCH  15  24
ENDBRANCH   1  15
TORSDOF 7
ENDMDL
MODEL 3
REMARK VINA RESULT:      -6.2      3.541      4.818
REMARK  7 active torsions:
REMARK  status: ('A' for Active; 'I' for Inactive)
REMARK       I    between atoms: N_1  and  C_2 
REMARK    1  A    between atoms: C_2  and  C_4 
REMARK    2  A    between atoms: C_4  and  C_5 
REMARK    3  A    between atoms: C_5  and  N_6 
REMARK    4  A    between atoms: N_6  and  C_7 
REMARK    5  A    between atoms: C_7  and  C_8 
REMARK    6  A    between atoms: C_7  and  C_16 
REMARK    7  A    between atoms: C_8  and  C_9 
ROOT
HETATM    1  N   UNL     1     -39.872 -47.096  12.105  1.00  0.00     0.098 N 
HETATM    2  H   UNL     1     -38.979 -47.338  11.666  1.00  0.00     0.316 HD
ENDROOT
BRANCH   1   3
HETATM    3  C   UNL     1     -40.403 -48.242  12.853  1.00  0.00     0.289 C 
BRANCH   3   4
HETATM    4  C   UNL     1     -39.637 -49.569  12.556  1.00  0.00     0.070 C 
HETATM    5  C   UNL     1     -38.263 -49.279  11.899  1.00  0.00     0.047 C 
HETATM    6  C   UNL     1     -37.425 -50.548  11.781  1.00  0.00     0.168 C 
HETATM    7  O   UNL     1     -37.224 -51.112  13.075  1.00  0.00    -0.391 OA
HETATM    8  C   UNL     1     -38.445 -51.548  13.663  1.00  0.00     0.168 C 
HETATM    9  C   UNL     1     -39.410 -50.385  13.854  1.00  0.00     0.047 C 
BRANCH   4  10
HETATM   10  C   UNL     1     -40.494 -50.350  11.537  1.00  0.00     0.226 C 
HETATM   11  N   UNL     1     -40.450 -49.970  10.231  1.00  0.00    -0.369 N 
HETATM   12  H   UNL     1     -41.026 -50.494   9.582  1.00  0.00     0.159 HD
HETATM   13  H   UNL     1     -39.942 -49.172   9.879  1.00  0.00     0.159 HD
HETATM   14  O   UNL     1     -41.159 -51.338  11.836  1.00  0.00    -0.273 OA
ENDBRANCH   4  10
ENDBRANCH   3   4
ENDBRANCH   1   3
BRANCH   1  15
HETATM   15  C   UNL     1     -40.758 -46.527  11.040  1.00  0.00     0.331 C 
BRANCH  15  16
HETATM   16  C   UNL     1     -42.250 -46.770  11.364  1.00  0.00     0.083 C 
BRANCH  16  17
HETATM   17  C   UNL     1     -43.154 -47.159  10.215  1.00  0.00    -0.053 A 
HETATM   18  C   UNL     1     -42.657 -47.381   8.931  1.00  0.00     0.024 A 
HETATM   19  C   UNL     1     -43.540 -47.793   7.941  1.00  0.00     0.088 A 
HETATM   20  N   UNL     1     -44.860 -47.992   8.143  1.00  0.00    -0.375 N 
HETATM   21  C   UNL     1     -45.322 -47.766   9.390  1.00  0.00     0.088 A 
ATOM     22  HN  UNL     1     -45.476 -48.297   7.390  1.00  0.00     0.164 HD
HETATM   23  C   UNL     1     -44.524 -47.355  10.439  1.00  0.00     0.024 A 
ENDBRANCH  16  17
ENDBRANCH  15  16
BRANCH  15  24
HETATM   24  C   UNL     1     -40.476 -45.006  10.799  1.00  0.00     0.418 C 
HETATM   25  F   UNL     1     -39.827 -44.819   9.620  1.00  0.00    -0.169 F 
HETATM   26  F   UNL     1     -41.636 -44.314  10.709  1.00  0.00    -0.169 F 
HETATM   27  F   UNL     1     -39.719 -44.436  11.758  1.00  0.00    -0.169 F 
ENDBRANCH  15  24
ENDBRANCH   1  15
TORSDOF 7
ENDMDL
MODEL 4
REMARK VINA RESULT:      -6.2      3.270      6.042
REMARK  7 active torsions:
REMARK  status: ('A' for Active; 'I' for Inactive)
REMARK       I    between atoms: N_1  and  C_2 
REMARK    1  A    between atoms: C_2  and  C_4 
REMARK    2  A    between atoms: C_4  and  C_5 
REMARK    3  A    between atoms: C_5  and  N_6 
REMARK    4  A    between atoms: N_6  and  C_7 
REMARK    5  A    between atoms: C_7  and  C_8 
REMARK    6  A    between atoms: C_7  and  C_16 
REMARK    7  A    between atoms: C_8  and  C_9 
ROOT
HETATM    1  N   UNL     1     -42.664 -51.874  12.262  1.00  0.00     0.098 N 
HETATM    2  H   UNL     1     -42.544 -51.340  11.397  1.00  0.00     0.316 HD
ENDROOT
BRANCH   1   3
HETATM    3  C   UNL     1     -43.744 -51.300  13.074  1.00  0.00     0.289 C 
BRANCH   3   4
HETATM    4  C   UNL     1     -44.738 -52.378  13.609  1.00  0.00     0.070 C 
HETATM    5  C   UNL     1     -44.479 -53.751  12.938  1.00  0.00     0.047 C 
HETATM    6  C   UNL     1     -45.309 -54.853  13.589  1.00  0.00     0.168 C 
HETATM    7  O   UNL     1     -44.994 -54.935  14.977  1.00  0.00    -0.391 OA
HETATM    8  C   UNL     1     -45.363 -53.753  15.679  1.00  0.00     0.168 C 
HETATM    9  C   UNL     1     -44.612 -52.539  15.145  1.00  0.00     0.047 C 
BRANCH   4  10
HETATM   10  C   UNL     1     -46.151 -51.910  13.201  1.00  0.00     0.226 C 
HETATM   11  N   UNL     1     -46.587 -52.194  11.944  1.00  0.00    -0.369 N 
HETATM   12  H   UNL     1     -47.516 -51.872  11.697  1.00  0.00     0.159 HD
HETATM   13  H   UNL     1     -46.033 -52.639  11.228  1.00  0.00     0.159 HD
HETATM   14  O   UNL     1     -46.926 -51.356  13.977  1.00  0.00    -0.273 OA
ENDBRANCH   4  10
ENDBRANCH   3   4
ENDBRANCH   1   3
BRANCH   1  15
HETATM   15  C   UNL     1     -41.320 -51.977  12.916  1.00  0.00     0.331 C 
BRANCH  15  16
HETATM   16  C   UNL     1     -40.742 -53.405  12.787  1.00  0.00     0.083 C 
BRANCH  16  17
HETATM   17  C   UNL     1     -40.438 -54.149  14.067  1.00  0.00    -0.053 A 
HETATM   18  C   UNL     1     -41.440 -54.489  14.976  1.00  0.00     0.024 A 
HETATM   19  C   UNL     1     -41.093 -55.224  16.101  1.00  0.00     0.088 A 
HETATM   20  N   UNL     1     -39.836 -55.632  16.378  1.00  0.00    -0.375 N 
HETATM   21  C   UNL     1     -38.880 -55.288  15.491  1.00  0.00     0.088 A 
ATOM     22  HN  UNL     1     -39.621 -56.172  17.215  1.00  0.00     0.164 HD
HETATM   23  C   UNL     1     -39.126 -54.559  14.343  1.00  0.00     0.024 A 
ENDBRANCH  16  17
ENDBRANCH  15  16
BRANCH  15  24
HETATM   24  C   UNL     1     -40.317 -50.912  12.359  1.00  0.00     0.418 C 
HETATM   25  F   UNL     1     -40.338 -49.787  13.121  1.00  0.00    -0.169 F 
HETATM   26  F   UNL     1     -39.048 -51.381  12.407  1.00  0.00    -0.169 F 
HETATM   27  F   UNL     1     -40.578 -50.533  11.092  1.00  0.00    -0.169 F 
ENDBRANCH  15  24
ENDBRANCH   1  15
TORSDOF 7
ENDMDL
MODEL 5
REMARK VINA RESULT:      -6.2      2.867      4.342
REMARK  7 active torsions:
REMARK  status: ('A' for Active; 'I' for Inactive)
REMARK       I    between atoms: N_1  and  C_2 
REMARK    1  A    between atoms: C_2  and  C_4 
REMARK    2  A    between atoms: C_4  and  C_5 
REMARK    3  A    between atoms: C_5  and  N_6 
REMARK    4  A    between atoms: N_6  and  C_7 
REMARK    5  A    between atoms: C_7  and  C_8 
REMARK    6  A    between atoms: C_7  and  C_16 
REMARK    7  A    between atoms: C_8  and  C_9 
ROOT
HETATM    1  N   UNL     1     -42.792 -52.645  12.055  1.00  0.00     0.098 N 
HETATM    2  H   UNL     1     -42.875 -52.441  11.055  1.00  0.00     0.316 HD
ENDROOT
BRANCH   1   3
HETATM    3  C   UNL     1     -43.717 -51.808  12.829  1.00  0.00     0.289 C 
BRANCH   3   4
HETATM    4  C   UNL     1     -44.818 -52.638  13.561  1.00  0.00     0.070 C 
HETATM    5  C   UNL     1     -44.787 -54.119  13.108  1.00  0.00     0.047 C 
HETATM    6  C   UNL     1     -45.723 -54.979  13.953  1.00  0.00     0.168 C 
HETATM    7  O   UNL     1     -45.344 -54.893  15.324  1.00  0.00    -0.391 OA
HETATM    8  C   UNL     1     -45.508 -53.577  15.843  1.00  0.00     0.168 C 
HETATM    9  C   UNL     1     -44.629 -52.580  15.098  1.00  0.00     0.047 C 
BRANCH   4  10
HETATM   10  C   UNL     1     -46.175 -52.039  13.132  1.00  0.00     0.226 C 
HETATM   11  N   UNL     1     -46.629 -52.303  11.877  1.00  0.00    -0.369 N 
HETATM   12  H   UNL     1     -47.519 -51.894  11.617  1.00  0.00     0.159 HD
HETATM   13  H   UNL     1     -46.117 -52.815  11.174  1.00  0.00     0.159 HD
HETATM   14  O   UNL     1     -46.895 -51.395  13.891  1.00  0.00    -0.273 OA
ENDBRANCH   4  10
ENDBRANCH   3   4
ENDBRANCH   1   3
BRANCH   1  15
HETATM   15  C   UNL     1     -41.342 -52.546  12.417  1.00  0.00     0.331 C 
BRANCH  15  16
HETATM   16  C   UNL     1     -41.055 -51.267  13.237  1.00  0.00     0.083 C 
BRANCH  16  17
HETATM   17  C   UNL     1     -40.551 -50.058  12.482  1.00  0.00    -0.053 A 
HETATM   18  C   UNL     1     -41.417 -49.202  11.800  1.00  0.00     0.024 A 
HETATM   19  C   UNL     1     -40.886 -48.080  11.179  1.00  0.00     0.088 A 
HETATM   20  N   UNL     1     -39.574 -47.761  11.190  1.00  0.00    -0.375 N 
HETATM   21  C   UNL     1     -38.752 -48.603  11.850  1.00  0.00     0.088 A 
ATOM     22  HN  UNL     1     -39.223 -46.925  10.724  1.00  0.00     0.164 HD
HETATM   23  C   UNL     1     -39.185 -49.744  12.497  1.00  0.00     0.024 A 
ENDBRANCH  16  17
ENDBRANCH  15  16
BRANCH  15  24
HETATM   24  C   UNL     1     -40.841 -53.821  13.173  1.00  0.00     0.418 C 
HETATM   25  F   UNL     1     -41.598 -54.055  14.276  1.00  0.00    -0.169 F 
HETATM   26  F   UNL     1     -40.961 -54.919  12.390  1.00  0.00    -0.169 F 
HETATM   27  F   UNL     1     -39.560 -53.738  13.586  1.00  0.00    -0.169 F 
ENDBRANCH  15  24
ENDBRANCH   1  15
TORSDOF 7
ENDMDL
MODEL 6
REMARK VINA RESULT:      -6.1      4.256      6.543
REMARK  7 active torsions:
REMARK  status: ('A' for Active; 'I' for Inactive)
REMARK       I    between atoms: N_1  and  C_2 
REMARK    1  A    between atoms: C_2  and  C_4 
REMARK    2  A    between atoms: C_4  and  C_5 
REMARK    3  A    between atoms: C_5  and  N_6 
REMARK    4  A    between atoms: N_6  and  C_7 
REMARK    5  A    between atoms: C_7  and  C_8 
REMARK    6  A    between atoms: C_7  and  C_16 
REMARK    7  A    between atoms: C_8  and  C_9 
ROOT
HETATM    1  N   UNL     1     -42.561 -51.864  12.174  1.00  0.00     0.098 N 
HETATM    2  H   UNL     1     -42.805 -52.427  11.354  1.00  0.00     0.316 HD
ENDROOT
BRANCH   1   3
HETATM    3  C   UNL     1     -41.119 -51.941  12.439  1.00  0.00     0.289 C 
BRANCH   3   4
HETATM    4  C   UNL     1     -40.443 -50.537  12.531  1.00  0.00     0.070 C 
HETATM    5  C   UNL     1     -40.765 -49.857  13.885  1.00  0.00     0.047 C 
HETATM    6  C   UNL     1     -39.957 -48.576  14.069  1.00  0.00     0.168 C 
HETATM    7  O   UNL     1     -38.565 -48.874  14.006  1.00  0.00    -0.391 OA
HETATM    8  C   UNL     1     -38.178 -49.354  12.722  1.00  0.00     0.168 C 
HETATM    9  C   UNL     1     -38.905 -50.649  12.378  1.00  0.00     0.047 C 
BRANCH   4  10
HETATM   10  C   UNL     1     -41.064 -49.678  11.409  1.00  0.00     0.226 C 
HETATM   11  N   UNL     1     -40.530 -49.761  10.161  1.00  0.00    -0.369 N 
HETATM   12  H   UNL     1     -40.951 -49.184   9.443  1.00  0.00     0.159 HD
HETATM   13  H   UNL     1     -39.712 -50.301   9.918  1.00  0.00     0.159 HD
HETATM   14  O   UNL     1     -42.060 -48.977  11.573  1.00  0.00    -0.273 OA
ENDBRANCH   4  10
ENDBRANCH   3   4
ENDBRANCH   1   3
BRANCH   1  15
HETATM   15  C   UNL     1     -43.467 -52.281  13.291  1.00  0.00     0.331 C 
BRANCH  15  16
HETATM   16  C   UNL     1     -44.792 -51.483  13.265  1.00  0.00     0.083 C 
BRANCH  16  17
HETATM   17  C   UNL     1     -45.459 -51.204  14.592  1.00  0.00    -0.053 A 
HETATM   18  C   UNL     1     -46.796 -51.529  14.827  1.00  0.00     0.024 A 
HETATM   19  C   UNL     1     -47.322 -51.296  16.090  1.00  0.00     0.088 A 
HETATM   20  N   UNL     1     -46.620 -50.767  17.114  1.00  0.00    -0.375 N 
HETATM   21  C   UNL     1     -45.332 -50.453  16.866  1.00  0.00     0.088 A 
ATOM     22  HN  UNL     1     -47.042 -50.612  18.029  1.00  0.00     0.164 HD
HETATM   23  C   UNL     1     -44.718 -50.647  15.644  1.00  0.00     0.024 A 
ENDBRANCH  16  17
ENDBRANCH  15  16
BRANCH  15  24
HETATM   24  C   UNL     1     -43.740 -53.822  13.278  1.00  0.00     0.418 C 
HETATM   25  F   UNL     1     -42.594 -54.515  13.513  1.00  0.00    -0.169 F 
HETATM   26  F   UNL     1     -44.600 -54.163  14.265  1.00  0.00    -0.169 F 
HETATM   27  F   UNL     1     -44.239 -54.274  12.110  1.00  0.00    -0.169 F 
ENDBRANCH  15  24
ENDBRANCH   1  15
TORSDOF 7
ENDMDL
MODEL 7
REMARK VINA RESULT:      -6.1      3.077      6.423
REMARK  7 active torsions:
REMARK  status: ('A' for Active; 'I' for Inactive)
REMARK       I    between atoms: N_1  and  C_2 
REMARK    1  A    between atoms: C_2  and  C_4 
REMARK    2  A    between atoms: C_4  and  C_5 
REMARK    3  A    between atoms: C_5  and  N_6 
REMARK    4  A    between atoms: N_6  and  C_7 
REMARK    5  A    between atoms: C_7  and  C_8 
REMARK    6  A    between atoms: C_7  and  C_16 
REMARK    7  A    between atoms: C_8  and  C_9 
ROOT
HETATM    1  N   UNL     1     -41.585 -50.909  13.781  1.00  0.00     0.098 N 
HETATM    2  H   UNL     1     -41.721 -50.712  14.776  1.00  0.00     0.316 HD
ENDROOT
BRANCH   1   3
HETATM    3  C   UNL     1     -42.244 -49.887  12.960  1.00  0.00     0.289 C 
BRANCH   3   4
HETATM    4  C   UNL     1     -41.240 -48.862  12.345  1.00  0.00     0.070 C 
HETATM    5  C   UNL     1     -41.948 -47.944  11.315  1.00  0.00     0.047 C 
HETATM    6  C   UNL     1     -41.030 -46.817  10.852  1.00  0.00     0.168 C 
HETATM    7  O   UNL     1     -40.619 -46.042  11.975  1.00  0.00    -0.391 OA
HETATM    8  C   UNL     1     -39.822 -46.796  12.882  1.00  0.00     0.168 C 
HETATM    9  C   UNL     1     -40.601 -47.979  13.446  1.00  0.00     0.047 C 
BRANCH   4  10
HETATM   10  C   UNL     1     -40.178 -49.689  11.591  1.00  0.00     0.226 C 
HETATM   11  N   UNL     1     -40.441 -50.064  10.310  1.00  0.00    -0.369 N 
HETATM   12  H   UNL     1     -39.730 -50.611   9.838  1.00  0.00     0.159 HD
HETATM   13  H   UNL     1     -41.310 -49.894   9.826  1.00  0.00     0.159 HD
HETATM   14  O   UNL     1     -39.079 -49.965  12.067  1.00  0.00    -0.273 OA
ENDBRANCH   4  10
ENDBRANCH   3   4
ENDBRANCH   1   3
BRANCH   1  15
HETATM   15  C   UNL     1     -42.002 -52.328  13.542  1.00  0.00     0.331 C 
BRANCH  15  16
HETATM   16  C   UNL     1     -43.264 -52.398  12.652  1.00  0.00     0.083 C 
BRANCH  16  17
HETATM   17  C   UNL     1     -44.468 -53.121  13.212  1.00  0.00    -0.053 A 
HETATM   18  C   UNL     1     -44.517 -54.512  13.298  1.00  0.00     0.024 A 
HETATM   19  C   UNL     1     -45.632 -55.102  13.878  1.00  0.00     0.088 A 
HETATM   20  N   UNL     1     -46.682 -54.410  14.367  1.00  0.00    -0.375 N 
HETATM   21  C   UNL     1     -46.620 -53.066  14.270  1.00  0.00     0.088 A 
ATOM     22  HN  UNL     1     -47.483 -54.880  14.789  1.00  0.00     0.164 HD
HETATM   23  C   UNL     1     -45.555 -52.388  13.710  1.00  0.00     0.024 A 
ENDBRANCH  16  17
ENDBRANCH  15  16
BRANCH  15  24
HETATM   24  C   UNL     1     -40.840 -53.183  12.935  1.00  0.00     0.418 C 
HETATM   25  F   UNL     1     -40.805 -53.056  11.583  1.00  0.00    -0.169 F 
HETATM   26  F   UNL     1     -39.640 -52.749  13.388  1.00  0.00    -0.169 F 
HETATM   27  F   UNL     1     -40.939 -54.501  13.204  1.00  0.00    -0.169 F 
ENDBRANCH  15  24
ENDBRANCH   1  15
TORSDOF 7
ENDMDL
MODEL 8
REMARK VINA RESULT:      -6.1      2.666      3.483
REMARK  7 active torsions:
REMARK  status: ('A' for Active; 'I' for Inactive)
REMARK       I    between atoms: N_1  and  C_2 
REMARK    1  A    between atoms: C_2  and  C_4 
REMARK    2  A    between atoms: C_4  and  C_5 
REMARK    3  A    between atoms: C_5  and  N_6 
REMARK    4  A    between atoms: N_6  and  C_7 
REMARK    5  A    between atoms: C_7  and  C_8 
REMARK    6  A    between atoms: C_7  and  C_16 
REMARK    7  A    between atoms: C_8  and  C_9 
ROOT
HETATM    1  N   UNL     1     -43.010 -51.532  12.477  1.00  0.00     0.098 N 
HETATM    2  H   UNL     1     -43.422 -51.815  11.584  1.00  0.00     0.316 HD
ENDROOT
BRANCH   1   3
HETATM    3  C   UNL     1     -44.032 -50.945  13.352  1.00  0.00     0.289 C 
BRANCH   3   4
HETATM    4  C   UNL     1     -45.049 -52.000  13.890  1.00  0.00     0.070 C 
HETATM    5  C   UNL     1     -44.369 -52.957  14.902  1.00  0.00     0.047 C 
HETATM    6  C   UNL     1     -45.390 -53.866  15.580  1.00  0.00     0.168 C 
HETATM    7  O   UNL     1     -46.362 -53.073  16.255  1.00  0.00    -0.391 OA
HETATM    8  C   UNL     1     -47.133 -52.287  15.352  1.00  0.00     0.168 C 
HETATM    9  C   UNL     1     -46.252 -51.311  14.583  1.00  0.00     0.047 C 
BRANCH   4  10
HETATM   10  C   UNL     1     -45.497 -52.837  12.673  1.00  0.00     0.226 C 
HETATM   11  N   UNL     1     -46.489 -52.346  11.882  1.00  0.00    -0.369 N 
HETATM   12  H   UNL     1     -46.770 -52.916  11.093  1.00  0.00     0.159 HD
HETATM   13  H   UNL     1     -47.004 -51.497  12.063  1.00  0.00     0.159 HD
HETATM   14  O   UNL     1     -44.954 -53.889  12.345  1.00  0.00    -0.273 OA
ENDBRANCH   4  10
ENDBRANCH   3   4
ENDBRANCH   1   3
BRANCH   1  15
HETATM   15  C   UNL     1     -41.820 -50.675  12.173  1.00  0.00     0.331 C 
BRANCH  15  16
HETATM   16  C   UNL     1     -41.984 -49.257  12.768  1.00  0.00     0.083 C 
BRANCH  16  17
HETATM   17  C   UNL     1     -41.710 -48.085  11.852  1.00  0.00    -0.053 A 
HETATM   18  C   UNL     1     -40.460 -47.466  11.804  1.00  0.00     0.024 A 
HETATM   19  C   UNL     1     -40.267 -46.434  10.896  1.00  0.00     0.088 A 
HETATM   20  N   UNL     1     -41.219 -45.984  10.051  1.00  0.00    -0.375 N 
HETATM   21  C   UNL     1     -42.421 -46.591  10.117  1.00  0.00     0.088 A 
ATOM     22  HN  UNL     1     -41.037 -45.224   9.397  1.00  0.00     0.164 HD
HETATM   23  C   UNL     1     -42.711 -47.625  10.985  1.00  0.00     0.024 A 
ENDBRANCH  16  17
ENDBRANCH  15  16
BRANCH  15  24
HETATM   24  C   UNL     1     -40.486 -51.335  12.657  1.00  0.00     0.418 C 
HETATM   25  F   UNL     1     -40.513 -52.679  12.455  1.00  0.00    -0.169 F 
HETATM   26  F   UNL     1     -39.435 -50.865  11.947  1.00  0.00    -0.169 F 
HETATM   27  F   UNL     1     -40.229 -51.141  13.967  1.00  0.00    -0.169 F 
ENDBRANCH  15  24
ENDBRANCH   1  15
TORSDOF 7
ENDMDL
MODEL 9
REMARK VINA RESULT:      -6.0      1.264      2.332
REMARK  7 active torsions:
REMARK  status: ('A' for Active; 'I' for Inactive)
REMARK       I    between atoms: N_1  and  C_2 
REMARK    1  A    between atoms: C_2  and  C_4 
REMARK    2  A    between atoms: C_4  and  C_5 
REMARK    3  A    between atoms: C_5  and  N_6 
REMARK    4  A    between atoms: N_6  and  C_7 
REMARK    5  A    between atoms: C_7  and  C_8 
REMARK    6  A    between atoms: C_7  and  C_16 
REMARK    7  A    between atoms: C_8  and  C_9 
ROOT
HETATM    1  N   UNL     1     -39.689 -51.539  12.314  1.00  0.00     0.098 N 
HETATM    2  H   UNL     1     -38.966 -52.226  12.079  1.00  0.00     0.316 HD
ENDROOT
BRANCH   1   3
HETATM    3  C   UNL     1     -41.011 -52.023  11.898  1.00  0.00     0.289 C 
BRANCH   3   4
HETATM    4  C   UNL     1     -41.861 -52.566  13.089  1.00  0.00     0.070 C 
HETATM    5  C   UNL     1     -41.624 -54.084  13.292  1.00  0.00     0.047 C 
HETATM    6  C   UNL     1     -42.294 -54.586  14.567  1.00  0.00     0.168 C 
HETATM    7  O   UNL     1     -41.784 -53.871  15.689  1.00  0.00    -0.391 OA
HETATM    8  C   UNL     1     -42.115 -52.488  15.638  1.00  0.00     0.168 C 
HETATM    9  C   UNL     1     -41.513 -51.824  14.405  1.00  0.00     0.047 C 
BRANCH   4  10
HETATM   10  C   UNL     1     -43.341 -52.365  12.698  1.00  0.00     0.226 C 
HETATM   11  N   UNL     1     -43.883 -51.125  12.837  1.00  0.00    -0.369 N 
HETATM   12  H   UNL     1     -44.857 -51.020  12.579  1.00  0.00     0.159 HD
HETATM   13  H   UNL     1     -43.408 -50.329  13.236  1.00  0.00     0.159 HD
HETATM   14  O   UNL     1     -44.031 -53.253  12.203  1.00  0.00    -0.273 OA
ENDBRANCH   4  10
ENDBRANCH   3   4
ENDBRANCH   1   3
BRANCH   1  15
HETATM   15  C   UNL     1     -39.256 -50.219  11.754  1.00  0.00     0.331 C 
BRANCH  15  16
HETATM   16  C   UNL     1     -39.998 -49.049  12.439  1.00  0.00     0.083 C 
BRANCH  16  17
HETATM   17  C   UNL     1     -40.680 -48.040  11.542  1.00  0.00    -0.053 A 
HETATM   18  C   UNL     1     -40.178 -46.750  11.372  1.00  0.00     0.024 A 
HETATM   19  C   UNL     1     -40.826 -45.899  10.487  1.00  0.00     0.088 A 
HETATM   20  N   UNL     1     -41.921 -46.241   9.775  1.00  0.00    -0.375 N 
HETATM   21  C   UNL     1     -42.394 -47.491   9.958  1.00  0.00     0.088 A 
ATOM     22  HN  UNL     1     -42.367 -45.588   9.132  1.00  0.00     0.164 HD
HETATM   23  C   UNL     1     -41.821 -48.409  10.815  1.00  0.00     0.024 A 
ENDBRANCH  16  17
ENDBRANCH  15  16
BRANCH  15  24
HETATM   24  C   UNL     1     -37.705 -50.029  11.844  1.00  0.00     0.418 C 
HETATM   25  F   UNL     1     -37.390 -49.076  12.761  1.00  0.00    -0.169 F 
HETATM   26  F   UNL     1     -37.107 -51.170  12.260  1.00  0.00    -0.169 F 
HETATM   27  F   UNL     1     -37.136 -49.656  10.680  1.00  0.00    -0.169 F 
ENDBRANCH  15  24
ENDBRANCH   1  15
TORSDOF 7
ENDMDL
