MODEL 1
REMARK VINA RESULT:      -6.1      0.000      0.000
REMARK  7 active torsions:
REMARK  status: ('A' for Active; 'I' for Inactive)
REMARK    1  A    between atoms: C_2  and  N_3 
REMARK    2  A    between atoms: C_6  and  N_9 
REMARK       I    between atoms: N_9  and  C_10 
REMARK    3  A    between atoms: C_10  and  C_12 
REMARK    4  A    between atoms: C_12  and  N_13 
REMARK    5  A    between atoms: N_13  and  C_14 
REMARK    6  A    between atoms: C_14  and  C_16 
REMARK    7  A    between atoms: C_16  and  N_17 
ROOT
HETATM    1  N   UNL     1     -42.529 -50.495  12.225  1.00  0.00    -0.355 N 
HETATM    2  C   UNL     1     -41.923 -49.254  12.296  1.00  0.00     0.246 C 
HETATM    3  O   UNL     1     -41.805 -48.612  13.335  1.00  0.00    -0.272 OA
HETATM    4  H   UNL     1     -42.418 -51.025  11.370  1.00  0.00     0.162 HD
ENDROOT
BRANCH   2   5
HETATM    5  C   UNL     1     -41.374 -48.756  10.954  1.00  0.00     0.372 C 
BRANCH   5   6
HETATM    6  N   UNL     1     -42.453 -48.391  10.017  1.00  0.00     0.098 N 
HETATM    7  H   UNL     1     -43.263 -48.966  10.281  1.00  0.00     0.317 HD
BRANCH   6   8
HETATM    8  C   UNL     1     -42.882 -46.974  10.080  1.00  0.00     0.236 C 
HETATM    9  C   UNL     1     -41.684 -46.020  10.181  1.00  0.00     0.044 C 
BRANCH   8  10
HETATM   10  C   UNL     1     -43.696 -46.584   8.823  1.00  0.00     0.183 C 
BRANCH  10  11
HETATM   11  N   UNL     1     -44.960 -47.282   8.689  1.00  0.00    -0.302 N 
HETATM   12  C   UNL     1     -46.096 -47.060   9.415  1.00  0.00     0.111 A 
HETATM   13  C   UNL     1     -47.015 -47.982   8.976  1.00  0.00     0.037 A 
HETATM   14  C   UNL     1     -46.339 -48.711   7.981  1.00  0.00     0.108 A 
HETATM   15  N   UNL     1     -45.079 -48.300   7.815  1.00  0.00    -0.310 N 
ATOM     16  HN  UNL     1     -44.373 -48.670   7.178  1.00  0.00     0.186 HD
ENDBRANCH  10  11
ENDBRANCH   8  10
ENDBRANCH   6   8
ENDBRANCH   5   6
ENDBRANCH   2   5
BRANCH   1  17
HETATM   17  C   UNL     1     -42.982 -51.209  13.415  1.00  0.00     0.087 C 
HETATM   18  C   UNL     1     -42.851 -52.726  13.238  1.00  0.00     0.055 C 
HETATM   19  C   UNL     1     -43.939 -53.292  12.319  1.00  0.00     0.274 C 
HETATM   20  N   UNL     1     -45.310 -52.928  12.718  1.00  0.00     0.088 N 
HETATM   21  C   UNL     1     -45.442 -51.473  12.833  1.00  0.00     0.274 C 
HETATM   22  C   UNL     1     -44.420 -50.818  13.764  1.00  0.00     0.055 C 
BRANCH  20  23
HETATM   23  C   UNL     1     -45.739 -53.691  13.901  1.00  0.00     0.268 C 
HETATM   24  C   UNL     1     -45.503 -55.196  13.811  1.00  0.00     0.037 C 
ENDBRANCH  20  23
ENDBRANCH   1  17
TORSDOF 7
ENDMDL
MODEL 2
REMARK VINA RESULT:      -5.6      1.830      2.389
REMARK  7 active torsions:
REMARK  status: ('A' for Active; 'I' for Inactive)
REMARK    1  A    between atoms: C_2  and  N_3 
REMARK    2  A    between atoms: C_6  and  N_9 
REMARK       I    between atoms: N_9  and  C_10 
REMARK    3  A    between atoms: C_10  and  C_12 
REMARK    4  A    between atoms: C_12  and  N_13 
REMARK    5  A    between atoms: N_13  and  C_14 
REMARK    6  A    between atoms: C_14  and  C_16 
REMARK    7  A    between atoms: C_16  and  N_17 
ROOT
HETATM    1  N   UNL     1     -42.096 -51.856  12.500  1.00  0.00    -0.355 N 
HETATM    2  C   UNL     1     -40.778 -51.596  12.177  1.00  0.00     0.246 C 
HETATM    3  O   UNL     1     -39.868 -52.406  12.321  1.00  0.00    -0.272 OA
HETATM    4  H   UNL     1     -42.798 -51.202  12.179  1.00  0.00     0.162 HD
ENDROOT
BRANCH   2   5
HETATM    5  C   UNL     1     -40.551 -50.201  11.583  1.00  0.00     0.372 C 
BRANCH   5   6
HETATM    6  N   UNL     1     -41.822 -49.509  11.296  1.00  0.00     0.098 N 
HETATM    7  H   UNL     1     -42.536 -49.984  11.863  1.00  0.00     0.317 HD
BRANCH   6   8
HETATM    8  C   UNL     1     -41.851 -48.075  11.664  1.00  0.00     0.236 C 
HETATM    9  C   UNL     1     -40.625 -47.676  12.497  1.00  0.00     0.044 C 
BRANCH   8  10
HETATM   10  C   UNL     1     -41.882 -47.178  10.404  1.00  0.00     0.183 C 
BRANCH  10  11
HETATM   11  N   UNL     1     -42.996 -47.438   9.513  1.00  0.00    -0.302 N 
HETATM   12  C   UNL     1     -44.324 -47.308   9.806  1.00  0.00     0.111 A 
HETATM   13  C   UNL     1     -45.003 -47.706   8.680  1.00  0.00     0.037 A 
HETATM   14  C   UNL     1     -43.997 -48.053   7.762  1.00  0.00     0.108 A 
HETATM   15  N   UNL     1     -42.770 -47.910   8.271  1.00  0.00    -0.310 N 
ATOM     16  HN  UNL     1     -41.874 -48.110   7.826  1.00  0.00     0.186 HD
ENDBRANCH  10  11
ENDBRANCH   8  10
ENDBRANCH   6   8
ENDBRANCH   5   6
ENDBRANCH   2   5
BRANCH   1  17
HETATM   17  C   UNL     1     -42.544 -53.176  12.938  1.00  0.00     0.087 C 
HETATM   18  C   UNL     1     -43.999 -53.433  12.531  1.00  0.00     0.055 C 
HETATM   19  C   UNL     1     -44.986 -52.657  13.410  1.00  0.00     0.274 C 
HETATM   20  N   UNL     1     -44.801 -52.876  14.855  1.00  0.00     0.088 N 
HETATM   21  C   UNL     1     -43.420 -52.576  15.247  1.00  0.00     0.274 C 
HETATM   22  C   UNL     1     -42.359 -53.335  14.448  1.00  0.00     0.055 C 
BRANCH  20  23
HETATM   23  C   UNL     1     -45.292 -54.203  15.260  1.00  0.00     0.268 C 
HETATM   24  C   UNL     1     -46.701 -54.537  14.778  1.00  0.00     0.037 C 
ENDBRANCH  20  23
ENDBRANCH   1  17
TORSDOF 7
ENDMDL
MODEL 3
REMARK VINA RESULT:      -5.4      2.386      3.879
REMARK  7 active torsions:
REMARK  status: ('A' for Active; 'I' for Inactive)
REMARK    1  A    between atoms: C_2  and  N_3 
REMARK    2  A    between atoms: C_6  and  N_9 
REMARK       I    between atoms: N_9  and  C_10 
REMARK    3  A    between atoms: C_10  and  C_12 
REMARK    4  A    between atoms: C_12  and  N_13 
REMARK    5  A    between atoms: N_13  and  C_14 
REMARK    6  A    between atoms: C_14  and  C_16 
REMARK    7  A    between atoms: C_16  and  N_17 
ROOT
HETATM    1  N   UNL     1     -42.201 -51.643  12.257  1.00  0.00    -0.355 N 
HETATM    2  C   UNL     1     -40.903 -51.253  11.985  1.00  0.00     0.246 C 
HETATM    3  O   UNL     1     -39.918 -51.938  12.239  1.00  0.00    -0.272 OA
HETATM    4  H   UNL     1     -42.952 -51.101  11.850  1.00  0.00     0.162 HD
ENDROOT
BRANCH   2   5
HETATM    5  C   UNL     1     -40.800 -49.887  11.296  1.00  0.00     0.372 C 
BRANCH   5   6
HETATM    6  N   UNL     1     -42.127 -49.297  11.036  1.00  0.00     0.098 N 
HETATM    7  H   UNL     1     -42.606 -49.268  11.946  1.00  0.00     0.317 HD
BRANCH   6   8
HETATM    8  C   UNL     1     -42.104 -47.914  10.507  1.00  0.00     0.236 C 
HETATM    9  C   UNL     1     -43.469 -47.498   9.940  1.00  0.00     0.044 C 
BRANCH   8  10
HETATM   10  C   UNL     1     -41.721 -46.902  11.613  1.00  0.00     0.183 C 
BRANCH  10  11
HETATM   11  N   UNL     1     -40.902 -45.796  11.154  1.00  0.00    -0.302 N 
HETATM   12  C   UNL     1     -41.042 -44.481  11.497  1.00  0.00     0.111 A 
HETATM   13  C   UNL     1     -40.082 -43.800  10.788  1.00  0.00     0.037 A 
HETATM   14  C   UNL     1     -39.413 -44.792  10.050  1.00  0.00     0.108 A 
HETATM   15  N   UNL     1     -39.922 -46.011  10.255  1.00  0.00    -0.310 N 
ATOM     16  HN  UNL     1     -39.637 -46.894   9.832  1.00  0.00     0.186 HD
ENDBRANCH  10  11
ENDBRANCH   8  10
ENDBRANCH   6   8
ENDBRANCH   5   6
ENDBRANCH   2   5
BRANCH   1  17
HETATM   17  C   UNL     1     -42.522 -52.971  12.773  1.00  0.00     0.087 C 
HETATM   18  C   UNL     1     -43.937 -53.398  12.368  1.00  0.00     0.055 C 
HETATM   19  C   UNL     1     -45.011 -52.672  13.186  1.00  0.00     0.274 C 
HETATM   20  N   UNL     1     -44.829 -52.781  14.644  1.00  0.00     0.088 N 
HETATM   21  C   UNL     1     -43.492 -52.320  15.030  1.00  0.00     0.274 C 
HETATM   22  C   UNL     1     -42.348 -53.016  14.292  1.00  0.00     0.055 C 
BRANCH  20  23
HETATM   23  C   UNL     1     -45.193 -54.123  15.126  1.00  0.00     0.268 C 
HETATM   24  C   UNL     1     -46.585 -54.594  14.717  1.00  0.00     0.037 C 
ENDBRANCH  20  23
ENDBRANCH   1  17
TORSDOF 7
ENDMDL
MODEL 4
REMARK VINA RESULT:      -5.4      2.369      6.825
REMARK  7 active torsions:
REMARK  status: ('A' for Active; 'I' for Inactive)
REMARK    1  A    between atoms: C_2  and  N_3 
REMARK    2  A    between atoms: C_6  and  N_9 
REMARK       I    between atoms: N_9  and  C_10 
REMARK    3  A    between atoms: C_10  and  C_12 
REMARK    4  A    between atoms: C_12  and  N_13 
REMARK    5  A    between atoms: N_13  and  C_14 
REMARK    6  A    between atoms: C_14  and  C_16 
REMARK    7  A    between atoms: C_16  and  N_17 
ROOT
HETATM    1  N   UNL     1     -42.463 -49.856  11.883  1.00  0.00    -0.355 N 
HETATM    2  C   UNL     1     -42.559 -50.875  12.812  1.00  0.00     0.246 C 
HETATM    3  O   UNL     1     -42.882 -50.702  13.982  1.00  0.00    -0.272 OA
HETATM    4  H   UNL     1     -42.370 -50.113  10.909  1.00  0.00     0.162 HD
ENDROOT
BRANCH   2   5
HETATM    5  C   UNL     1     -42.257 -52.265  12.239  1.00  0.00     0.372 C 
BRANCH   5   6
HETATM    6  N   UNL     1     -43.485 -53.056  12.033  1.00  0.00     0.098 N 
HETATM    7  H   UNL     1     -43.472 -53.346  11.046  1.00  0.00     0.317 HD
BRANCH   6   8
HETATM    8  C   UNL     1     -43.580 -54.288  12.850  1.00  0.00     0.236 C 
HETATM    9  C   UNL     1     -42.581 -54.277  14.015  1.00  0.00     0.044 C 
BRANCH   8  10
HETATM   10  C   UNL     1     -44.999 -54.453  13.443  1.00  0.00     0.183 C 
BRANCH  10  11
HETATM   11  N   UNL     1     -45.686 -53.204  13.710  1.00  0.00    -0.302 N 
HETATM   12  C   UNL     1     -45.725 -52.533  14.899  1.00  0.00     0.111 A 
HETATM   13  C   UNL     1     -46.526 -51.436  14.690  1.00  0.00     0.037 A 
HETATM   14  C   UNL     1     -46.919 -51.533  13.343  1.00  0.00     0.108 A 
HETATM   15  N   UNL     1     -46.424 -52.621  12.745  1.00  0.00    -0.310 N 
ATOM     16  HN  UNL     1     -46.570 -52.936  11.786  1.00  0.00     0.186 HD
ENDBRANCH  10  11
ENDBRANCH   8  10
ENDBRANCH   6   8
ENDBRANCH   5   6
ENDBRANCH   2   5
BRANCH   1  17
HETATM   17  C   UNL     1     -42.855 -48.483  12.190  1.00  0.00     0.087 C 
HETATM   18  C   UNL     1     -43.510 -47.807  10.981  1.00  0.00     0.055 C 
HETATM   19  C   UNL     1     -42.480 -47.417   9.914  1.00  0.00     0.274 C 
HETATM   20  N   UNL     1     -41.365 -46.604  10.428  1.00  0.00     0.088 N 
HETATM   21  C   UNL     1     -40.709 -47.282  11.550  1.00  0.00     0.274 C 
HETATM   22  C   UNL     1     -41.653 -47.677  12.687  1.00  0.00     0.055 C 
BRANCH  20  23
HETATM   23  C   UNL     1     -41.794 -45.222  10.696  1.00  0.00     0.268 C 
HETATM   24  C   UNL     1     -40.684 -44.289  11.171  1.00  0.00     0.037 C 
ENDBRANCH  20  23
ENDBRANCH   1  17
TORSDOF 7
ENDMDL
MODEL 5
REMARK VINA RESULT:      -5.4      2.614      3.971
REMARK  7 active torsions:
REMARK  status: ('A' for Active; 'I' for Inactive)
REMARK    1  A    between atoms: C_2  and  N_3 
REMARK    2  A    between atoms: C_6  and  N_9 
REMARK       I    between atoms: N_9  and  C_10 
REMARK    3  A    between atoms: C_10  and  C_12 
REMARK    4  A    between atoms: C_12  and  N_13 
REMARK    5  A    between atoms: N_13  and  C_14 
REMARK    6  A    between atoms: C_14  and  C_16 
REMARK    7  A    between atoms: C_16  and  N_17 
ROOT
HETATM    1  N   UNL     1     -40.890 -52.425  13.580  1.00  0.00    -0.355 N 
HETATM    2  C   UNL     1     -39.518 -52.557  13.687  1.00  0.00     0.246 C 
HETATM    3  O   UNL     1     -38.923 -53.621  13.553  1.00  0.00    -0.272 OA
HETATM    4  H   UNL     1     -41.271 -51.490  13.523  1.00  0.00     0.162 HD
ENDROOT
BRANCH   2   5
HETATM    5  C   UNL     1     -38.790 -51.235  13.957  1.00  0.00     0.372 C 
BRANCH   5   6
HETATM    6  N   UNL     1     -39.641 -50.066  13.666  1.00  0.00     0.098 N 
HETATM    7  H   UNL     1     -39.469 -49.395  14.426  1.00  0.00     0.317 HD
BRANCH   6   8
HETATM    8  C   UNL     1     -39.338 -49.373  12.392  1.00  0.00     0.236 C 
HETATM    9  C   UNL     1     -37.895 -49.627  11.934  1.00  0.00     0.044 C 
BRANCH   8  10
HETATM   10  C   UNL     1     -40.285 -49.846  11.263  1.00  0.00     0.183 C 
BRANCH  10  11
HETATM   11  N   UNL     1     -41.430 -48.984  11.043  1.00  0.00    -0.302 N 
HETATM   12  C   UNL     1     -42.427 -48.707  11.935  1.00  0.00     0.111 A 
HETATM   13  C   UNL     1     -43.312 -47.889  11.275  1.00  0.00     0.037 A 
HETATM   14  C   UNL     1     -42.759 -47.729   9.993  1.00  0.00     0.108 A 
HETATM   15  N   UNL     1     -41.620 -48.410   9.839  1.00  0.00    -0.310 N 
ATOM     16  HN  UNL     1     -41.034 -48.480   9.007  1.00  0.00     0.186 HD
ENDBRANCH  10  11
ENDBRANCH   8  10
ENDBRANCH   6   8
ENDBRANCH   5   6
ENDBRANCH   2   5
BRANCH   1  17
HETATM   17  C   UNL     1     -41.749 -53.536  13.178  1.00  0.00     0.087 C 
HETATM   18  C   UNL     1     -42.909 -53.054  12.301  1.00  0.00     0.055 C 
HETATM   19  C   UNL     1     -43.989 -52.338  13.121  1.00  0.00     0.274 C 
HETATM   20  N   UNL     1     -44.488 -53.119  14.265  1.00  0.00     0.088 N 
HETATM   21  C   UNL     1     -43.378 -53.531  15.129  1.00  0.00     0.274 C 
HETATM   22  C   UNL     1     -42.265 -54.290  14.406  1.00  0.00     0.055 C 
BRANCH  20  23
HETATM   23  C   UNL     1     -45.373 -54.208  13.820  1.00  0.00     0.268 C 
HETATM   24  C   UNL     1     -46.510 -54.540  14.782  1.00  0.00     0.037 C 
ENDBRANCH  20  23
ENDBRANCH   1  17
TORSDOF 7
ENDMDL
MODEL 6
REMARK VINA RESULT:      -5.4      2.475      6.706
REMARK  7 active torsions:
REMARK  status: ('A' for Active; 'I' for Inactive)
REMARK    1  A    between atoms: C_2  and  N_3 
REMARK    2  A    between atoms: C_6  and  N_9 
REMARK       I    between atoms: N_9  and  C_10 
REMARK    3  A    between atoms: C_10  and  C_12 
REMARK    4  A    between atoms: C_12  and  N_13 
REMARK    5  A    between atoms: N_13  and  C_14 
REMARK    6  A    between atoms: C_14  and  C_16 
REMARK    7  A    between atoms: C_16  and  N_17 
ROOT
HETATM    1  N   UNL     1     -42.077 -49.686  11.578  1.00  0.00    -0.355 N 
HETATM    2  C   UNL     1     -41.411 -50.806  12.041  1.00  0.00     0.246 C 
HETATM    3  O   UNL     1     -40.230 -51.040  11.810  1.00  0.00    -0.272 OA
HETATM    4  H   UNL     1     -42.989 -49.486  11.967  1.00  0.00     0.162 HD
ENDROOT
BRANCH   2   5
HETATM    5  C   UNL     1     -42.279 -51.726  12.908  1.00  0.00     0.372 C 
BRANCH   5   6
HETATM    6  N   UNL     1     -42.890 -52.813  12.119  1.00  0.00     0.098 N 
HETATM    7  H   UNL     1     -42.215 -53.036  11.375  1.00  0.00     0.317 HD
BRANCH   6   8
HETATM    8  C   UNL     1     -43.145 -54.064  12.870  1.00  0.00     0.236 C 
HETATM    9  C   UNL     1     -42.544 -54.013  14.282  1.00  0.00     0.044 C 
BRANCH   8  10
HETATM   10  C   UNL     1     -44.663 -54.329  13.008  1.00  0.00     0.183 C 
BRANCH  10  11
HETATM   11  N   UNL     1     -45.472 -53.131  13.125  1.00  0.00    -0.302 N 
HETATM   12  C   UNL     1     -45.732 -52.430  14.269  1.00  0.00     0.111 A 
HETATM   13  C   UNL     1     -46.573 -51.407  13.905  1.00  0.00     0.037 A 
HETATM   14  C   UNL     1     -46.759 -51.574  12.521  1.00  0.00     0.108 A 
HETATM   15  N   UNL     1     -46.104 -52.636  12.043  1.00  0.00    -0.310 N 
ATOM     16  HN  UNL     1     -46.087 -52.989  11.087  1.00  0.00     0.186 HD
ENDBRANCH  10  11
ENDBRANCH   8  10
ENDBRANCH   6   8
ENDBRANCH   5   6
ENDBRANCH   2   5
BRANCH   1  17
HETATM   17  C   UNL     1     -41.391 -48.613  10.862  1.00  0.00     0.087 C 
HETATM   18  C   UNL     1     -40.697 -47.652  11.833  1.00  0.00     0.055 C 
HETATM   19  C   UNL     1     -41.696 -46.727  12.537  1.00  0.00     0.274 C 
HETATM   20  N   UNL     1     -42.582 -45.992  11.618  1.00  0.00     0.088 N 
HETATM   21  C   UNL     1     -43.284 -46.923  10.728  1.00  0.00     0.274 C 
HETATM   22  C   UNL     1     -42.365 -47.865   9.950  1.00  0.00     0.055 C 
BRANCH  20  23
HETATM   23  C   UNL     1     -41.861 -44.903  10.941  1.00  0.00     0.268 C 
HETATM   24  C   UNL     1     -42.422 -43.507  11.201  1.00  0.00     0.037 C 
ENDBRANCH  20  23
ENDBRANCH   1  17
TORSDOF 7
ENDMDL
MODEL 7
REMARK VINA RESULT:      -5.4      4.716      6.575
REMARK  7 active torsions:
REMARK  status: ('A' for Active; 'I' for Inactive)
REMARK    1  A    between atoms: C_2  and  N_3 
REMARK    2  A    between atoms: C_6  and  N_9 
REMARK       I    between atoms: N_9  and  C_10 
REMARK    3  A    between atoms: C_10  and  C_12 
REMARK    4  A    between atoms: C_12  and  N_13 
REMARK    5  A    between atoms: N_13  and  C_14 
REMARK    6  A    between atoms: C_14  and  C_16 
REMARK    7  A    between atoms: C_16  and  N_17 
ROOT
HETATM    1  N   UNL     1     -42.072 -53.995  13.436  1.00  0.00    -0.355 N 
HETATM    2  C   UNL     1     -40.787 -53.836  12.953  1.00  0.00     0.246 C 
HETATM    3  O   UNL     1     -40.495 -53.090  12.024  1.00  0.00    -0.272 OA
HETATM    4  H   UNL     1     -42.188 -54.485  14.313  1.00  0.00     0.162 HD
ENDROOT
BRANCH   2   5
HETATM    5  C   UNL     1     -39.736 -54.657  13.709  1.00  0.00     0.372 C 
BRANCH   5   6
HETATM    6  N   UNL     1     -38.707 -53.801  14.329  1.00  0.00     0.098 N 
HETATM    7  H   UNL     1     -38.178 -53.386  13.551  1.00  0.00     0.317 HD
BRANCH   6   8
HETATM    8  C   UNL     1     -39.233 -52.684  15.148  1.00  0.00     0.236 C 
HETATM    9  C   UNL     1     -39.249 -53.032  16.643  1.00  0.00     0.044 C 
BRANCH   8  10
HETATM   10  C   UNL     1     -38.375 -51.409  14.965  1.00  0.00     0.183 C 
BRANCH  10  11
HETATM   11  N   UNL     1     -38.315 -50.919  13.602  1.00  0.00    -0.302 N 
HETATM   12  C   UNL     1     -37.216 -50.896  12.791  1.00  0.00     0.111 A 
HETATM   13  C   UNL     1     -37.621 -50.305  11.618  1.00  0.00     0.037 A 
HETATM   14  C   UNL     1     -38.980 -50.010  11.820  1.00  0.00     0.108 A 
HETATM   15  N   UNL     1     -39.405 -50.365  13.036  1.00  0.00    -0.310 N 
ATOM     16  HN  UNL     1     -40.333 -50.245  13.441  1.00  0.00     0.186 HD
ENDBRANCH  10  11
ENDBRANCH   8  10
ENDBRANCH   6   8
ENDBRANCH   5   6
ENDBRANCH   2   5
BRANCH   1  17
HETATM   17  C   UNL     1     -43.190 -53.190  12.952  1.00  0.00     0.087 C 
HETATM   18  C   UNL     1     -43.582 -52.113  13.969  1.00  0.00     0.055 C 
HETATM   19  C   UNL     1     -44.345 -52.700  15.161  1.00  0.00     0.274 C 
HETATM   20  N   UNL     1     -45.515 -53.512  14.783  1.00  0.00     0.088 N 
HETATM   21  C   UNL     1     -45.122 -54.574  13.853  1.00  0.00     0.274 C 
HETATM   22  C   UNL     1     -44.386 -54.080  12.606  1.00  0.00     0.055 C 
BRANCH  20  23
HETATM   23  C   UNL     1     -46.628 -52.663  14.331  1.00  0.00     0.268 C 
HETATM   24  C   UNL     1     -46.985 -51.520  15.277  1.00  0.00     0.037 C 
ENDBRANCH  20  23
ENDBRANCH   1  17
TORSDOF 7
ENDMDL
MODEL 8
REMARK VINA RESULT:      -5.3      4.358      6.229
REMARK  7 active torsions:
REMARK  status: ('A' for Active; 'I' for Inactive)
REMARK    1  A    between atoms: C_2  and  N_3 
REMARK    2  A    between atoms: C_6  and  N_9 
REMARK       I    between atoms: N_9  and  C_10 
REMARK    3  A    between atoms: C_10  and  C_12 
REMARK    4  A    between atoms: C_12  and  N_13 
REMARK    5  A    between atoms: N_13  and  C_14 
REMARK    6  A    between atoms: C_14  and  C_16 
REMARK    7  A    between atoms: C_16  and  N_17 
ROOT
HETATM    1  N   UNL     1     -44.469 -53.609  14.572  1.00  0.00    -0.355 N 
HETATM    2  C   UNL     1     -44.137 -54.025  13.296  1.00  0.00     0.246 C 
HETATM    3  O   UNL     1     -44.922 -54.579  12.534  1.00  0.00    -0.272 OA
HETATM    4  H   UNL     1     -43.819 -53.004  15.055  1.00  0.00     0.162 HD
ENDROOT
BRANCH   2   5
HETATM    5  C   UNL     1     -42.693 -53.699  12.897  1.00  0.00     0.372 C 
BRANCH   5   6
HETATM    6  N   UNL     1     -42.631 -52.692  11.821  1.00  0.00     0.098 N 
HETATM    7  H   UNL     1     -43.597 -52.364  11.686  1.00  0.00     0.317 HD
BRANCH   6   8
HETATM    8  C   UNL     1     -41.802 -51.503  12.124  1.00  0.00     0.236 C 
HETATM    9  C   UNL     1     -42.523 -50.531  13.069  1.00  0.00     0.044 C 
BRANCH   8  10
HETATM   10  C   UNL     1     -40.467 -51.912  12.791  1.00  0.00     0.183 C 
BRANCH  10  11
HETATM   11  N   UNL     1     -39.397 -50.947  12.628  1.00  0.00    -0.302 N 
HETATM   12  C   UNL     1     -38.669 -50.360  13.624  1.00  0.00     0.111 A 
HETATM   13  C   UNL     1     -37.808 -49.487  13.002  1.00  0.00     0.037 A 
HETATM   14  C   UNL     1     -38.092 -49.623  11.632  1.00  0.00     0.108 A 
HETATM   15  N   UNL     1     -39.074 -50.499  11.399  1.00  0.00    -0.310 N 
ATOM     16  HN  UNL     1     -39.483 -50.766  10.503  1.00  0.00     0.186 HD
ENDBRANCH  10  11
ENDBRANCH   8  10
ENDBRANCH   6   8
ENDBRANCH   5   6
ENDBRANCH   2   5
BRANCH   1  17
HETATM   17  C   UNL     1     -45.834 -53.691  15.086  1.00  0.00     0.087 C 
HETATM   18  C   UNL     1     -46.734 -52.628  14.448  1.00  0.00     0.055 C 
HETATM   19  C   UNL     1     -46.460 -51.230  15.014  1.00  0.00     0.274 C 
HETATM   20  N   UNL     1     -46.525 -51.156  16.484  1.00  0.00     0.088 N 
HETATM   21  C   UNL     1     -45.621 -52.139  17.088  1.00  0.00     0.274 C 
HETATM   22  C   UNL     1     -45.844 -53.576  16.612  1.00  0.00     0.055 C 
BRANCH  20  23
HETATM   23  C   UNL     1     -47.917 -51.210  16.958  1.00  0.00     0.268 C 
HETATM   24  C   UNL     1     -48.216 -50.323  18.163  1.00  0.00     0.037 C 
ENDBRANCH  20  23
ENDBRANCH   1  17
TORSDOF 7
ENDMDL
MODEL 9
REMARK VINA RESULT:      -4.9      2.444      3.256
REMARK  7 active torsions:
REMARK  status: ('A' for Active; 'I' for Inactive)
REMARK    1  A    between atoms: C_2  and  N_3 
REMARK    2  A    between atoms: C_6  and  N_9 
REMARK       I    between atoms: N_9  and  C_10 
REMARK    3  A    between atoms: C_10  and  C_12 
REMARK    4  A    between atoms: C_12  and  N_13 
REMARK    5  A    between atoms: N_13  and  C_14 
REMARK    6  A    between atoms: C_14  and  C_16 
REMARK    7  A    between atoms: C_16  and  N_17 
ROOT
HETATM    1  N   UNL     1     -39.490 -51.115  13.039  1.00  0.00    -0.355 N 
HETATM    2  C   UNL     1     -38.536 -50.120  13.139  1.00  0.00     0.246 C 
HETATM    3  O   UNL     1     -37.997 -49.795  14.192  1.00  0.00    -0.272 OA
HETATM    4  H   UNL     1     -39.741 -51.437  12.114  1.00  0.00     0.162 HD
ENDROOT
BRANCH   2   5
HETATM    5  C   UNL     1     -38.178 -49.471  11.797  1.00  0.00     0.372 C 
BRANCH   5   6
HETATM    6  N   UNL     1     -39.379 -49.101  11.024  1.00  0.00     0.098 N 
HETATM    7  H   UNL     1     -39.866 -49.984  10.821  1.00  0.00     0.317 HD
BRANCH   6   8
HETATM    8  C   UNL     1     -40.336 -48.225  11.737  1.00  0.00     0.236 C 
HETATM    9  C   UNL     1     -40.338 -46.800  11.167  1.00  0.00     0.044 C 
BRANCH   8  10
HETATM   10  C   UNL     1     -41.778 -48.779  11.638  1.00  0.00     0.183 C 
BRANCH  10  11
HETATM   11  N   UNL     1     -42.596 -48.137  10.627  1.00  0.00    -0.302 N 
HETATM   12  C   UNL     1     -43.677 -47.331  10.843  1.00  0.00     0.111 A 
HETATM   13  C   UNL     1     -44.158 -46.998   9.600  1.00  0.00     0.037 A 
HETATM   14  C   UNL     1     -43.298 -47.650   8.699  1.00  0.00     0.108 A 
HETATM   15  N   UNL     1     -42.354 -48.363   9.321  1.00  0.00    -0.310 N 
ATOM     16  HN  UNL     1     -41.623 -48.941   8.906  1.00  0.00     0.186 HD
ENDBRANCH  10  11
ENDBRANCH   8  10
ENDBRANCH   6   8
ENDBRANCH   5   6
ENDBRANCH   2   5
BRANCH   1  17
HETATM   17  C   UNL     1     -39.859 -51.956  14.176  1.00  0.00     0.087 C 
HETATM   18  C   UNL     1     -39.663 -53.441  13.857  1.00  0.00     0.055 C 
HETATM   19  C   UNL     1     -40.759 -53.979  12.930  1.00  0.00     0.274 C 
HETATM   20  N   UNL     1     -42.128 -53.724  13.410  1.00  0.00     0.088 N 
HETATM   21  C   UNL     1     -42.326 -52.293  13.662  1.00  0.00     0.274 C 
HETATM   22  C   UNL     1     -41.299 -51.672  14.611  1.00  0.00     0.055 C 
BRANCH  20  23
HETATM   23  C   UNL     1     -42.471 -54.610  14.533  1.00  0.00     0.268 C 
HETATM   24  C   UNL     1     -43.965 -54.855  14.721  1.00  0.00     0.037 C 
ENDBRANCH  20  23
ENDBRANCH   1  17
TORSDOF 7
ENDMDL
