MODEL 1
REMARK VINA RESULT:      -5.8      0.000      0.000
REMARK  6 active torsions:
REMARK  status: ('A' for Active; 'I' for Inactive)
REMARK    1  A    between atoms: C_2  and  C_3 
REMARK    2  A    between atoms: C_3  and  N_4 
REMARK    3  A    between atoms: C_3  and  C_10 
REMARK       I    between atoms: C_10  and  N_12 
REMARK    4  A    between atoms: N_12  and  C_13 
REMARK    5  A    between atoms: C_13  and  C_14 
REMARK    6  A    between atoms: C_14  and  C_15 
ROOT
HETATM    1  C   UNL     1     -42.248 -51.366  13.088  1.00  0.00     0.240 C 
HETATM    2  O   UNL     1     -41.351 -51.041  13.868  1.00  0.00    -0.271 OA
HETATM    3  N   UNL     1     -42.673 -50.526  12.075  1.00  0.00    -0.359 N 
HETATM    4  H   UNL     1     -43.247 -50.937  11.356  1.00  0.00     0.162 HD
ENDROOT
BRANCH   1   5
HETATM    5  C   UNL     1     -43.106 -52.647  13.287  1.00  0.00     0.178 C 
BRANCH   5   6
HETATM    6  C   UNL     1     -42.365 -53.667  14.166  1.00  0.00     0.030 C 
HETATM    7  C   UNL     1     -43.215 -54.869  14.561  1.00  0.00     0.007 C 
ENDBRANCH   5   6
BRANCH   5   8
HETATM    8  N   UNL     1     -44.425 -52.264  13.837  1.00  0.00    -0.339 N 
HETATM    9  C   UNL     1     -44.630 -51.511  15.052  1.00  0.00     0.127 C 
HETATM   10  C   UNL     1     -46.112 -51.186  15.074  1.00  0.00     0.029 C 
HETATM   11  C   UNL     1     -46.665 -51.603  13.717  1.00  0.00     0.104 C 
HETATM   12  C   UNL     1     -45.584 -52.442  13.102  1.00  0.00     0.220 C 
HETATM   13  O   UNL     1     -45.688 -53.068  12.059  1.00  0.00    -0.273 OA
ENDBRANCH   5   8
ENDBRANCH   1   5
BRANCH   3  14
HETATM   14  C   UNL     1     -42.000 -49.283  11.766  1.00  0.00     0.130 C 
BRANCH  14  15
HETATM   15  C   UNL     1     -42.893 -48.066  12.004  1.00  0.00     0.096 C 
BRANCH  15  16
HETATM   16  C   UNL     1     -43.399 -47.533  10.707  1.00  0.00     0.084 A 
HETATM   17  N   UNL     1     -44.480 -47.957  10.079  1.00  0.00    -0.354 N 
HETATM   18  C   UNL     1     -44.583 -47.186   8.952  1.00  0.00     0.106 A 
ATOM     19  HN  UNL     1     -45.108 -48.706  10.373  1.00  0.00     0.166 HD
HETATM   20  C   UNL     1     -43.560 -46.271   8.894  1.00  0.00     0.108 A 
HETATM   21  N   UNL     1     -42.814 -46.498  10.016  1.00  0.00    -0.350 N 
HETATM   22  C   UNL     1     -41.627 -45.769  10.396  1.00  0.00     0.156 C 
ENDBRANCH  15  16
ENDBRANCH  14  15
ENDBRANCH   3  14
TORSDOF 6
ENDMDL
MODEL 2
REMARK VINA RESULT:      -5.2      3.909      7.611
REMARK  6 active torsions:
REMARK  status: ('A' for Active; 'I' for Inactive)
REMARK    1  A    between atoms: C_2  and  C_3 
REMARK    2  A    between atoms: C_3  and  N_4 
REMARK    3  A    between atoms: C_3  and  C_10 
REMARK       I    between atoms: C_10  and  N_12 
REMARK    4  A    between atoms: N_12  and  C_13 
REMARK    5  A    between atoms: C_13  and  C_14 
REMARK    6  A    between atoms: C_14  and  C_15 
ROOT
HETATM    1  C   UNL     1     -41.075 -47.309  11.526  1.00  0.00     0.240 C 
HETATM    2  O   UNL     1     -39.913 -47.239  11.933  1.00  0.00    -0.271 OA
HETATM    3  N   UNL     1     -41.880 -48.398  11.803  1.00  0.00    -0.359 N 
HETATM    4  H   UNL     1     -42.867 -48.290  11.628  1.00  0.00     0.162 HD
ENDROOT
BRANCH   1   5
HETATM    5  C   UNL     1     -41.670 -46.288  10.516  1.00  0.00     0.178 C 
BRANCH   5   6
HETATM    6  C   UNL     1     -43.119 -46.658  10.159  1.00  0.00     0.030 C 
HETATM    7  C   UNL     1     -43.616 -46.021   8.867  1.00  0.00     0.007 C 
ENDBRANCH   5   6
BRANCH   5   8
HETATM    8  N   UNL     1     -41.547 -44.925  11.077  1.00  0.00    -0.339 N 
HETATM    9  C   UNL     1     -42.304 -44.417  12.196  1.00  0.00     0.127 C 
HETATM   10  C   UNL     1     -41.674 -43.075  12.527  1.00  0.00     0.029 C 
HETATM   11  C   UNL     1     -40.409 -42.974  11.685  1.00  0.00     0.104 C 
HETATM   12  C   UNL     1     -40.528 -44.078  10.675  1.00  0.00     0.220 C 
HETATM   13  O   UNL     1     -39.768 -44.257   9.737  1.00  0.00    -0.273 OA
ENDBRANCH   5   8
ENDBRANCH   1   5
BRANCH   3  14
HETATM   14  C   UNL     1     -41.473 -49.452  12.708  1.00  0.00     0.130 C 
BRANCH  14  15
HETATM   15  C   UNL     1     -40.911 -50.665  11.968  1.00  0.00     0.096 C 
BRANCH  15  16
HETATM   16  C   UNL     1     -39.422 -50.607  11.932  1.00  0.00     0.084 A 
HETATM   17  N   UNL     1     -38.707 -49.969  11.024  1.00  0.00    -0.354 N 
HETATM   18  C   UNL     1     -37.398 -50.157  11.382  1.00  0.00     0.106 A 
ATOM     19  HN  UNL     1     -39.057 -49.445  10.222  1.00  0.00     0.166 HD
HETATM   20  C   UNL     1     -37.310 -50.910  12.527  1.00  0.00     0.108 A 
HETATM   21  N   UNL     1     -38.603 -51.188  12.872  1.00  0.00    -0.350 N 
HETATM   22  C   UNL     1     -39.019 -51.955  14.022  1.00  0.00     0.156 C 
ENDBRANCH  15  16
ENDBRANCH  14  15
ENDBRANCH   3  14
TORSDOF 6
ENDMDL
MODEL 3
REMARK VINA RESULT:      -5.2      2.359      3.669
REMARK  6 active torsions:
REMARK  status: ('A' for Active; 'I' for Inactive)
REMARK    1  A    between atoms: C_2  and  C_3 
REMARK    2  A    between atoms: C_3  and  N_4 
REMARK    3  A    between atoms: C_3  and  C_10 
REMARK       I    between atoms: C_10  and  N_12 
REMARK    4  A    between atoms: N_12  and  C_13 
REMARK    5  A    between atoms: C_13  and  C_14 
REMARK    6  A    between atoms: C_14  and  C_15 
ROOT
HETATM    1  C   UNL     1     -42.476 -51.259  13.188  1.00  0.00     0.240 C 
HETATM    2  O   UNL     1     -41.889 -50.789  14.165  1.00  0.00    -0.271 OA
HETATM    3  N   UNL     1     -42.578 -50.566  11.996  1.00  0.00    -0.359 N 
HETATM    4  H   UNL     1     -42.875 -51.092  11.189  1.00  0.00     0.162 HD
ENDROOT
BRANCH   1   5
HETATM    5  C   UNL     1     -43.312 -52.567  13.264  1.00  0.00     0.178 C 
BRANCH   5   6
HETATM    6  C   UNL     1     -42.556 -53.651  14.049  1.00  0.00     0.030 C 
HETATM    7  C   UNL     1     -41.366 -54.237  13.298  1.00  0.00     0.007 C 
ENDBRANCH   5   6
BRANCH   5   8
HETATM    8  N   UNL     1     -44.639 -52.260  13.842  1.00  0.00    -0.339 N 
HETATM    9  C   UNL     1     -44.861 -51.671  15.141  1.00  0.00     0.127 C 
HETATM   10  C   UNL     1     -46.345 -51.353  15.185  1.00  0.00     0.029 C 
HETATM   11  C   UNL     1     -46.879 -51.589  13.778  1.00  0.00     0.104 C 
HETATM   12  C   UNL     1     -45.787 -52.341  13.073  1.00  0.00     0.220 C 
HETATM   13  O   UNL     1     -45.877 -52.826  11.957  1.00  0.00    -0.273 OA
ENDBRANCH   5   8
ENDBRANCH   1   5
BRANCH   3  14
HETATM   14  C   UNL     1     -41.880 -49.320  11.762  1.00  0.00     0.130 C 
BRANCH  14  15
HETATM   15  C   UNL     1     -40.438 -49.540  11.309  1.00  0.00     0.096 C 
BRANCH  15  16
HETATM   16  C   UNL     1     -39.488 -49.143  12.386  1.00  0.00     0.084 A 
HETATM   17  N   UNL     1     -39.829 -48.591  13.536  1.00  0.00    -0.354 N 
HETATM   18  C   UNL     1     -38.659 -48.414  14.226  1.00  0.00     0.106 A 
ATOM     19  HN  UNL     1     -40.770 -48.347  13.847  1.00  0.00     0.166 HD
HETATM   20  C   UNL     1     -37.589 -48.871  13.495  1.00  0.00     0.108 A 
HETATM   21  N   UNL     1     -38.127 -49.336  12.327  1.00  0.00    -0.350 N 
HETATM   22  C   UNL     1     -37.386 -49.924  11.238  1.00  0.00     0.156 C 
ENDBRANCH  15  16
ENDBRANCH  14  15
ENDBRANCH   3  14
TORSDOF 6
ENDMDL
MODEL 4
REMARK VINA RESULT:      -5.2      1.817      2.554
REMARK  6 active torsions:
REMARK  status: ('A' for Active; 'I' for Inactive)
REMARK    1  A    between atoms: C_2  and  C_3 
REMARK    2  A    between atoms: C_3  and  N_4 
REMARK    3  A    between atoms: C_3  and  C_10 
REMARK       I    between atoms: C_10  and  N_12 
REMARK    4  A    between atoms: N_12  and  C_13 
REMARK    5  A    between atoms: C_13  and  C_14 
REMARK    6  A    between atoms: C_14  and  C_15 
ROOT
HETATM    1  C   UNL     1     -42.273 -50.644  13.030  1.00  0.00     0.240 C 
HETATM    2  O   UNL     1     -41.719 -50.104  13.990  1.00  0.00    -0.271 OA
HETATM    3  N   UNL     1     -42.629 -49.933  11.899  1.00  0.00    -0.359 N 
HETATM    4  H   UNL     1     -42.874 -50.471  11.083  1.00  0.00     0.162 HD
ENDROOT
BRANCH   1   5
HETATM    5  C   UNL     1     -42.792 -52.109  13.079  1.00  0.00     0.178 C 
BRANCH   5   6
HETATM    6  C   UNL     1     -41.884 -52.979  13.964  1.00  0.00     0.030 C 
HETATM    7  C   UNL     1     -41.121 -54.050  13.194  1.00  0.00     0.007 C 
ENDBRANCH   5   6
BRANCH   5   8
HETATM    8  N   UNL     1     -44.201 -52.107  13.530  1.00  0.00    -0.339 N 
HETATM    9  C   UNL     1     -44.797 -51.108  14.385  1.00  0.00     0.127 C 
HETATM   10  C   UNL     1     -46.284 -51.414  14.379  1.00  0.00     0.029 C 
HETATM   11  C   UNL     1     -46.500 -52.481  13.314  1.00  0.00     0.104 C 
HETATM   12  C   UNL     1     -45.124 -52.986  12.989  1.00  0.00     0.220 C 
HETATM   13  O   UNL     1     -44.878 -53.937  12.265  1.00  0.00    -0.273 OA
ENDBRANCH   5   8
ENDBRANCH   1   5
BRANCH   3  14
HETATM   14  C   UNL     1     -42.244 -48.552  11.700  1.00  0.00     0.130 C 
BRANCH  14  15
HETATM   15  C   UNL     1     -40.809 -48.419  11.194  1.00  0.00     0.096 C 
BRANCH  15  16
HETATM   16  C   UNL     1     -40.404 -46.985  11.155  1.00  0.00     0.084 A 
HETATM   17  N   UNL     1     -40.569 -46.175  10.125  1.00  0.00    -0.354 N 
HETATM   18  C   UNL     1     -40.080 -44.960  10.525  1.00  0.00     0.106 A 
ATOM     19  HN  UNL     1     -40.976 -46.407   9.219  1.00  0.00     0.166 HD
HETATM   20  C   UNL     1     -39.620 -45.022  11.818  1.00  0.00     0.108 A 
HETATM   21  N   UNL     1     -39.832 -46.314  12.211  1.00  0.00    -0.350 N 
HETATM   22  C   UNL     1     -39.512 -46.860  13.508  1.00  0.00     0.156 C 
ENDBRANCH  15  16
ENDBRANCH  14  15
ENDBRANCH   3  14
TORSDOF 6
ENDMDL
MODEL 5
REMARK VINA RESULT:      -5.1      1.284      2.698
REMARK  6 active torsions:
REMARK  status: ('A' for Active; 'I' for Inactive)
REMARK    1  A    between atoms: C_2  and  C_3 
REMARK    2  A    between atoms: C_3  and  N_4 
REMARK    3  A    between atoms: C_3  and  C_10 
REMARK       I    between atoms: C_10  and  N_12 
REMARK    4  A    between atoms: N_12  and  C_13 
REMARK    5  A    between atoms: C_13  and  C_14 
REMARK    6  A    between atoms: C_14  and  C_15 
ROOT
HETATM    1  C   UNL     1     -43.248 -50.435  13.936  1.00  0.00     0.240 C 
HETATM    2  O   UNL     1     -42.511 -49.878  14.751  1.00  0.00    -0.271 OA
HETATM    3  N   UNL     1     -43.320 -50.023  12.617  1.00  0.00    -0.359 N 
HETATM    4  H   UNL     1     -43.770 -50.650  11.970  1.00  0.00     0.162 HD
ENDROOT
BRANCH   1   5
HETATM    5  C   UNL     1     -44.297 -51.505  14.350  1.00  0.00     0.178 C 
BRANCH   5   6
HETATM    6  C   UNL     1     -45.521 -51.456  13.420  1.00  0.00     0.030 C 
HETATM    7  C   UNL     1     -46.854 -51.441  14.159  1.00  0.00     0.007 C 
ENDBRANCH   5   6
BRANCH   5   8
HETATM    8  N   UNL     1     -43.648 -52.834  14.375  1.00  0.00    -0.339 N 
HETATM    9  C   UNL     1     -42.502 -53.212  13.583  1.00  0.00     0.127 C 
HETATM   10  C   UNL     1     -42.081 -54.570  14.115  1.00  0.00     0.029 C 
HETATM   11  C   UNL     1     -42.907 -54.817  15.370  1.00  0.00     0.104 C 
HETATM   12  C   UNL     1     -43.988 -53.776  15.331  1.00  0.00     0.220 C 
HETATM   13  O   UNL     1     -44.932 -53.714  16.102  1.00  0.00    -0.273 OA
ENDBRANCH   5   8
ENDBRANCH   1   5
BRANCH   3  14
HETATM   14  C   UNL     1     -42.430 -49.021  12.070  1.00  0.00     0.130 C 
BRANCH  14  15
HETATM   15  C   UNL     1     -43.072 -47.635  12.033  1.00  0.00     0.096 C 
BRANCH  15  16
HETATM   16  C   UNL     1     -43.488 -47.293  10.643  1.00  0.00     0.084 A 
HETATM   17  N   UNL     1     -44.534 -47.797  10.016  1.00  0.00    -0.354 N 
HETATM   18  C   UNL     1     -44.555 -47.197   8.785  1.00  0.00     0.106 A 
ATOM     19  HN  UNL     1     -45.191 -48.490  10.374  1.00  0.00     0.166 HD
HETATM   20  C   UNL     1     -43.516 -46.307   8.660  1.00  0.00     0.108 A 
HETATM   21  N   UNL     1     -42.844 -46.373   9.849  1.00  0.00    -0.350 N 
HETATM   22  C   UNL     1     -41.672 -45.605  10.194  1.00  0.00     0.156 C 
ENDBRANCH  15  16
ENDBRANCH  14  15
ENDBRANCH   3  14
TORSDOF 6
ENDMDL
MODEL 6
REMARK VINA RESULT:      -5.1      2.997      6.810
REMARK  6 active torsions:
REMARK  status: ('A' for Active; 'I' for Inactive)
REMARK    1  A    between atoms: C_2  and  C_3 
REMARK    2  A    between atoms: C_3  and  N_4 
REMARK    3  A    between atoms: C_3  and  C_10 
REMARK       I    between atoms: C_10  and  N_12 
REMARK    4  A    between atoms: N_12  and  C_13 
REMARK    5  A    between atoms: C_13  and  C_14 
REMARK    6  A    between atoms: C_14  and  C_15 
ROOT
HETATM    1  C   UNL     1     -40.894 -52.194  12.441  1.00  0.00     0.240 C 
HETATM    2  O   UNL     1     -40.219 -53.215  12.298  1.00  0.00    -0.271 OA
HETATM    3  N   UNL     1     -42.226 -52.247  12.810  1.00  0.00    -0.359 N 
HETATM    4  H   UNL     1     -42.647 -51.384  13.116  1.00  0.00     0.162 HD
ENDROOT
BRANCH   1   5
HETATM    5  C   UNL     1     -40.377 -50.785  12.036  1.00  0.00     0.178 C 
BRANCH   5   6
HETATM    6  C   UNL     1     -41.550 -49.808  11.852  1.00  0.00     0.030 C 
HETATM    7  C   UNL     1     -41.240 -48.647  10.914  1.00  0.00     0.007 C 
ENDBRANCH   5   6
BRANCH   5   8
HETATM    8  N   UNL     1     -39.397 -50.322  13.043  1.00  0.00    -0.339 N 
HETATM    9  C   UNL     1     -39.732 -49.719  14.311  1.00  0.00     0.127 C 
HETATM   10  C   UNL     1     -38.418 -49.625  15.066  1.00  0.00     0.029 C 
HETATM   11  C   UNL     1     -37.394 -50.400  14.248  1.00  0.00     0.104 C 
HETATM   12  C   UNL     1     -38.051 -50.621  12.917  1.00  0.00     0.220 C 
HETATM   13  O   UNL     1     -37.506 -51.102  11.936  1.00  0.00    -0.273 OA
ENDBRANCH   5   8
ENDBRANCH   1   5
BRANCH   3  14
HETATM   14  C   UNL     1     -42.873 -53.482  13.200  1.00  0.00     0.130 C 
BRANCH  14  15
HETATM   15  C   UNL     1     -44.180 -53.714  12.442  1.00  0.00     0.096 C 
BRANCH  15  16
HETATM   16  C   UNL     1     -45.315 -53.856  13.398  1.00  0.00     0.084 A 
HETATM   17  N   UNL     1     -45.769 -54.999  13.876  1.00  0.00    -0.354 N 
HETATM   18  C   UNL     1     -46.792 -54.668  14.725  1.00  0.00     0.106 A 
ATOM     19  HN  UNL     1     -45.429 -55.936  13.659  1.00  0.00     0.166 HD
HETATM   20  C   UNL     1     -46.961 -53.305  14.775  1.00  0.00     0.108 A 
HETATM   21  N   UNL     1     -46.014 -52.797  13.929  1.00  0.00    -0.350 N 
HETATM   22  C   UNL     1     -45.797 -51.397  13.657  1.00  0.00     0.156 C 
ENDBRANCH  15  16
ENDBRANCH  14  15
ENDBRANCH   3  14
TORSDOF 6
ENDMDL
MODEL 7
REMARK VINA RESULT:      -5.1      2.471      6.978
REMARK  6 active torsions:
REMARK  status: ('A' for Active; 'I' for Inactive)
REMARK    1  A    between atoms: C_2  and  C_3 
REMARK    2  A    between atoms: C_3  and  N_4 
REMARK    3  A    between atoms: C_3  and  C_10 
REMARK       I    between atoms: C_10  and  N_12 
REMARK    4  A    between atoms: N_12  and  C_13 
REMARK    5  A    between atoms: C_13  and  C_14 
REMARK    6  A    between atoms: C_14  and  C_15 
ROOT
HETATM    1  C   UNL     1     -41.052 -48.589  11.218  1.00  0.00     0.240 C 
HETATM    2  O   UNL     1     -39.847 -48.640  11.475  1.00  0.00    -0.271 OA
HETATM    3  N   UNL     1     -41.883 -49.679  11.403  1.00  0.00    -0.359 N 
HETATM    4  H   UNL     1     -42.875 -49.502  11.380  1.00  0.00     0.162 HD
ENDROOT
BRANCH   1   5
HETATM    5  C   UNL     1     -41.702 -47.380  10.489  1.00  0.00     0.178 C 
BRANCH   5   6
HETATM    6  C   UNL     1     -43.159 -47.691  10.111  1.00  0.00     0.030 C 
HETATM    7  C   UNL     1     -43.461 -47.514   8.628  1.00  0.00     0.007 C 
ENDBRANCH   5   6
BRANCH   5   8
HETATM    8  N   UNL     1     -41.574 -46.177  11.340  1.00  0.00    -0.339 N 
HETATM    9  C   UNL     1     -41.994 -46.087  12.719  1.00  0.00     0.127 C 
HETATM   10  C   UNL     1     -41.460 -44.755  13.212  1.00  0.00     0.029 C 
HETATM   11  C   UNL     1     -40.547 -44.223  12.115  1.00  0.00     0.104 C 
HETATM   12  C   UNL     1     -40.844 -45.079  10.918  1.00  0.00     0.220 C 
HETATM   13  O   UNL     1     -40.403 -44.893   9.795  1.00  0.00    -0.273 OA
ENDBRANCH   5   8
ENDBRANCH   1   5
BRANCH   3  14
HETATM   14  C   UNL     1     -41.435 -50.894  12.048  1.00  0.00     0.130 C 
BRANCH  14  15
HETATM   15  C   UNL     1     -42.183 -51.168  13.352  1.00  0.00     0.096 C 
BRANCH  15  16
HETATM   16  C   UNL     1     -43.298 -52.129  13.118  1.00  0.00     0.084 A 
HETATM   17  N   UNL     1     -44.511 -51.804  12.712  1.00  0.00    -0.354 N 
HETATM   18  C   UNL     1     -45.198 -52.984  12.610  1.00  0.00     0.106 A 
ATOM     19  HN  UNL     1     -44.864 -50.867  12.515  1.00  0.00     0.166 HD
HETATM   20  C   UNL     1     -44.395 -54.046  12.948  1.00  0.00     0.108 A 
HETATM   21  N   UNL     1     -43.186 -53.492  13.267  1.00  0.00    -0.350 N 
HETATM   22  C   UNL     1     -42.012 -54.221  13.680  1.00  0.00     0.156 C 
ENDBRANCH  15  16
ENDBRANCH  14  15
ENDBRANCH   3  14
TORSDOF 6
ENDMDL
MODEL 8
REMARK VINA RESULT:      -5.0      2.623      4.016
REMARK  6 active torsions:
REMARK  status: ('A' for Active; 'I' for Inactive)
REMARK    1  A    between atoms: C_2  and  C_3 
REMARK    2  A    between atoms: C_3  and  N_4 
REMARK    3  A    between atoms: C_3  and  C_10 
REMARK       I    between atoms: C_10  and  N_12 
REMARK    4  A    between atoms: N_12  and  C_13 
REMARK    5  A    between atoms: C_13  and  C_14 
REMARK    6  A    between atoms: C_14  and  C_15 
ROOT
HETATM    1  C   UNL     1     -40.857 -49.806  13.064  1.00  0.00     0.240 C 
HETATM    2  O   UNL     1     -40.878 -49.508  14.260  1.00  0.00    -0.271 OA
HETATM    3  N   UNL     1     -41.948 -49.597  12.241  1.00  0.00    -0.359 N 
HETATM    4  H   UNL     1     -41.786 -49.661  11.248  1.00  0.00     0.162 HD
ENDROOT
BRANCH   1   5
HETATM    5  C   UNL     1     -39.693 -50.613  12.424  1.00  0.00     0.178 C 
BRANCH   5   6
HETATM    6  C   UNL     1     -38.347 -49.909  12.662  1.00  0.00     0.030 C 
HETATM    7  C   UNL     1     -37.388 -50.001  11.481  1.00  0.00     0.007 C 
ENDBRANCH   5   6
BRANCH   5   8
HETATM    8  N   UNL     1     -39.718 -51.997  12.948  1.00  0.00    -0.339 N 
HETATM    9  C   UNL     1     -38.856 -52.505  13.989  1.00  0.00     0.127 C 
HETATM   10  C   UNL     1     -39.404 -53.880  14.325  1.00  0.00     0.029 C 
HETATM   11  C   UNL     1     -40.727 -54.010  13.581  1.00  0.00     0.104 C 
HETATM   12  C   UNL     1     -40.732 -52.873  12.601  1.00  0.00     0.220 C 
HETATM   13  O   UNL     1     -41.569 -52.699  11.731  1.00  0.00    -0.273 OA
ENDBRANCH   5   8
ENDBRANCH   1   5
BRANCH   3  14
HETATM   14  C   UNL     1     -43.125 -48.880  12.682  1.00  0.00     0.130 C 
BRANCH  14  15
HETATM   15  C   UNL     1     -43.055 -47.391  12.348  1.00  0.00     0.096 C 
BRANCH  15  16
HETATM   16  C   UNL     1     -43.416 -47.162  10.921  1.00  0.00     0.084 A 
HETATM   17  N   UNL     1     -44.226 -47.923  10.209  1.00  0.00    -0.354 N 
HETATM   18  C   UNL     1     -44.292 -47.340   8.971  1.00  0.00     0.106 A 
ATOM     19  HN  UNL     1     -44.704 -48.769  10.517  1.00  0.00     0.166 HD
HETATM   20  C   UNL     1     -43.522 -46.204   8.926  1.00  0.00     0.108 A 
HETATM   21  N   UNL     1     -42.971 -46.097  10.172  1.00  0.00    -0.350 N 
HETATM   22  C   UNL     1     -42.084 -45.046  10.611  1.00  0.00     0.156 C 
ENDBRANCH  15  16
ENDBRANCH  14  15
ENDBRANCH   3  14
TORSDOF 6
ENDMDL
MODEL 9
REMARK VINA RESULT:      -4.9      3.353      4.159
REMARK  6 active torsions:
REMARK  status: ('A' for Active; 'I' for Inactive)
REMARK    1  A    between atoms: C_2  and  C_3 
REMARK    2  A    between atoms: C_3  and  N_4 
REMARK    3  A    between atoms: C_3  and  C_10 
REMARK       I    between atoms: C_10  and  N_12 
REMARK    4  A    between atoms: N_12  and  C_13 
REMARK    5  A    between atoms: C_13  and  C_14 
REMARK    6  A    between atoms: C_14  and  C_15 
ROOT
HETATM    1  C   UNL     1     -42.343 -53.190  13.988  1.00  0.00     0.240 C 
HETATM    2  O   UNL     1     -42.499 -52.522  12.964  1.00  0.00    -0.271 OA
HETATM    3  N   UNL     1     -41.127 -53.768  14.304  1.00  0.00    -0.359 N 
HETATM    4  H   UNL     1     -41.018 -54.109  15.246  1.00  0.00     0.162 HD
ENDROOT
BRANCH   1   5
HETATM    5  C   UNL     1     -43.529 -53.606  14.904  1.00  0.00     0.178 C 
BRANCH   5   6
HETATM    6  C   UNL     1     -43.223 -53.274  16.374  1.00  0.00     0.030 C 
HETATM    7  C   UNL     1     -43.988 -54.136  17.370  1.00  0.00     0.007 C 
ENDBRANCH   5   6
BRANCH   5   8
HETATM    8  N   UNL     1     -44.767 -52.961  14.415  1.00  0.00    -0.339 N 
HETATM    9  C   UNL     1     -45.251 -51.668  14.836  1.00  0.00     0.127 C 
HETATM   10  C   UNL     1     -46.409 -51.354  13.906  1.00  0.00     0.029 C 
HETATM   11  C   UNL     1     -46.396 -52.426  12.824  1.00  0.00     0.104 C 
HETATM   12  C   UNL     1     -45.468 -53.486  13.342  1.00  0.00     0.220 C 
HETATM   13  O   UNL     1     -45.282 -54.573  12.820  1.00  0.00    -0.273 OA
ENDBRANCH   5   8
ENDBRANCH   1   5
BRANCH   3  14
HETATM   14  C   UNL     1     -39.924 -53.504  13.544  1.00  0.00     0.130 C 
BRANCH  14  15
HETATM   15  C   UNL     1     -39.167 -52.283  14.065  1.00  0.00     0.096 C 
BRANCH  15  16
HETATM   16  C   UNL     1     -39.261 -51.159  13.091  1.00  0.00     0.084 A 
HETATM   17  N   UNL     1     -39.966 -51.176  11.975  1.00  0.00    -0.354 N 
HETATM   18  C   UNL     1     -39.788 -49.944  11.403  1.00  0.00     0.106 A 
ATOM     19  HN  UNL     1     -40.529 -51.946  11.614  1.00  0.00     0.166 HD
HETATM   20  C   UNL     1     -38.972 -49.160  12.182  1.00  0.00     0.108 A 
HETATM   21  N   UNL     1     -38.644 -49.941  13.255  1.00  0.00    -0.350 N 
HETATM   22  C   UNL     1     -37.802 -49.542  14.357  1.00  0.00     0.156 C 
ENDBRANCH  15  16
ENDBRANCH  14  15
ENDBRANCH   3  14
TORSDOF 6
ENDMDL
