MODEL 1
REMARK VINA RESULT:      -6.6      0.000      0.000
REMARK  8 active torsions:
REMARK  status: ('A' for Active; 'I' for Inactive)
REMARK    1  A    between atoms: C_2  and  C_3 
REMARK    2  A    between atoms: C_2  and  N_10 
REMARK    3  A    between atoms: C_3  and  N_4 
REMARK    4  A    between atoms: N_10  and  C_11 
REMARK    5  A    between atoms: C_11  and  C_12 
REMARK       I    between atoms: C_12  and  N_14 
REMARK    6  A    between atoms: N_14  and  C_15 
REMARK    7  A    between atoms: C_15  and  C_21 
REMARK    8  A    between atoms: C_21  and  N_22 
ROOT
HETATM    1  C   UNL     1     -42.152 -50.500  12.807  1.00  0.00     0.247 C 
HETATM    2  O   UNL     1     -41.313 -51.097  13.471  1.00  0.00    -0.272 OA
HETATM    3  N   UNL     1     -43.464 -50.910  12.663  1.00  0.00    -0.339 N 
HETATM    4  H   UNL     1     -43.985 -50.409  11.947  1.00  0.00     0.164 HD
ENDROOT
BRANCH   1   5
HETATM    5  C   UNL     1     -41.839 -49.172  12.120  1.00  0.00     0.372 C 
BRANCH   5   6
HETATM    6  N   UNL     1     -42.819 -48.913  11.039  1.00  0.00     0.098 N 
HETATM    7  H   UNL     1     -42.549 -49.508  10.246  1.00  0.00     0.317 HD
BRANCH   6   8
HETATM    8  C   UNL     1     -42.757 -47.506  10.567  1.00  0.00     0.236 C 
HETATM    9  C   UNL     1     -41.310 -47.043  10.790  1.00  0.00     0.044 C 
BRANCH   8  10
HETATM   10  C   UNL     1     -43.176 -47.341   9.090  1.00  0.00     0.183 C 
BRANCH  10  11
HETATM   11  N   UNL     1     -44.549 -47.730   8.824  1.00  0.00    -0.302 N 
HETATM   12  C   UNL     1     -45.640 -47.440   9.589  1.00  0.00     0.111 A 
HETATM   13  C   UNL     1     -46.714 -48.005   8.942  1.00  0.00     0.037 A 
HETATM   14  C   UNL     1     -46.165 -48.599   7.790  1.00  0.00     0.108 A 
HETATM   15  N   UNL     1     -44.846 -48.423   7.709  1.00  0.00    -0.310 N 
ATOM     16  HN  UNL     1     -44.212 -48.738   6.975  1.00  0.00     0.186 HD
ENDBRANCH  10  11
ENDBRANCH   8  10
ENDBRANCH   6   8
ENDBRANCH   5   6
ENDBRANCH   1   5
BRANCH   3  17
HETATM   17  C   UNL     1     -43.963 -52.199  13.179  1.00  0.00     0.104 C 
HETATM   18  C   UNL     1     -45.266 -52.588  12.452  1.00  0.00     0.045 C 
HETATM   19  C   UNL     1     -46.419 -51.627  12.764  1.00  0.00     0.004 C 
HETATM   20  C   UNL     1     -46.649 -51.472  14.266  1.00  0.00     0.000 C 
HETATM   21  C   UNL     1     -45.368 -51.107  15.005  1.00  0.00     0.004 C 
HETATM   22  C   UNL     1     -44.249 -52.105  14.698  1.00  0.00     0.045 C 
BRANCH  17  23
HETATM   23  C   UNL     1     -42.895 -53.249  12.916  1.00  0.00    -0.046 C 
BRANCH  23  24
HETATM   24  N   UNL     1     -42.010 -54.119  12.698  1.00  0.00    -0.367 N 
ATOM     25  HN2 UNL     1     -42.711 -53.401  12.879  1.00  0.00     0.165 HD
ATOM     26  HN1 UNL     1     -41.294 -54.823  12.522  1.00  0.00     0.165 HD
ENDBRANCH  23  24
ENDBRANCH  17  23
ENDBRANCH   3  17
TORSDOF 8
ENDMDL
MODEL 2
REMARK VINA RESULT:      -6.4      1.784      2.774
REMARK  8 active torsions:
REMARK  status: ('A' for Active; 'I' for Inactive)
REMARK    1  A    between atoms: C_2  and  C_3 
REMARK    2  A    between atoms: C_2  and  N_10 
REMARK    3  A    between atoms: C_3  and  N_4 
REMARK    4  A    between atoms: N_10  and  C_11 
REMARK    5  A    between atoms: C_11  and  C_12 
REMARK       I    between atoms: C_12  and  N_14 
REMARK    6  A    between atoms: N_14  and  C_15 
REMARK    7  A    between atoms: C_15  and  C_21 
REMARK    8  A    between atoms: C_21  and  N_22 
ROOT
HETATM    1  C   UNL     1     -43.594 -51.972  12.932  1.00  0.00     0.247 C 
HETATM    2  O   UNL     1     -43.672 -52.987  12.250  1.00  0.00    -0.272 OA
HETATM    3  N   UNL     1     -44.619 -51.488  13.723  1.00  0.00    -0.339 N 
HETATM    4  H   UNL     1     -44.462 -50.551  14.088  1.00  0.00     0.164 HD
ENDROOT
BRANCH   1   5
HETATM    5  C   UNL     1     -42.301 -51.165  13.030  1.00  0.00     0.372 C 
BRANCH   5   6
HETATM    6  N   UNL     1     -42.043 -50.456  11.755  1.00  0.00     0.098 N 
HETATM    7  H   UNL     1     -41.121 -50.766  11.426  1.00  0.00     0.317 HD
BRANCH   6   8
HETATM    8  C   UNL     1     -41.960 -48.986  11.952  1.00  0.00     0.236 C 
HETATM    9  C   UNL     1     -40.893 -48.757  13.032  1.00  0.00     0.044 C 
BRANCH   8  10
HETATM   10  C   UNL     1     -41.618 -48.217  10.656  1.00  0.00     0.183 C 
BRANCH  10  11
HETATM   11  N   UNL     1     -42.775 -47.915   9.833  1.00  0.00    -0.302 N 
HETATM   12  C   UNL     1     -43.978 -47.438  10.262  1.00  0.00     0.111 A 
HETATM   13  C   UNL     1     -44.753 -47.301   9.134  1.00  0.00     0.037 A 
HETATM   14  C   UNL     1     -43.919 -47.708   8.076  1.00  0.00     0.108 A 
HETATM   15  N   UNL     1     -42.707 -48.072   8.498  1.00  0.00    -0.310 N 
ATOM     16  HN  UNL     1     -41.916 -48.393   7.940  1.00  0.00     0.186 HD
ENDBRANCH  10  11
ENDBRANCH   8  10
ENDBRANCH   6   8
ENDBRANCH   5   6
ENDBRANCH   1   5
BRANCH   3  17
HETATM   17  C   UNL     1     -45.976 -52.067  13.723  1.00  0.00     0.104 C 
HETATM   18  C   UNL     1     -46.869 -51.313  14.729  1.00  0.00     0.045 C 
HETATM   19  C   UNL     1     -46.415 -51.514  16.179  1.00  0.00     0.004 C 
HETATM   20  C   UNL     1     -46.293 -52.991  16.545  1.00  0.00     0.000 C 
HETATM   21  C   UNL     1     -45.429 -53.757  15.552  1.00  0.00     0.004 C 
HETATM   22  C   UNL     1     -45.931 -53.563  14.119  1.00  0.00     0.045 C 
BRANCH  17  23
HETATM   23  C   UNL     1     -46.543 -51.918  12.320  1.00  0.00    -0.046 C 
BRANCH  23  24
HETATM   24  N   UNL     1     -47.013 -51.796  11.157  1.00  0.00    -0.367 N 
ATOM     25  HN2 UNL     1     -46.643 -51.878  12.104  1.00  0.00     0.165 HD
ATOM     26  HN1 UNL     1     -47.393 -51.697  10.216  1.00  0.00     0.165 HD
ENDBRANCH  23  24
ENDBRANCH  17  23
ENDBRANCH   3  17
TORSDOF 8
ENDMDL
MODEL 3
REMARK VINA RESULT:      -6.2      2.336      3.875
REMARK  8 active torsions:
REMARK  status: ('A' for Active; 'I' for Inactive)
REMARK    1  A    between atoms: C_2  and  C_3 
REMARK    2  A    between atoms: C_2  and  N_10 
REMARK    3  A    between atoms: C_3  and  N_4 
REMARK    4  A    between atoms: N_10  and  C_11 
REMARK    5  A    between atoms: C_11  and  C_12 
REMARK       I    between atoms: C_12  and  N_14 
REMARK    6  A    between atoms: N_14  and  C_15 
REMARK    7  A    between atoms: C_15  and  C_21 
REMARK    8  A    between atoms: C_21  and  N_22 
ROOT
HETATM    1  C   UNL     1     -43.793 -53.150  12.810  1.00  0.00     0.247 C 
HETATM    2  O   UNL     1     -44.261 -54.125  12.236  1.00  0.00    -0.272 OA
HETATM    3  N   UNL     1     -44.529 -52.285  13.598  1.00  0.00    -0.339 N 
HETATM    4  H   UNL     1     -44.037 -51.434  13.861  1.00  0.00     0.164 HD
ENDROOT
BRANCH   1   5
HETATM    5  C   UNL     1     -42.300 -52.831  12.768  1.00  0.00     0.372 C 
BRANCH   5   6
HETATM    6  N   UNL     1     -42.026 -51.804  11.735  1.00  0.00     0.098 N 
HETATM    7  H   UNL     1     -41.298 -52.190  11.121  1.00  0.00     0.317 HD
BRANCH   6   8
HETATM    8  C   UNL     1     -41.475 -50.560  12.331  1.00  0.00     0.236 C 
HETATM    9  C   UNL     1     -40.692 -50.992  13.579  1.00  0.00     0.044 C 
BRANCH   8  10
HETATM   10  C   UNL     1     -40.579 -49.764  11.356  1.00  0.00     0.183 C 
BRANCH  10  11
HETATM   11  N   UNL     1     -41.161 -48.508  10.919  1.00  0.00    -0.302 N 
HETATM   12  C   UNL     1     -40.656 -47.259  11.130  1.00  0.00     0.111 A 
HETATM   13  C   UNL     1     -41.540 -46.390  10.533  1.00  0.00     0.037 A 
HETATM   14  C   UNL     1     -42.535 -47.216   9.981  1.00  0.00     0.108 A 
HETATM   15  N   UNL     1     -42.301 -48.510  10.204  1.00  0.00    -0.310 N 
ATOM     16  HN  UNL     1     -42.855 -49.312   9.903  1.00  0.00     0.186 HD
ENDBRANCH  10  11
ENDBRANCH   8  10
ENDBRANCH   6   8
ENDBRANCH   5   6
ENDBRANCH   1   5
BRANCH   3  17
HETATM   17  C   UNL     1     -45.997 -52.361  13.718  1.00  0.00     0.104 C 
HETATM   18  C   UNL     1     -46.508 -51.238  14.643  1.00  0.00     0.045 C 
HETATM   19  C   UNL     1     -46.038 -51.414  16.092  1.00  0.00     0.004 C 
HETATM   20  C   UNL     1     -46.391 -52.792  16.648  1.00  0.00     0.000 C 
HETATM   21  C   UNL     1     -45.911 -53.916  15.738  1.00  0.00     0.004 C 
HETATM   22  C   UNL     1     -46.426 -53.727  14.309  1.00  0.00     0.045 C 
BRANCH  17  23
HETATM   23  C   UNL     1     -46.586 -52.190  12.328  1.00  0.00    -0.046 C 
BRANCH  23  24
HETATM   24  N   UNL     1     -47.075 -52.047  11.175  1.00  0.00    -0.367 N 
ATOM     25  HN2 UNL     1     -46.678 -52.184  12.104  1.00  0.00     0.165 HD
ATOM     26  HN1 UNL     1     -47.471 -51.932  10.242  1.00  0.00     0.165 HD
ENDBRANCH  23  24
ENDBRANCH  17  23
ENDBRANCH   3  17
TORSDOF 8
ENDMDL
MODEL 4
REMARK VINA RESULT:      -6.1      1.832      3.335
REMARK  8 active torsions:
REMARK  status: ('A' for Active; 'I' for Inactive)
REMARK    1  A    between atoms: C_2  and  C_3 
REMARK    2  A    between atoms: C_2  and  N_10 
REMARK    3  A    between atoms: C_3  and  N_4 
REMARK    4  A    between atoms: N_10  and  C_11 
REMARK    5  A    between atoms: C_11  and  C_12 
REMARK       I    between atoms: C_12  and  N_14 
REMARK    6  A    between atoms: N_14  and  C_15 
REMARK    7  A    between atoms: C_15  and  C_21 
REMARK    8  A    between atoms: C_21  and  N_22 
ROOT
HETATM    1  C   UNL     1     -42.765 -49.877  12.746  1.00  0.00     0.247 C 
HETATM    2  O   UNL     1     -41.776 -50.353  13.290  1.00  0.00    -0.272 OA
HETATM    3  N   UNL     1     -44.009 -50.479  12.732  1.00  0.00    -0.339 N 
HETATM    4  H   UNL     1     -44.678 -50.049  12.097  1.00  0.00     0.164 HD
ENDROOT
BRANCH   1   5
HETATM    5  C   UNL     1     -42.734 -48.504  12.078  1.00  0.00     0.372 C 
BRANCH   5   6
HETATM    6  N   UNL     1     -42.472 -48.647  10.627  1.00  0.00     0.098 N 
HETATM    7  H   UNL     1     -41.471 -48.853  10.526  1.00  0.00     0.317 HD
BRANCH   6   8
HETATM    8  C   UNL     1     -42.730 -47.381   9.894  1.00  0.00     0.236 C 
HETATM    9  C   UNL     1     -44.066 -47.574   9.161  1.00  0.00     0.044 C 
BRANCH   8  10
HETATM   10  C   UNL     1     -42.771 -46.143  10.815  1.00  0.00     0.183 C 
BRANCH  10  11
HETATM   11  N   UNL     1     -41.582 -45.314  10.736  1.00  0.00    -0.302 N 
HETATM   12  C   UNL     1     -41.419 -44.070  11.270  1.00  0.00     0.111 A 
HETATM   13  C   UNL     1     -40.138 -43.687  10.948  1.00  0.00     0.037 A 
HETATM   14  C   UNL     1     -39.609 -44.777  10.232  1.00  0.00     0.108 A 
HETATM   15  N   UNL     1     -40.483 -45.776  10.111  1.00  0.00    -0.310 N 
ATOM     16  HN  UNL     1     -40.350 -46.678   9.654  1.00  0.00     0.186 HD
ENDBRANCH  10  11
ENDBRANCH   8  10
ENDBRANCH   6   8
ENDBRANCH   5   6
ENDBRANCH   1   5
BRANCH   3  17
HETATM   17  C   UNL     1     -44.248 -51.839  13.252  1.00  0.00     0.104 C 
HETATM   18  C   UNL     1     -45.630 -52.343  12.789  1.00  0.00     0.045 C 
HETATM   19  C   UNL     1     -46.782 -51.538  13.402  1.00  0.00     0.004 C 
HETATM   20  C   UNL     1     -46.696 -51.478  14.925  1.00  0.00     0.000 C 
HETATM   21  C   UNL     1     -45.330 -51.000  15.402  1.00  0.00     0.004 C 
HETATM   22  C   UNL     1     -44.207 -51.847  14.799  1.00  0.00     0.045 C 
BRANCH  17  23
HETATM   23  C   UNL     1     -43.160 -52.745  12.699  1.00  0.00    -0.046 C 
BRANCH  23  24
HETATM   24  N   UNL     1     -42.257 -53.497  12.241  1.00  0.00    -0.367 N 
ATOM     25  HN2 UNL     1     -42.972 -52.875  12.620  1.00  0.00     0.165 HD
ATOM     26  HN1 UNL     1     -41.528 -54.105  11.870  1.00  0.00     0.165 HD
ENDBRANCH  23  24
ENDBRANCH  17  23
ENDBRANCH   3  17
TORSDOF 8
ENDMDL
MODEL 5
REMARK VINA RESULT:      -6.0      2.448      4.380
REMARK  8 active torsions:
REMARK  status: ('A' for Active; 'I' for Inactive)
REMARK    1  A    between atoms: C_2  and  C_3 
REMARK    2  A    between atoms: C_2  and  N_10 
REMARK    3  A    between atoms: C_3  and  N_4 
REMARK    4  A    between atoms: N_10  and  C_11 
REMARK    5  A    between atoms: C_11  and  C_12 
REMARK       I    between atoms: C_12  and  N_14 
REMARK    6  A    between atoms: N_14  and  C_15 
REMARK    7  A    between atoms: C_15  and  C_21 
REMARK    8  A    between atoms: C_21  and  N_22 
ROOT
HETATM    1  C   UNL     1     -42.777 -50.232  12.880  1.00  0.00     0.247 C 
HETATM    2  O   UNL     1     -41.836 -50.780  13.443  1.00  0.00    -0.272 OA
HETATM    3  N   UNL     1     -44.064 -50.735  12.851  1.00  0.00    -0.339 N 
HETATM    4  H   UNL     1     -44.688 -50.259  12.203  1.00  0.00     0.164 HD
ENDROOT
BRANCH   1   5
HETATM    5  C   UNL     1     -42.628 -48.872  12.202  1.00  0.00     0.372 C 
BRANCH   5   6
HETATM    6  N   UNL     1     -41.878 -49.013  10.932  1.00  0.00     0.098 N 
HETATM    7  H   UNL     1     -41.488 -49.963  10.923  1.00  0.00     0.317 HD
BRANCH   6   8
HETATM    8  C   UNL     1     -40.730 -48.073  10.864  1.00  0.00     0.236 C 
HETATM    9  C   UNL     1     -41.330 -46.680  10.625  1.00  0.00     0.044 C 
BRANCH   8  10
HETATM   10  C   UNL     1     -39.852 -48.093  12.134  1.00  0.00     0.183 C 
BRANCH  10  11
HETATM   11  N   UNL     1     -38.848 -49.142  12.135  1.00  0.00    -0.302 N 
HETATM   12  C   UNL     1     -38.365 -49.805  13.224  1.00  0.00     0.111 A 
HETATM   13  C   UNL     1     -37.444 -50.705  12.739  1.00  0.00     0.037 A 
HETATM   14  C   UNL     1     -37.458 -50.513  11.345  1.00  0.00     0.108 A 
HETATM   15  N   UNL     1     -38.322 -49.568  10.973  1.00  0.00    -0.310 N 
ATOM     16  HN  UNL     1     -38.534 -49.245  10.029  1.00  0.00     0.186 HD
ENDBRANCH  10  11
ENDBRANCH   8  10
ENDBRANCH   6   8
ENDBRANCH   5   6
ENDBRANCH   1   5
BRANCH   3  17
HETATM   17  C   UNL     1     -44.417 -52.068  13.378  1.00  0.00     0.104 C 
HETATM   18  C   UNL     1     -45.815 -52.478  12.874  1.00  0.00     0.045 C 
HETATM   19  C   UNL     1     -46.926 -51.585  13.438  1.00  0.00     0.004 C 
HETATM   20  C   UNL     1     -46.887 -51.511  14.962  1.00  0.00     0.000 C 
HETATM   21  C   UNL     1     -45.507 -51.125  15.481  1.00  0.00     0.004 C 
HETATM   22  C   UNL     1     -44.428 -52.057  14.926  1.00  0.00     0.045 C 
BRANCH  17  23
HETATM   23  C   UNL     1     -43.378 -53.056  12.873  1.00  0.00    -0.046 C 
BRANCH  23  24
HETATM   24  N   UNL     1     -42.517 -53.876  12.454  1.00  0.00    -0.367 N 
ATOM     25  HN2 UNL     1     -43.225 -53.216  12.775  1.00  0.00     0.165 HD
ATOM     26  HN1 UNL     1     -41.820 -54.539  12.116  1.00  0.00     0.165 HD
ENDBRANCH  23  24
ENDBRANCH  17  23
ENDBRANCH   3  17
TORSDOF 8
ENDMDL
MODEL 6
REMARK VINA RESULT:      -5.9      3.738      7.765
REMARK  8 active torsions:
REMARK  status: ('A' for Active; 'I' for Inactive)
REMARK    1  A    between atoms: C_2  and  C_3 
REMARK    2  A    between atoms: C_2  and  N_10 
REMARK    3  A    between atoms: C_3  and  N_4 
REMARK    4  A    between atoms: N_10  and  C_11 
REMARK    5  A    between atoms: C_11  and  C_12 
REMARK       I    between atoms: C_12  and  N_14 
REMARK    6  A    between atoms: N_14  and  C_15 
REMARK    7  A    between atoms: C_15  and  C_21 
REMARK    8  A    between atoms: C_21  and  N_22 
ROOT
HETATM    1  C   UNL     1     -42.057 -46.151  10.546  1.00  0.00     0.247 C 
HETATM    2  O   UNL     1     -42.171 -45.579   9.469  1.00  0.00    -0.272 OA
HETATM    3  N   UNL     1     -41.210 -45.740  11.559  1.00  0.00    -0.339 N 
HETATM    4  H   UNL     1     -41.102 -46.412  12.315  1.00  0.00     0.164 HD
ENDROOT
BRANCH   1   5
HETATM    5  C   UNL     1     -42.916 -47.361  10.909  1.00  0.00     0.372 C 
BRANCH   5   6
HETATM    6  N   UNL     1     -42.161 -48.613  10.671  1.00  0.00     0.098 N 
HETATM    7  H   UNL     1     -42.811 -49.268  10.218  1.00  0.00     0.317 HD
BRANCH   6   8
HETATM    8  C   UNL     1     -41.729 -49.245  11.945  1.00  0.00     0.236 C 
HETATM    9  C   UNL     1     -43.000 -49.424  12.787  1.00  0.00     0.044 C 
BRANCH   8  10
HETATM   10  C   UNL     1     -40.999 -50.590  11.740  1.00  0.00     0.183 C 
BRANCH  10  11
HETATM   11  N   UNL     1     -39.558 -50.503  11.890  1.00  0.00    -0.302 N 
HETATM   12  C   UNL     1     -38.813 -51.022  12.908  1.00  0.00     0.111 A 
HETATM   13  C   UNL     1     -37.507 -50.698  12.621  1.00  0.00     0.037 A 
HETATM   14  C   UNL     1     -37.573 -49.996  11.403  1.00  0.00     0.108 A 
HETATM   15  N   UNL     1     -38.821 -49.886  10.949  1.00  0.00    -0.310 N 
ATOM     16  HN  UNL     1     -39.142 -49.439  10.089  1.00  0.00     0.186 HD
ENDBRANCH  10  11
ENDBRANCH   8  10
ENDBRANCH   6   8
ENDBRANCH   5   6
ENDBRANCH   1   5
BRANCH   3  17
HETATM   17  C   UNL     1     -40.239 -44.642  11.395  1.00  0.00     0.104 C 
HETATM   18  C   UNL     1     -39.237 -44.649  12.568  1.00  0.00     0.045 C 
HETATM   19  C   UNL     1     -39.902 -44.318  13.909  1.00  0.00     0.004 C 
HETATM   20  C   UNL     1     -40.682 -43.007  13.855  1.00  0.00     0.000 C 
HETATM   21  C   UNL     1     -41.665 -42.973  12.691  1.00  0.00     0.004 C 
HETATM   22  C   UNL     1     -40.962 -43.273  11.366  1.00  0.00     0.045 C 
BRANCH  17  23
HETATM   23  C   UNL     1     -39.500 -44.867  10.086  1.00  0.00    -0.046 C 
BRANCH  23  24
HETATM   24  N   UNL     1     -38.887 -45.054   9.000  1.00  0.00    -0.367 N 
ATOM     25  HN2 UNL     1     -39.393 -44.921   9.876  1.00  0.00     0.165 HD
ATOM     26  HN1 UNL     1     -38.392 -45.204   8.122  1.00  0.00     0.165 HD
ENDBRANCH  23  24
ENDBRANCH  17  23
ENDBRANCH   3  17
TORSDOF 8
ENDMDL
MODEL 7
REMARK VINA RESULT:      -5.9      1.707      2.236
REMARK  8 active torsions:
REMARK  status: ('A' for Active; 'I' for Inactive)
REMARK    1  A    between atoms: C_2  and  C_3 
REMARK    2  A    between atoms: C_2  and  N_10 
REMARK    3  A    between atoms: C_3  and  N_4 
REMARK    4  A    between atoms: N_10  and  C_11 
REMARK    5  A    between atoms: C_11  and  C_12 
REMARK       I    between atoms: C_12  and  N_14 
REMARK    6  A    between atoms: N_14  and  C_15 
REMARK    7  A    between atoms: C_15  and  C_21 
REMARK    8  A    between atoms: C_21  and  N_22 
ROOT
HETATM    1  C   UNL     1     -41.814 -52.138  13.505  1.00  0.00     0.247 C 
HETATM    2  O   UNL     1     -41.368 -52.341  14.629  1.00  0.00    -0.272 OA
HETATM    3  N   UNL     1     -43.109 -52.432  13.119  1.00  0.00    -0.339 N 
HETATM    4  H   UNL     1     -43.273 -52.368  12.117  1.00  0.00     0.164 HD
ENDROOT
BRANCH   1   5
HETATM    5  C   UNL     1     -40.983 -51.458  12.420  1.00  0.00     0.372 C 
BRANCH   5   6
HETATM    6  N   UNL     1     -41.000 -49.989  12.608  1.00  0.00     0.098 N 
HETATM    7  H   UNL     1     -41.329 -49.818  13.566  1.00  0.00     0.317 HD
BRANCH   6   8
HETATM    8  C   UNL     1     -41.967 -49.329  11.694  1.00  0.00     0.236 C 
HETATM    9  C   UNL     1     -43.115 -48.821  12.578  1.00  0.00     0.044 C 
BRANCH   8  10
HETATM   10  C   UNL     1     -41.342 -48.180  10.873  1.00  0.00     0.183 C 
BRANCH  10  11
HETATM   11  N   UNL     1     -42.271 -47.540   9.960  1.00  0.00    -0.302 N 
HETATM   12  C   UNL     1     -42.732 -46.258  10.033  1.00  0.00     0.111 A 
HETATM   13  C   UNL     1     -43.577 -46.101   8.959  1.00  0.00     0.037 A 
HETATM   14  C   UNL     1     -43.546 -47.341   8.295  1.00  0.00     0.108 A 
HETATM   15  N   UNL     1     -42.741 -48.217   8.896  1.00  0.00    -0.310 N 
ATOM     16  HN  UNL     1     -42.530 -49.175   8.615  1.00  0.00     0.186 HD
ENDBRANCH  10  11
ENDBRANCH   8  10
ENDBRANCH   6   8
ENDBRANCH   5   6
ENDBRANCH   1   5
BRANCH   3  17
HETATM   17  C   UNL     1     -44.059 -53.158  13.983  1.00  0.00     0.104 C 
HETATM   18  C   UNL     1     -45.264 -53.639  13.151  1.00  0.00     0.045 C 
HETATM   19  C   UNL     1     -46.109 -52.476  12.618  1.00  0.00     0.004 C 
HETATM   20  C   UNL     1     -46.549 -51.527  13.730  1.00  0.00     0.000 C 
HETATM   21  C   UNL     1     -45.373 -51.055  14.577  1.00  0.00     0.004 C 
HETATM   22  C   UNL     1     -44.573 -52.241  15.121  1.00  0.00     0.045 C 
BRANCH  17  23
HETATM   23  C   UNL     1     -43.330 -54.355  14.571  1.00  0.00    -0.046 C 
BRANCH  23  24
HETATM   24  N   UNL     1     -42.725 -55.348  15.059  1.00  0.00    -0.367 N 
ATOM     25  HN2 UNL     1     -43.229 -54.558  14.656  1.00  0.00     0.165 HD
ATOM     26  HN1 UNL     1     -42.235 -56.150  15.453  1.00  0.00     0.165 HD
ENDBRANCH  23  24
ENDBRANCH  17  23
ENDBRANCH   3  17
TORSDOF 8
ENDMDL
MODEL 8
REMARK VINA RESULT:      -5.8      3.186      5.147
REMARK  8 active torsions:
REMARK  status: ('A' for Active; 'I' for Inactive)
REMARK    1  A    between atoms: C_2  and  C_3 
REMARK    2  A    between atoms: C_2  and  N_10 
REMARK    3  A    between atoms: C_3  and  N_4 
REMARK    4  A    between atoms: N_10  and  C_11 
REMARK    5  A    between atoms: C_11  and  C_12 
REMARK       I    between atoms: C_12  and  N_14 
REMARK    6  A    between atoms: N_14  and  C_15 
REMARK    7  A    between atoms: C_15  and  C_21 
REMARK    8  A    between atoms: C_21  and  N_22 
ROOT
HETATM    1  C   UNL     1     -43.755 -52.823  12.686  1.00  0.00     0.247 C 
HETATM    2  O   UNL     1     -44.119 -53.854  12.132  1.00  0.00    -0.272 OA
HETATM    3  N   UNL     1     -44.571 -52.037  13.478  1.00  0.00    -0.339 N 
HETATM    4  H   UNL     1     -44.175 -51.132  13.722  1.00  0.00     0.164 HD
ENDROOT
BRANCH   1   5
HETATM    5  C   UNL     1     -42.309 -52.336  12.611  1.00  0.00     0.372 C 
BRANCH   5   6
HETATM    6  N   UNL     1     -42.164 -51.054  13.338  1.00  0.00     0.098 N 
HETATM    7  H   UNL     1     -43.100 -50.798  13.675  1.00  0.00     0.317 HD
BRANCH   6   8
HETATM    8  C   UNL     1     -41.713 -49.960  12.439  1.00  0.00     0.236 C 
HETATM    9  C   UNL     1     -42.918 -49.025  12.264  1.00  0.00     0.044 C 
BRANCH   8  10
HETATM   10  C   UNL     1     -40.485 -49.195  12.980  1.00  0.00     0.183 C 
BRANCH  10  11
HETATM   11  N   UNL     1     -39.216 -49.712  12.501  1.00  0.00    -0.302 N 
HETATM   12  C   UNL     1     -38.493 -50.731  13.048  1.00  0.00     0.111 A 
HETATM   13  C   UNL     1     -37.377 -50.868  12.256  1.00  0.00     0.037 A 
HETATM   14  C   UNL     1     -37.530 -49.894  11.252  1.00  0.00     0.108 A 
HETATM   15  N   UNL     1     -38.657 -49.195  11.392  1.00  0.00    -0.310 N 
ATOM     16  HN  UNL     1     -39.011 -48.445  10.798  1.00  0.00     0.186 HD
ENDBRANCH  10  11
ENDBRANCH   8  10
ENDBRANCH   6   8
ENDBRANCH   5   6
ENDBRANCH   1   5
BRANCH   3  17
HETATM   17  C   UNL     1     -46.018 -52.280  13.628  1.00  0.00     0.104 C 
HETATM   18  C   UNL     1     -46.627 -51.247  14.598  1.00  0.00     0.045 C 
HETATM   19  C   UNL     1     -46.104 -51.410  16.030  1.00  0.00     0.004 C 
HETATM   20  C   UNL     1     -46.289 -52.834  16.551  1.00  0.00     0.000 C 
HETATM   21  C   UNL     1     -45.711 -53.872  15.596  1.00  0.00     0.004 C 
HETATM   22  C   UNL     1     -46.279 -53.701  14.185  1.00  0.00     0.045 C 
BRANCH  17  23
HETATM   23  C   UNL     1     -46.657 -52.135  12.256  1.00  0.00    -0.046 C 
BRANCH  23  24
HETATM   24  N   UNL     1     -47.188 -52.015  11.119  1.00  0.00    -0.367 N 
ATOM     25  HN2 UNL     1     -46.777 -52.122  12.046  1.00  0.00     0.165 HD
ATOM     26  HN1 UNL     1     -47.616 -51.917  10.199  1.00  0.00     0.165 HD
ENDBRANCH  23  24
ENDBRANCH  17  23
ENDBRANCH   3  17
TORSDOF 8
ENDMDL
MODEL 9
REMARK VINA RESULT:      -5.8      3.492      6.283
REMARK  8 active torsions:
REMARK  status: ('A' for Active; 'I' for Inactive)
REMARK    1  A    between atoms: C_2  and  C_3 
REMARK    2  A    between atoms: C_2  and  N_10 
REMARK    3  A    between atoms: C_3  and  N_4 
REMARK    4  A    between atoms: N_10  and  C_11 
REMARK    5  A    between atoms: C_11  and  C_12 
REMARK       I    between atoms: C_12  and  N_14 
REMARK    6  A    between atoms: N_14  and  C_15 
REMARK    7  A    between atoms: C_15  and  C_21 
REMARK    8  A    between atoms: C_21  and  N_22 
ROOT
HETATM    1  C   UNL     1     -39.020 -51.594  13.096  1.00  0.00     0.247 C 
HETATM    2  O   UNL     1     -37.842 -51.904  12.962  1.00  0.00    -0.272 OA
HETATM    3  N   UNL     1     -39.542 -50.360  12.755  1.00  0.00    -0.339 N 
HETATM    4  H   UNL     1     -40.491 -50.200  13.084  1.00  0.00     0.164 HD
ENDROOT
BRANCH   1   5
HETATM    5  C   UNL     1     -40.063 -52.592  13.594  1.00  0.00     0.372 C 
BRANCH   5   6
HETATM    6  N   UNL     1     -40.893 -53.071  12.464  1.00  0.00     0.098 N 
HETATM    7  H   UNL     1     -40.844 -52.349  11.735  1.00  0.00     0.317 HD
BRANCH   6   8
HETATM    8  C   UNL     1     -42.322 -53.201  12.848  1.00  0.00     0.236 C 
HETATM    9  C   UNL     1     -42.365 -54.209  14.005  1.00  0.00     0.044 C 
BRANCH   8  10
HETATM   10  C   UNL     1     -42.968 -51.858  13.253  1.00  0.00     0.183 C 
BRANCH  10  11
HETATM   11  N   UNL     1     -44.420 -51.877  13.234  1.00  0.00    -0.302 N 
HETATM   12  C   UNL     1     -45.253 -51.317  14.157  1.00  0.00     0.111 A 
HETATM   13  C   UNL     1     -46.530 -51.583  13.721  1.00  0.00     0.037 A 
HETATM   14  C   UNL     1     -46.356 -52.296  12.520  1.00  0.00     0.108 A 
HETATM   15  N   UNL     1     -45.070 -52.467  12.214  1.00  0.00    -0.310 N 
ATOM     16  HN  UNL     1     -44.672 -52.934  11.399  1.00  0.00     0.186 HD
ENDBRANCH  10  11
ENDBRANCH   8  10
ENDBRANCH   6   8
ENDBRANCH   5   6
ENDBRANCH   1   5
BRANCH   3  17
HETATM   17  C   UNL     1     -38.703 -49.225  12.325  1.00  0.00     0.104 C 
HETATM   18  C   UNL     1     -37.828 -48.743  13.500  1.00  0.00     0.045 C 
HETATM   19  C   UNL     1     -38.659 -48.139  14.638  1.00  0.00     0.004 C 
HETATM   20  C   UNL     1     -39.587 -47.031  14.148  1.00  0.00     0.000 C 
HETATM   21  C   UNL     1     -40.447 -47.482  12.973  1.00  0.00     0.004 C 
HETATM   22  C   UNL     1     -39.584 -48.047  11.842  1.00  0.00     0.045 C 
BRANCH  17  23
HETATM   23  C   UNL     1     -37.816 -49.709  11.189  1.00  0.00    -0.046 C 
BRANCH  23  24
HETATM   24  N   UNL     1     -37.080 -50.109  10.247  1.00  0.00    -0.367 N 
ATOM     25  HN2 UNL     1     -37.660 -49.791  11.023  1.00  0.00     0.165 HD
ATOM     26  HN1 UNL     1     -36.485 -50.433   9.485  1.00  0.00     0.165 HD
ENDBRANCH  23  24
ENDBRANCH  17  23
ENDBRANCH   3  17
TORSDOF 8
ENDMDL
