MODEL 1
REMARK VINA RESULT:      -7.5      0.000      0.000
REMARK  5 active torsions:
REMARK  status: ('A' for Active; 'I' for Inactive)
REMARK    1  A    between atoms: N_1  and  C_8 
REMARK    2  A    between atoms: N_2  and  C_7 
REMARK    3  A    between atoms: C_8  and  C_9 
REMARK       I    between atoms: C_9  and  N_10 
REMARK    4  A    between atoms: N_10  and  C_15 
REMARK    5  A    between atoms: C_11  and  C_15 
ROOT
HETATM    1  C   UNL     1     -38.695 -51.401  13.633  1.00  0.00     0.236 C 
HETATM    2  N   UNL     1     -39.686 -52.317  13.329  1.00  0.00    -0.351 N 
HETATM    3  O   UNL     1     -38.158 -51.325  14.731  1.00  0.00    -0.272 OA
HETATM    4  H   UNL     1     -39.849 -52.537  12.354  1.00  0.00     0.163 HD
ENDROOT
BRANCH   1   5
HETATM    5  C   UNL     1     -38.288 -50.508  12.451  1.00  0.00     0.240 C 
BRANCH   5   6
HETATM    6  N   UNL     1     -39.055 -49.271  12.394  1.00  0.00    -0.255 N 
HETATM    7  C   UNL     1     -40.316 -49.317  11.796  1.00  0.00     0.334 C 
HETATM    8  N   UNL     1     -40.940 -48.082  11.625  1.00  0.00    -0.279 N 
HETATM    9  O   UNL     1     -40.837 -50.374  11.438  1.00  0.00    -0.246 OA
HETATM   10  C   UNL     1     -40.512 -46.955  12.299  1.00  0.00     0.146 C 
HETATM   11  C   UNL     1     -39.439 -46.983  13.082  1.00  0.00     0.200 C 
HETATM   12  C   UNL     1     -38.632 -48.214  13.189  1.00  0.00     0.292 C 
HETATM   13  F   UNL     1     -39.030 -45.906  13.779  1.00  0.00    -0.199 F 
HETATM   14  O   UNL     1     -37.692 -48.273  13.980  1.00  0.00    -0.264 OA
BRANCH   8  15
HETATM   15  C   UNL     1     -42.003 -47.991  10.633  1.00  0.00     0.232 C 
HETATM   16  O   UNL     1     -41.899 -46.736   9.928  1.00  0.00    -0.366 OA
HETATM   17  C   UNL     1     -43.215 -46.199   9.760  1.00  0.00     0.170 C 
HETATM   18  C   UNL     1     -44.180 -47.317  10.086  1.00  0.00     0.031 C 
HETATM   19  C   UNL     1     -43.427 -48.067  11.164  1.00  0.00     0.056 C 
ENDBRANCH   8  15
ENDBRANCH   5   6
ENDBRANCH   1   5
BRANCH   2  20
HETATM   20  C   UNL     1     -40.206 -53.261  14.310  1.00  0.00     0.113 C 
HETATM   21  C   UNL     1     -39.420 -54.574  14.280  1.00  0.00     0.037 C 
BRANCH  20  22
HETATM   22  C   UNL     1     -41.716 -53.365  14.116  1.00  0.00    -0.035 A 
HETATM   23  C   UNL     1     -42.548 -52.271  13.828  1.00  0.00     0.021 A 
HETATM   24  C   UNL     1     -43.957 -52.378  13.891  1.00  0.00    -0.025 A 
HETATM   25  C   UNL     1     -44.543 -53.626  14.195  1.00  0.00    -0.026 A 
HETATM   26  C   UNL     1     -44.801 -51.266  13.710  1.00  0.00     0.012 A 
HETATM   27  C   UNL     1     -45.938 -53.734  14.304  1.00  0.00     0.012 A 
HETATM   28  C   UNL     1     -43.718 -54.731  14.426  1.00  0.00     0.013 A 
HETATM   29  C   UNL     1     -46.760 -52.617  14.145  1.00  0.00     0.001 A 
HETATM   30  C   UNL     1     -46.188 -51.380  13.857  1.00  0.00     0.001 A 
HETATM   31  C   UNL     1     -42.327 -54.588  14.410  1.00  0.00     0.010 A 
ENDBRANCH  20  22
ENDBRANCH   2  20
TORSDOF 5
ENDMDL
MODEL 2
REMARK VINA RESULT:      -7.2      3.468      6.084
REMARK  5 active torsions:
REMARK  status: ('A' for Active; 'I' for Inactive)
REMARK    1  A    between atoms: N_1  and  C_8 
REMARK    2  A    between atoms: N_2  and  C_7 
REMARK    3  A    between atoms: C_8  and  C_9 
REMARK       I    between atoms: C_9  and  N_10 
REMARK    4  A    between atoms: N_10  and  C_15 
REMARK    5  A    between atoms: C_11  and  C_15 
ROOT
HETATM    1  C   UNL     1     -44.425 -54.222  13.245  1.00  0.00     0.236 C 
HETATM    2  N   UNL     1     -44.847 -52.931  12.980  1.00  0.00    -0.351 N 
HETATM    3  O   UNL     1     -45.141 -55.076  13.753  1.00  0.00    -0.272 OA
HETATM    4  H   UNL     1     -44.336 -52.395  12.289  1.00  0.00     0.163 HD
ENDROOT
BRANCH   1   5
HETATM    5  C   UNL     1     -42.983 -54.509  12.801  1.00  0.00     0.240 C 
BRANCH   5   6
HETATM    6  N   UNL     1     -41.997 -53.824  13.625  1.00  0.00    -0.255 N 
HETATM    7  C   UNL     1     -41.556 -52.569  13.199  1.00  0.00     0.334 C 
HETATM    8  N   UNL     1     -40.501 -52.028  13.932  1.00  0.00    -0.279 N 
HETATM    9  O   UNL     1     -42.058 -51.987  12.237  1.00  0.00    -0.246 OA
HETATM   10  C   UNL     1     -40.157 -52.519  15.176  1.00  0.00     0.146 C 
HETATM   11  C   UNL     1     -40.768 -53.578  15.695  1.00  0.00     0.200 C 
HETATM   12  C   UNL     1     -41.786 -54.304  14.911  1.00  0.00     0.292 C 
HETATM   13  F   UNL     1     -40.475 -54.047  16.923  1.00  0.00    -0.199 F 
HETATM   14  O   UNL     1     -42.418 -55.229  15.419  1.00  0.00    -0.264 OA
BRANCH   8  15
HETATM   15  C   UNL     1     -39.703 -50.984  13.303  1.00  0.00     0.232 C 
HETATM   16  O   UNL     1     -38.666 -51.588  12.502  1.00  0.00    -0.366 OA
HETATM   17  C   UNL     1     -37.454 -50.849  12.695  1.00  0.00     0.170 C 
HETATM   18  C   UNL     1     -37.843 -49.561  13.385  1.00  0.00     0.031 C 
HETATM   19  C   UNL     1     -39.006 -50.010  14.242  1.00  0.00     0.056 C 
ENDBRANCH   8  15
ENDBRANCH   5   6
ENDBRANCH   1   5
BRANCH   2  20
HETATM   20  C   UNL     1     -46.185 -52.462  13.317  1.00  0.00     0.113 C 
HETATM   21  C   UNL     1     -46.759 -51.590  12.197  1.00  0.00     0.037 C 
BRANCH  20  22
HETATM   22  C   UNL     1     -46.135 -51.838  14.708  1.00  0.00    -0.035 A 
HETATM   23  C   UNL     1     -47.235 -51.770  15.579  1.00  0.00     0.021 A 
HETATM   24  C   UNL     1     -47.201 -50.980  16.751  1.00  0.00    -0.025 A 
HETATM   25  C   UNL     1     -46.016 -50.288  17.084  1.00  0.00    -0.026 A 
HETATM   26  C   UNL     1     -48.330 -50.816  17.576  1.00  0.00     0.012 A 
HETATM   27  C   UNL     1     -45.985 -49.465  18.222  1.00  0.00     0.012 A 
HETATM   28  C   UNL     1     -44.900 -50.400  16.250  1.00  0.00     0.013 A 
HETATM   29  C   UNL     1     -47.119 -49.295  19.016  1.00  0.00     0.001 A 
HETATM   30  C   UNL     1     -48.295 -49.965  18.686  1.00  0.00     0.001 A 
HETATM   31  C   UNL     1     -44.975 -51.145  15.069  1.00  0.00     0.010 A 
ENDBRANCH  20  22
ENDBRANCH   2  20
TORSDOF 5
ENDMDL
MODEL 3
REMARK VINA RESULT:      -7.1      1.956      3.013
REMARK  5 active torsions:
REMARK  status: ('A' for Active; 'I' for Inactive)
REMARK    1  A    between atoms: N_1  and  C_8 
REMARK    2  A    between atoms: N_2  and  C_7 
REMARK    3  A    between atoms: C_8  and  C_9 
REMARK       I    between atoms: C_9  and  N_10 
REMARK    4  A    between atoms: N_10  and  C_15 
REMARK    5  A    between atoms: C_11  and  C_15 
ROOT
HETATM    1  C   UNL     1     -39.476 -48.231  14.040  1.00  0.00     0.236 C 
HETATM    2  N   UNL     1     -40.002 -49.412  13.547  1.00  0.00    -0.351 N 
HETATM    3  O   UNL     1     -38.303 -48.097  14.366  1.00  0.00    -0.272 OA
HETATM    4  H   UNL     1     -40.859 -49.365  13.010  1.00  0.00     0.163 HD
ENDROOT
BRANCH   1   5
HETATM    5  C   UNL     1     -40.487 -47.076  14.099  1.00  0.00     0.240 C 
BRANCH   5   6
HETATM    6  N   UNL     1     -40.882 -46.609  12.778  1.00  0.00    -0.255 N 
HETATM    7  C   UNL     1     -42.065 -47.119  12.237  1.00  0.00     0.334 C 
HETATM    8  N   UNL     1     -42.316 -46.765  10.912  1.00  0.00    -0.279 N 
HETATM    9  O   UNL     1     -42.827 -47.839  12.883  1.00  0.00    -0.246 OA
HETATM   10  C   UNL     1     -41.645 -45.724  10.302  1.00  0.00     0.146 C 
HETATM   11  C   UNL     1     -40.676 -45.064  10.927  1.00  0.00     0.200 C 
HETATM   12  C   UNL     1     -40.243 -45.484  12.274  1.00  0.00     0.292 C 
HETATM   13  F   UNL     1     -40.039 -44.020  10.364  1.00  0.00    -0.199 F 
HETATM   14  O   UNL     1     -39.411 -44.823  12.893  1.00  0.00    -0.264 OA
BRANCH   8  15
HETATM   15  C   UNL     1     -43.244 -47.593  10.153  1.00  0.00     0.232 C 
HETATM   16  O   UNL     1     -42.654 -47.937   8.882  1.00  0.00    -0.366 OA
HETATM   17  C   UNL     1     -43.661 -47.832   7.870  1.00  0.00     0.170 C 
HETATM   18  C   UNL     1     -44.986 -47.733   8.592  1.00  0.00     0.031 C 
HETATM   19  C   UNL     1     -44.599 -46.973   9.842  1.00  0.00     0.056 C 
ENDBRANCH   8  15
ENDBRANCH   5   6
ENDBRANCH   1   5
BRANCH   2  20
HETATM   20  C   UNL     1     -39.204 -50.623  13.403  1.00  0.00     0.113 C 
HETATM   21  C   UNL     1     -38.376 -50.586  12.116  1.00  0.00     0.037 C 
BRANCH  20  22
HETATM   22  C   UNL     1     -40.126 -51.825  13.587  1.00  0.00    -0.035 A 
HETATM   23  C   UNL     1     -41.325 -52.010  12.879  1.00  0.00     0.021 A 
HETATM   24  C   UNL     1     -42.254 -53.009  13.250  1.00  0.00    -0.025 A 
HETATM   25  C   UNL     1     -41.946 -53.877  14.320  1.00  0.00    -0.026 A 
HETATM   26  C   UNL     1     -43.506 -53.138  12.620  1.00  0.00     0.012 A 
HETATM   27  C   UNL     1     -42.880 -54.844  14.726  1.00  0.00     0.012 A 
HETATM   28  C   UNL     1     -40.727 -53.733  14.990  1.00  0.00     0.013 A 
HETATM   29  C   UNL     1     -44.126 -54.943  14.106  1.00  0.00     0.001 A 
HETATM   30  C   UNL     1     -44.442 -54.082  13.057  1.00  0.00     0.001 A 
HETATM   31  C   UNL     1     -39.848 -52.703  14.639  1.00  0.00     0.010 A 
ENDBRANCH  20  22
ENDBRANCH   2  20
TORSDOF 5
ENDMDL
MODEL 4
REMARK VINA RESULT:      -7.1      2.061      2.686
REMARK  5 active torsions:
REMARK  status: ('A' for Active; 'I' for Inactive)
REMARK    1  A    between atoms: N_1  and  C_8 
REMARK    2  A    between atoms: N_2  and  C_7 
REMARK    3  A    between atoms: C_8  and  C_9 
REMARK       I    between atoms: C_9  and  N_10 
REMARK    4  A    between atoms: N_10  and  C_15 
REMARK    5  A    between atoms: C_11  and  C_15 
ROOT
HETATM    1  C   UNL     1     -39.211 -52.629  14.623  1.00  0.00     0.236 C 
HETATM    2  N   UNL     1     -40.066 -52.689  15.709  1.00  0.00    -0.351 N 
HETATM    3  O   UNL     1     -39.276 -53.393  13.668  1.00  0.00    -0.272 OA
HETATM    4  H   UNL     1     -40.166 -51.860  16.283  1.00  0.00     0.163 HD
ENDROOT
BRANCH   1   5
HETATM    5  C   UNL     1     -38.191 -51.483  14.697  1.00  0.00     0.240 C 
BRANCH   5   6
HETATM    6  N   UNL     1     -38.279 -50.582  13.557  1.00  0.00    -0.255 N 
HETATM    7  C   UNL     1     -38.920 -49.356  13.748  1.00  0.00     0.334 C 
HETATM    8  N   UNL     1     -39.118 -48.600  12.593  1.00  0.00    -0.279 N 
HETATM    9  O   UNL     1     -39.292 -48.974  14.858  1.00  0.00    -0.246 OA
HETATM   10  C   UNL     1     -38.434 -48.871  11.425  1.00  0.00     0.146 C 
HETATM   11  C   UNL     1     -37.614 -49.912  11.329  1.00  0.00     0.200 C 
HETATM   12  C   UNL     1     -37.474 -50.852  12.458  1.00  0.00     0.292 C 
HETATM   13  F   UNL     1     -36.907 -50.168  10.211  1.00  0.00    -0.199 F 
HETATM   14  O   UNL     1     -36.651 -51.764  12.408  1.00  0.00    -0.264 OA
BRANCH   8  15
HETATM   15  C   UNL     1     -40.146 -47.568  12.627  1.00  0.00     0.232 C 
HETATM   16  O   UNL     1     -40.882 -47.581  11.385  1.00  0.00    -0.366 OA
HETATM   17  C   UNL     1     -41.108 -46.228  10.977  1.00  0.00     0.170 C 
HETATM   18  C   UNL     1     -40.782 -45.359  12.171  1.00  0.00     0.031 C 
HETATM   19  C   UNL     1     -39.660 -46.139  12.821  1.00  0.00     0.056 C 
ENDBRANCH   8  15
ENDBRANCH   5   6
ENDBRANCH   1   5
BRANCH   2  20
HETATM   20  C   UNL     1     -41.111 -53.698  15.826  1.00  0.00     0.113 C 
HETATM   21  C   UNL     1     -40.539 -55.106  15.642  1.00  0.00     0.037 C 
BRANCH  20  22
HETATM   22  C   UNL     1     -42.260 -53.303  14.903  1.00  0.00    -0.035 A 
HETATM   23  C   UNL     1     -43.247 -52.361  15.237  1.00  0.00     0.021 A 
HETATM   24  C   UNL     1     -44.413 -52.204  14.452  1.00  0.00    -0.025 A 
HETATM   25  C   UNL     1     -44.563 -52.971  13.276  1.00  0.00    -0.026 A 
HETATM   26  C   UNL     1     -45.460 -51.343  14.831  1.00  0.00     0.012 A 
HETATM   27  C   UNL     1     -45.736 -52.855  12.513  1.00  0.00     0.012 A 
HETATM   28  C   UNL     1     -43.555 -53.868  12.910  1.00  0.00     0.013 A 
HETATM   29  C   UNL     1     -46.774 -52.015  12.915  1.00  0.00     0.001 A 
HETATM   30  C   UNL     1     -46.638 -51.264  14.080  1.00  0.00     0.001 A 
HETATM   31  C   UNL     1     -42.436 -54.044  13.730  1.00  0.00     0.010 A 
ENDBRANCH  20  22
ENDBRANCH   2  20
TORSDOF 5
ENDMDL
MODEL 5
REMARK VINA RESULT:      -7.1      3.360      6.581
REMARK  5 active torsions:
REMARK  status: ('A' for Active; 'I' for Inactive)
REMARK    1  A    between atoms: N_1  and  C_8 
REMARK    2  A    between atoms: N_2  and  C_7 
REMARK    3  A    between atoms: C_8  and  C_9 
REMARK       I    between atoms: C_9  and  N_10 
REMARK    4  A    between atoms: N_10  and  C_15 
REMARK    5  A    between atoms: C_11  and  C_15 
ROOT
HETATM    1  C   UNL     1     -43.497 -52.915  12.529  1.00  0.00     0.236 C 
HETATM    2  N   UNL     1     -44.320 -51.857  12.872  1.00  0.00    -0.351 N 
HETATM    3  O   UNL     1     -43.857 -54.085  12.550  1.00  0.00    -0.272 OA
HETATM    4  H   UNL     1     -44.076 -50.934  12.533  1.00  0.00     0.163 HD
ENDROOT
BRANCH   1   5
HETATM    5  C   UNL     1     -42.094 -52.489  12.071  1.00  0.00     0.240 C 
BRANCH   5   6
HETATM    6  N   UNL     1     -41.120 -52.517  13.153  1.00  0.00    -0.255 N 
HETATM    7  C   UNL     1     -40.493 -53.734  13.430  1.00  0.00     0.334 C 
HETATM    8  N   UNL     1     -39.691 -53.746  14.570  1.00  0.00    -0.279 N 
HETATM    9  O   UNL     1     -40.644 -54.729  12.720  1.00  0.00    -0.246 OA
HETATM   10  C   UNL     1     -39.272 -52.577  15.173  1.00  0.00     0.146 C 
HETATM   11  C   UNL     1     -39.678 -51.389  14.736  1.00  0.00     0.200 C 
HETATM   12  C   UNL     1     -40.655 -51.300  13.633  1.00  0.00     0.292 C 
HETATM   13  F   UNL     1     -39.249 -50.237  15.285  1.00  0.00    -0.199 F 
HETATM   14  O   UNL     1     -40.966 -50.206  13.167  1.00  0.00    -0.264 OA
BRANCH   8  15
HETATM   15  C   UNL     1     -39.384 -55.038  15.169  1.00  0.00     0.232 C 
HETATM   16  O   UNL     1     -40.513 -55.488  15.948  1.00  0.00    -0.366 OA
HETATM   17  C   UNL     1     -40.026 -56.057  17.168  1.00  0.00     0.170 C 
HETATM   18  C   UNL     1     -38.537 -56.253  16.986  1.00  0.00     0.031 C 
HETATM   19  C   UNL     1     -38.179 -55.081  16.098  1.00  0.00     0.056 C 
ENDBRANCH   8  15
ENDBRANCH   5   6
ENDBRANCH   1   5
BRANCH   2  20
HETATM   20  C   UNL     1     -45.692 -52.048  13.325  1.00  0.00     0.113 C 
HETATM   21  C   UNL     1     -46.688 -51.463  12.320  1.00  0.00     0.037 C 
BRANCH  20  22
HETATM   22  C   UNL     1     -45.795 -51.543  14.761  1.00  0.00    -0.035 A 
HETATM   23  C   UNL     1     -46.975 -51.574  15.522  1.00  0.00     0.021 A 
HETATM   24  C   UNL     1     -47.078 -50.884  16.752  1.00  0.00    -0.025 A 
HETATM   25  C   UNL     1     -45.953 -50.196  17.255  1.00  0.00    -0.026 A 
HETATM   26  C   UNL     1     -48.286 -50.816  17.472  1.00  0.00     0.012 A 
HETATM   27  C   UNL     1     -46.057 -49.472  18.453  1.00  0.00     0.012 A 
HETATM   28  C   UNL     1     -44.759 -50.212  16.528  1.00  0.00     0.013 A 
HETATM   29  C   UNL     1     -47.267 -49.394  19.144  1.00  0.00     0.001 A 
HETATM   30  C   UNL     1     -48.384 -50.061  18.647  1.00  0.00     0.001 A 
HETATM   31  C   UNL     1     -44.697 -50.857  15.289  1.00  0.00     0.010 A 
ENDBRANCH  20  22
ENDBRANCH   2  20
TORSDOF 5
ENDMDL
MODEL 6
REMARK VINA RESULT:      -7.1      2.385      3.228
REMARK  5 active torsions:
REMARK  status: ('A' for Active; 'I' for Inactive)
REMARK    1  A    between atoms: N_1  and  C_8 
REMARK    2  A    between atoms: N_2  and  C_7 
REMARK    3  A    between atoms: C_8  and  C_9 
REMARK       I    between atoms: C_9  and  N_10 
REMARK    4  A    between atoms: N_10  and  C_15 
REMARK    5  A    between atoms: C_11  and  C_15 
ROOT
HETATM    1  C   UNL     1     -40.798 -52.678  13.989  1.00  0.00     0.236 C 
HETATM    2  N   UNL     1     -42.079 -52.182  14.151  1.00  0.00    -0.351 N 
HETATM    3  O   UNL     1     -40.556 -53.794  13.545  1.00  0.00    -0.272 OA
HETATM    4  H   UNL     1     -42.198 -51.178  14.209  1.00  0.00     0.163 HD
ENDROOT
BRANCH   1   5
HETATM    5  C   UNL     1     -39.692 -51.684  14.375  1.00  0.00     0.240 C 
BRANCH   5   6
HETATM    6  N   UNL     1     -39.439 -50.697  13.334  1.00  0.00    -0.255 N 
HETATM    7  C   UNL     1     -40.260 -49.567  13.300  1.00  0.00     0.334 C 
HETATM    8  N   UNL     1     -40.081 -48.734  12.197  1.00  0.00    -0.279 N 
HETATM    9  O   UNL     1     -41.088 -49.328  14.180  1.00  0.00    -0.246 OA
HETATM   10  C   UNL     1     -38.961 -48.825  11.395  1.00  0.00     0.146 C 
HETATM   11  C   UNL     1     -38.040 -49.762  11.596  1.00  0.00     0.200 C 
HETATM   12  C   UNL     1     -38.237 -50.781  12.645  1.00  0.00     0.292 C 
HETATM   13  F   UNL     1     -36.922 -49.842  10.850  1.00  0.00    -0.199 F 
HETATM   14  O   UNL     1     -37.349 -51.594  12.895  1.00  0.00    -0.264 OA
BRANCH   8  15
HETATM   15  C   UNL     1     -41.165 -47.823  11.853  1.00  0.00     0.232 C 
HETATM   16  O   UNL     1     -42.183 -48.538  11.122  1.00  0.00    -0.366 OA
HETATM   17  C   UNL     1     -42.636 -47.710  10.046  1.00  0.00     0.170 C 
HETATM   18  C   UNL     1     -42.109 -46.320  10.322  1.00  0.00     0.031 C 
HETATM   19  C   UNL     1     -40.789 -46.621  10.998  1.00  0.00     0.056 C 
ENDBRANCH   8  15
ENDBRANCH   5   6
ENDBRANCH   1   5
BRANCH   2  20
HETATM   20  C   UNL     1     -43.267 -52.965  13.833  1.00  0.00     0.113 C 
HETATM   21  C   UNL     1     -43.377 -53.209  12.326  1.00  0.00     0.037 C 
BRANCH  20  22
HETATM   22  C   UNL     1     -44.466 -52.305  14.507  1.00  0.00    -0.035 A 
HETATM   23  C   UNL     1     -44.365 -51.364  15.545  1.00  0.00     0.021 A 
HETATM   24  C   UNL     1     -45.497 -50.962  16.290  1.00  0.00    -0.025 A 
HETATM   25  C   UNL     1     -46.768 -51.473  15.947  1.00  0.00    -0.026 A 
HETATM   26  C   UNL     1     -45.396 -50.104  17.402  1.00  0.00     0.012 A 
HETATM   27  C   UNL     1     -47.892 -51.115  16.708  1.00  0.00     0.012 A 
HETATM   28  C   UNL     1     -46.881 -52.366  14.876  1.00  0.00     0.013 A 
HETATM   29  C   UNL     1     -47.771 -50.283  17.820  1.00  0.00     0.001 A 
HETATM   30  C   UNL     1     -46.519 -49.784  18.172  1.00  0.00     0.001 A 
HETATM   31  C   UNL     1     -45.739 -52.789  14.188  1.00  0.00     0.010 A 
ENDBRANCH  20  22
ENDBRANCH   2  20
TORSDOF 5
ENDMDL
MODEL 7
REMARK VINA RESULT:      -7.0      3.341      7.578
REMARK  5 active torsions:
REMARK  status: ('A' for Active; 'I' for Inactive)
REMARK    1  A    between atoms: N_1  and  C_8 
REMARK    2  A    between atoms: N_2  and  C_7 
REMARK    3  A    between atoms: C_8  and  C_9 
REMARK       I    between atoms: C_9  and  N_10 
REMARK    4  A    between atoms: N_10  and  C_15 
REMARK    5  A    between atoms: C_11  and  C_15 
ROOT
HETATM    1  C   UNL     1     -40.363 -51.182  12.674  1.00  0.00     0.236 C 
HETATM    2  N   UNL     1     -40.557 -49.862  13.038  1.00  0.00    -0.351 N 
HETATM    3  O   UNL     1     -39.301 -51.774  12.818  1.00  0.00    -0.272 OA
HETATM    4  H   UNL     1     -41.506 -49.543  13.191  1.00  0.00     0.163 HD
ENDROOT
BRANCH   1   5
HETATM    5  C   UNL     1     -41.619 -51.863  12.110  1.00  0.00     0.240 C 
BRANCH   5   6
HETATM    6  N   UNL     1     -42.433 -52.482  13.146  1.00  0.00    -0.255 N 
HETATM    7  C   UNL     1     -43.615 -51.835  13.516  1.00  0.00     0.334 C 
HETATM    8  N   UNL     1     -44.274 -52.380  14.616  1.00  0.00    -0.279 N 
HETATM    9  O   UNL     1     -44.039 -50.847  12.915  1.00  0.00    -0.246 OA
HETATM   10  C   UNL     1     -43.981 -53.647  15.080  1.00  0.00     0.146 C 
HETATM   11  C   UNL     1     -43.005 -54.372  14.546  1.00  0.00     0.200 C 
HETATM   12  C   UNL     1     -42.156 -53.801  13.482  1.00  0.00     0.292 C 
HETATM   13  F   UNL     1     -42.731 -55.624  14.958  1.00  0.00    -0.199 F 
HETATM   14  O   UNL     1     -41.310 -54.496  12.922  1.00  0.00    -0.264 OA
BRANCH   8  15
HETATM   15  C   UNL     1     -45.221 -51.532  15.328  1.00  0.00     0.232 C 
HETATM   16  O   UNL     1     -45.138 -51.800  16.743  1.00  0.00    -0.366 OA
HETATM   17  C   UNL     1     -46.466 -51.826  17.279  1.00  0.00     0.170 C 
HETATM   18  C   UNL     1     -47.369 -51.236  16.219  1.00  0.00     0.031 C 
HETATM   19  C   UNL     1     -46.686 -51.691  14.947  1.00  0.00     0.056 C 
ENDBRANCH   8  15
ENDBRANCH   5   6
ENDBRANCH   1   5
BRANCH   2  20
HETATM   20  C   UNL     1     -39.492 -49.041  13.601  1.00  0.00     0.113 C 
HETATM   21  C   UNL     1     -39.553 -49.037  15.131  1.00  0.00     0.037 C 
BRANCH  20  22
HETATM   22  C   UNL     1     -39.525 -47.680  12.913  1.00  0.00    -0.035 A 
HETATM   23  C   UNL     1     -39.365 -46.457  13.585  1.00  0.00     0.021 A 
HETATM   24  C   UNL     1     -39.637 -45.224  12.947  1.00  0.00    -0.025 A 
HETATM   25  C   UNL     1     -40.023 -45.218  11.589  1.00  0.00    -0.026 A 
HETATM   26  C   UNL     1     -39.586 -43.998  13.637  1.00  0.00     0.012 A 
HETATM   27  C   UNL     1     -40.339 -44.004  10.959  1.00  0.00     0.012 A 
HETATM   28  C   UNL     1     -40.127 -46.431  10.902  1.00  0.00     0.013 A 
HETATM   29  C   UNL     1     -40.306 -42.799  11.663  1.00  0.00     0.001 A 
HETATM   30  C   UNL     1     -39.937 -42.799  13.006  1.00  0.00     0.001 A 
HETATM   31  C   UNL     1     -39.904 -47.640  11.568  1.00  0.00     0.010 A 
ENDBRANCH  20  22
ENDBRANCH   2  20
TORSDOF 5
ENDMDL
MODEL 8
REMARK VINA RESULT:      -6.9      2.892      5.511
REMARK  5 active torsions:
REMARK  status: ('A' for Active; 'I' for Inactive)
REMARK    1  A    between atoms: N_1  and  C_8 
REMARK    2  A    between atoms: N_2  and  C_7 
REMARK    3  A    between atoms: C_8  and  C_9 
REMARK       I    between atoms: C_9  and  N_10 
REMARK    4  A    between atoms: N_10  and  C_15 
REMARK    5  A    between atoms: C_11  and  C_15 
ROOT
HETATM    1  C   UNL     1     -42.873 -52.689  12.555  1.00  0.00     0.236 C 
HETATM    2  N   UNL     1     -44.009 -51.899  12.541  1.00  0.00    -0.351 N 
HETATM    3  O   UNL     1     -42.853 -53.837  12.983  1.00  0.00    -0.272 OA
HETATM    4  H   UNL     1     -44.036 -51.114  11.901  1.00  0.00     0.163 HD
ENDROOT
BRANCH   1   5
HETATM    5  C   UNL     1     -41.638 -52.014  11.941  1.00  0.00     0.240 C 
BRANCH   5   6
HETATM    6  N   UNL     1     -40.996 -51.081  12.857  1.00  0.00    -0.255 N 
HETATM    7  C   UNL     1     -39.797 -51.479  13.453  1.00  0.00     0.334 C 
HETATM    8  N   UNL     1     -39.307 -50.622  14.437  1.00  0.00    -0.279 N 
HETATM    9  O   UNL     1     -39.218 -52.519  13.136  1.00  0.00    -0.246 OA
HETATM   10  C   UNL     1     -39.771 -49.328  14.566  1.00  0.00     0.146 C 
HETATM   11  C   UNL     1     -40.759 -48.868  13.806  1.00  0.00     0.200 C 
HETATM   12  C   UNL     1     -41.437 -49.764  12.850  1.00  0.00     0.292 C 
HETATM   13  F   UNL     1     -41.197 -47.597  13.889  1.00  0.00    -0.199 F 
HETATM   14  O   UNL     1     -42.290 -49.323  12.082  1.00  0.00    -0.264 OA
BRANCH   8  15
HETATM   15  C   UNL     1     -38.354 -51.165  15.396  1.00  0.00     0.232 C 
HETATM   16  O   UNL     1     -39.034 -51.469  16.632  1.00  0.00    -0.366 OA
HETATM   17  C   UNL     1     -38.201 -51.058  17.722  1.00  0.00     0.170 C 
HETATM   18  C   UNL     1     -36.831 -50.791  17.138  1.00  0.00     0.031 C 
HETATM   19  C   UNL     1     -37.181 -50.267  15.762  1.00  0.00     0.056 C 
ENDBRANCH   8  15
ENDBRANCH   5   6
ENDBRANCH   1   5
BRANCH   2  20
HETATM   20  C   UNL     1     -45.287 -52.359  13.069  1.00  0.00     0.113 C 
HETATM   21  C   UNL     1     -46.421 -52.086  12.078  1.00  0.00     0.037 C 
BRANCH  20  22
HETATM   22  C   UNL     1     -45.455 -51.786  14.473  1.00  0.00    -0.035 A 
HETATM   23  C   UNL     1     -46.658 -51.823  15.198  1.00  0.00     0.021 A 
HETATM   24  C   UNL     1     -46.826 -51.077  16.387  1.00  0.00    -0.025 A 
HETATM   25  C   UNL     1     -45.744 -50.321  16.889  1.00  0.00    -0.026 A 
HETATM   26  C   UNL     1     -48.058 -51.018  17.066  1.00  0.00     0.012 A 
HETATM   27  C   UNL     1     -45.914 -49.541  18.044  1.00  0.00     0.012 A 
HETATM   28  C   UNL     1     -44.527 -50.328  16.200  1.00  0.00     0.013 A 
HETATM   29  C   UNL     1     -47.148 -49.475  18.691  1.00  0.00     0.001 A 
HETATM   30  C   UNL     1     -48.223 -50.209  18.195  1.00  0.00     0.001 A 
HETATM   31  C   UNL     1     -44.401 -51.032  14.999  1.00  0.00     0.010 A 
ENDBRANCH  20  22
ENDBRANCH   2  20
TORSDOF 5
ENDMDL
MODEL 9
REMARK VINA RESULT:      -6.9      3.005      6.858
REMARK  5 active torsions:
REMARK  status: ('A' for Active; 'I' for Inactive)
REMARK    1  A    between atoms: N_1  and  C_8 
REMARK    2  A    between atoms: N_2  and  C_7 
REMARK    3  A    between atoms: C_8  and  C_9 
REMARK       I    between atoms: C_9  and  N_10 
REMARK    4  A    between atoms: N_10  and  C_15 
REMARK    5  A    between atoms: C_11  and  C_15 
ROOT
HETATM    1  C   UNL     1     -39.854 -51.675  13.509  1.00  0.00     0.236 C 
HETATM    2  N   UNL     1     -39.765 -50.320  13.243  1.00  0.00    -0.351 N 
HETATM    3  O   UNL     1     -39.568 -52.544  12.694  1.00  0.00    -0.272 OA
HETATM    4  H   UNL     1     -39.701 -49.683  14.028  1.00  0.00     0.163 HD
ENDROOT
BRANCH   1   5
HETATM    5  C   UNL     1     -40.301 -52.001  14.941  1.00  0.00     0.240 C 
BRANCH   5   6
HETATM    6  N   UNL     1     -41.615 -52.625  14.990  1.00  0.00    -0.255 N 
HETATM    7  C   UNL     1     -42.727 -51.815  14.745  1.00  0.00     0.334 C 
HETATM    8  N   UNL     1     -43.964 -52.421  14.958  1.00  0.00    -0.279 N 
HETATM    9  O   UNL     1     -42.620 -50.645  14.375  1.00  0.00    -0.246 OA
HETATM   10  C   UNL     1     -44.091 -53.793  15.059  1.00  0.00     0.146 C 
HETATM   11  C   UNL     1     -43.028 -54.589  15.033  1.00  0.00     0.200 C 
HETATM   12  C   UNL     1     -41.671 -54.013  14.971  1.00  0.00     0.292 C 
HETATM   13  F   UNL     1     -43.134 -55.931  15.089  1.00  0.00    -0.199 F 
HETATM   14  O   UNL     1     -40.690 -54.745  14.857  1.00  0.00    -0.264 OA
BRANCH   8  15
HETATM   15  C   UNL     1     -45.116 -51.555  15.169  1.00  0.00     0.232 C 
HETATM   16  O   UNL     1     -45.102 -51.057  16.524  1.00  0.00    -0.366 OA
HETATM   17  C   UNL     1     -46.439 -51.094  17.035  1.00  0.00     0.170 C 
HETATM   18  C   UNL     1     -47.347 -51.318  15.847  1.00  0.00     0.031 C 
HETATM   19  C   UNL     1     -46.483 -52.189  14.960  1.00  0.00     0.056 C 
ENDBRANCH   8  15
ENDBRANCH   5   6
ENDBRANCH   1   5
BRANCH   2  20
HETATM   20  C   UNL     1     -39.351 -49.803  11.945  1.00  0.00     0.113 C 
HETATM   21  C   UNL     1     -37.847 -49.521  11.921  1.00  0.00     0.037 C 
BRANCH  20  22
HETATM   22  C   UNL     1     -40.269 -48.641  11.580  1.00  0.00    -0.035 A 
HETATM   23  C   UNL     1     -41.587 -48.796  11.119  1.00  0.00     0.021 A 
HETATM   24  C   UNL     1     -42.310 -47.710  10.574  1.00  0.00    -0.025 A 
HETATM   25  C   UNL     1     -41.717 -46.428  10.545  1.00  0.00    -0.026 A 
HETATM   26  C   UNL     1     -43.590 -47.871  10.009  1.00  0.00     0.012 A 
HETATM   27  C   UNL     1     -42.409 -45.352   9.967  1.00  0.00     0.012 A 
HETATM   28  C   UNL     1     -40.427 -46.259  11.057  1.00  0.00     0.013 A 
HETATM   29  C   UNL     1     -43.667 -45.534   9.390  1.00  0.00     0.001 A 
HETATM   30  C   UNL     1     -44.253 -46.797   9.405  1.00  0.00     0.001 A 
HETATM   31  C   UNL     1     -39.712 -47.359  11.542  1.00  0.00     0.010 A 
ENDBRANCH  20  22
ENDBRANCH   2  20
TORSDOF 5
ENDMDL
