MODEL 1
REMARK VINA RESULT:      -6.9      0.000      0.000
REMARK  3 active torsions:
REMARK  status: ('A' for Active; 'I' for Inactive)
REMARK       I    between atoms: C_2  and  N_3 
REMARK       I    between atoms: C_2  and  N_19 
REMARK    1  A    between atoms: N_3  and  C_4 
REMARK       I    between atoms: N_7  and  C_10 
REMARK       I    between atoms: C_10  and  N_12 
REMARK    2  A    between atoms: N_12  and  C_13 
REMARK    3  A    between atoms: N_19  and  C_20 
ROOT
HETATM    1  C   UNL     1     -42.053 -49.005  12.780  1.00  0.00     0.089 C 
HETATM    2  C   UNL     1     -42.360 -47.761  13.626  1.00  0.00     0.045 C 
HETATM    3  C   UNL     1     -43.038 -46.637  12.831  1.00  0.00     0.129 C 
HETATM    4  N   UNL     1     -42.381 -46.366  11.551  1.00  0.00    -0.334 N 
HETATM    5  C   UNL     1     -42.076 -47.542  10.738  1.00  0.00     0.129 C 
HETATM    6  C   UNL     1     -41.277 -48.561  11.533  1.00  0.00     0.045 C 
HETATM    7  C   UNL     1     -42.199 -45.132  10.953  1.00  0.00     0.318 C 
HETATM    8  O   UNL     1     -41.630 -44.997   9.871  1.00  0.00    -0.247 OA
HETATM    9  N   UNL     1     -42.669 -44.048  11.647  1.00  0.00    -0.338 N 
HETATM   10  H   UNL     1     -43.481 -44.212  12.218  1.00  0.00     0.164 HD
ENDROOT
BRANCH   1  11
HETATM   11  N   UNL     1     -43.281 -49.745  12.462  1.00  0.00    -0.338 N 
HETATM   12  C   UNL     1     -43.783 -50.688  13.345  1.00  0.00     0.321 C 
HETATM   13  O   UNL     1     -43.279 -50.910  14.437  1.00  0.00    -0.247 OA
HETATM   14  N   UNL     1     -44.844 -51.365  12.778  1.00  0.00    -0.309 N 
HETATM   15  H   UNL     1     -44.965 -51.211  11.788  1.00  0.00     0.170 HD
HETATM   16  H   UNL     1     -44.014 -49.212  12.015  1.00  0.00     0.164 HD
BRANCH  14  17
HETATM   17  C   UNL     1     -45.480 -52.502  13.326  1.00  0.00     0.038 A 
HETATM   18  C   UNL     1     -46.611 -52.436  14.136  1.00  0.00     0.046 A 
HETATM   19  C   UNL     1     -47.084 -53.606  14.707  1.00  0.00     0.090 A 
HETATM   20  N   UNL     1     -46.527 -54.819  14.510  1.00  0.00    -0.375 N 
HETATM   21  C   UNL     1     -45.456 -54.863  13.692  1.00  0.00     0.090 A 
ATOM     22  HN  UNL     1     -46.897 -55.658  14.956  1.00  0.00     0.164 HD
HETATM   23  C   UNL     1     -44.911 -53.751  13.072  1.00  0.00     0.046 A 
ENDBRANCH  14  17
ENDBRANCH   1  11
BRANCH   9  24
HETATM   24  C   UNL     1     -42.534 -42.708  11.073  1.00  0.00     0.086 C 
HETATM   25  C   UNL     1     -41.199 -42.071  11.466  1.00  0.00     0.025 C 
HETATM   26  C   UNL     1     -41.162 -41.626  12.925  1.00  0.00     0.002 C 
HETATM   27  C   UNL     1     -42.338 -40.714  13.265  1.00  0.00     0.000 C 
HETATM   28  C   UNL     1     -43.673 -41.365  12.918  1.00  0.00     0.002 C 
HETATM   29  C   UNL     1     -43.721 -41.811  11.457  1.00  0.00     0.025 C 
ENDBRANCH   9  24
TORSDOF 3
ENDMDL
MODEL 2
REMARK VINA RESULT:      -6.7      1.923      9.760
REMARK  3 active torsions:
REMARK  status: ('A' for Active; 'I' for Inactive)
REMARK       I    between atoms: C_2  and  N_3 
REMARK       I    between atoms: C_2  and  N_19 
REMARK    1  A    between atoms: N_3  and  C_4 
REMARK       I    between atoms: N_7  and  C_10 
REMARK       I    between atoms: C_10  and  N_12 
REMARK    2  A    between atoms: N_12  and  C_13 
REMARK    3  A    between atoms: N_19  and  C_20 
ROOT
HETATM    1  C   UNL     1     -41.447 -46.502  10.510  1.00  0.00     0.089 C 
HETATM    2  C   UNL     1     -42.692 -47.345  10.194  1.00  0.00     0.045 C 
HETATM    3  C   UNL     1     -43.278 -48.049  11.425  1.00  0.00     0.129 C 
HETATM    4  N   UNL     1     -42.263 -48.726  12.233  1.00  0.00    -0.334 N 
HETATM    5  C   UNL     1     -41.070 -47.939  12.536  1.00  0.00     0.129 C 
HETATM    6  C   UNL     1     -40.446 -47.387  11.265  1.00  0.00     0.045 C 
HETATM    7  C   UNL     1     -42.394 -49.936  12.892  1.00  0.00     0.318 C 
HETATM    8  O   UNL     1     -41.482 -50.434  13.550  1.00  0.00    -0.247 OA
HETATM    9  N   UNL     1     -43.599 -50.573  12.754  1.00  0.00    -0.338 N 
HETATM   10  H   UNL     1     -44.401 -49.975  12.642  1.00  0.00     0.164 HD
ENDROOT
BRANCH   1  11
HETATM   11  N   UNL     1     -41.807 -45.282  11.242  1.00  0.00    -0.338 N 
HETATM   12  C   UNL     1     -41.092 -44.110  11.051  1.00  0.00     0.321 C 
HETATM   13  O   UNL     1     -40.183 -44.011  10.239  1.00  0.00    -0.247 OA
HETATM   14  N   UNL     1     -41.499 -43.143  11.948  1.00  0.00    -0.309 N 
HETATM   15  H   UNL     1     -42.090 -43.478  12.694  1.00  0.00     0.170 HD
HETATM   16  H   UNL     1     -42.796 -45.112  11.357  1.00  0.00     0.164 HD
BRANCH  14  17
HETATM   17  C   UNL     1     -40.871 -41.893  12.149  1.00  0.00     0.038 A 
HETATM   18  C   UNL     1     -39.780 -41.708  12.994  1.00  0.00     0.046 A 
HETATM   19  C   UNL     1     -39.315 -40.419  13.200  1.00  0.00     0.090 A 
HETATM   20  N   UNL     1     -39.842 -39.325  12.612  1.00  0.00    -0.375 N 
HETATM   21  C   UNL     1     -40.873 -39.534  11.769  1.00  0.00     0.090 A 
ATOM     22  HN  UNL     1     -39.480 -38.390  12.795  1.00  0.00     0.164 HD
HETATM   23  C   UNL     1     -41.408 -40.783  11.496  1.00  0.00     0.046 A 
ENDBRANCH  14  17
ENDBRANCH   1  11
BRANCH   9  24
HETATM   24  C   UNL     1     -43.826 -51.847  13.437  1.00  0.00     0.086 C 
HETATM   25  C   UNL     1     -44.648 -52.801  12.567  1.00  0.00     0.025 C 
HETATM   26  C   UNL     1     -46.118 -52.402  12.476  1.00  0.00     0.002 C 
HETATM   27  C   UNL     1     -46.740 -52.232  13.860  1.00  0.00     0.000 C 
HETATM   28  C   UNL     1     -45.950 -51.246  14.713  1.00  0.00     0.002 C 
HETATM   29  C   UNL     1     -44.477 -51.639  14.813  1.00  0.00     0.025 C 
ENDBRANCH   9  24
TORSDOF 3
ENDMDL
MODEL 3
REMARK VINA RESULT:      -5.8      4.655      5.513
REMARK  3 active torsions:
REMARK  status: ('A' for Active; 'I' for Inactive)
REMARK       I    between atoms: C_2  and  N_3 
REMARK       I    between atoms: C_2  and  N_19 
REMARK    1  A    between atoms: N_3  and  C_4 
REMARK       I    between atoms: N_7  and  C_10 
REMARK       I    between atoms: C_10  and  N_12 
REMARK    2  A    between atoms: N_12  and  C_13 
REMARK    3  A    between atoms: N_19  and  C_20 
ROOT
HETATM    1  C   UNL     1     -40.466 -52.388  12.588  1.00  0.00     0.089 C 
HETATM    2  C   UNL     1     -39.573 -51.181  12.265  1.00  0.00     0.045 C 
HETATM    3  C   UNL     1     -40.142 -49.849  12.774  1.00  0.00     0.129 C 
HETATM    4  N   UNL     1     -41.559 -49.673  12.452  1.00  0.00    -0.334 N 
HETATM    5  C   UNL     1     -42.419 -50.816  12.747  1.00  0.00     0.129 C 
HETATM    6  C   UNL     1     -41.886 -52.082  12.095  1.00  0.00     0.045 C 
HETATM    7  C   UNL     1     -42.190 -48.496  12.087  1.00  0.00     0.318 C 
HETATM    8  O   UNL     1     -43.391 -48.442  11.830  1.00  0.00    -0.247 OA
HETATM    9  N   UNL     1     -41.394 -47.384  12.002  1.00  0.00    -0.338 N 
HETATM   10  H   UNL     1     -40.611 -47.357  12.633  1.00  0.00     0.164 HD
ENDROOT
BRANCH   1  11
HETATM   11  N   UNL     1     -40.409 -52.720  14.016  1.00  0.00    -0.338 N 
HETATM   12  C   UNL     1     -39.737 -53.852  14.450  1.00  0.00     0.321 C 
HETATM   13  O   UNL     1     -39.117 -54.587  13.694  1.00  0.00    -0.247 OA
HETATM   14  N   UNL     1     -39.944 -54.050  15.801  1.00  0.00    -0.309 N 
HETATM   15  H   UNL     1     -40.670 -53.480  16.206  1.00  0.00     0.170 HD
HETATM   16  H   UNL     1     -40.288 -51.939  14.647  1.00  0.00     0.164 HD
BRANCH  14  17
HETATM   17  C   UNL     1     -39.552 -55.194  16.532  1.00  0.00     0.038 A 
HETATM   18  C   UNL     1     -38.278 -55.366  17.068  1.00  0.00     0.046 A 
HETATM   19  C   UNL     1     -37.972 -56.575  17.671  1.00  0.00     0.090 A 
HETATM   20  N   UNL     1     -38.844 -57.597  17.793  1.00  0.00    -0.375 N 
HETATM   21  C   UNL     1     -40.081 -57.394  17.300  1.00  0.00     0.090 A 
ATOM     22  HN  UNL     1     -38.579 -58.478  18.234  1.00  0.00     0.164 HD
HETATM   23  C   UNL     1     -40.485 -56.220  16.683  1.00  0.00     0.046 A 
ENDBRANCH  14  17
ENDBRANCH   1  11
BRANCH   9  24
HETATM   24  C   UNL     1     -41.988 -46.096  11.644  1.00  0.00     0.086 C 
HETATM   25  C   UNL     1     -41.329 -45.512  10.392  1.00  0.00     0.025 C 
HETATM   26  C   UNL     1     -39.925 -44.975  10.658  1.00  0.00     0.002 C 
HETATM   27  C   UNL     1     -39.916 -43.976  11.812  1.00  0.00     0.000 C 
HETATM   28  C   UNL     1     -40.530 -44.569  13.075  1.00  0.00     0.002 C 
HETATM   29  C   UNL     1     -41.938 -45.107  12.820  1.00  0.00     0.025 C 
ENDBRANCH   9  24
TORSDOF 3
ENDMDL
MODEL 4
REMARK VINA RESULT:      -5.7      7.445     10.349
REMARK  3 active torsions:
REMARK  status: ('A' for Active; 'I' for Inactive)
REMARK       I    between atoms: C_2  and  N_3 
REMARK       I    between atoms: C_2  and  N_19 
REMARK    1  A    between atoms: N_3  and  C_4 
REMARK       I    between atoms: N_7  and  C_10 
REMARK       I    between atoms: C_10  and  N_12 
REMARK    2  A    between atoms: N_12  and  C_13 
REMARK    3  A    between atoms: N_19  and  C_20 
ROOT
HETATM    1  C   UNL     1     -39.174 -55.183  17.500  1.00  0.00     0.089 C 
HETATM    2  C   UNL     1     -40.588 -54.585  17.544  1.00  0.00     0.045 C 
HETATM    3  C   UNL     1     -41.362 -54.753  16.229  1.00  0.00     0.129 C 
HETATM    4  N   UNL     1     -40.573 -54.387  15.052  1.00  0.00    -0.334 N 
HETATM    5  C   UNL     1     -39.222 -54.943  15.000  1.00  0.00     0.129 C 
HETATM    6  C   UNL     1     -38.452 -54.620  16.269  1.00  0.00     0.045 C 
HETATM    7  C   UNL     1     -41.026 -53.744  13.913  1.00  0.00     0.318 C 
HETATM    8  O   UNL     1     -40.287 -53.472  12.968  1.00  0.00    -0.247 OA
HETATM    9  N   UNL     1     -42.352 -53.400  13.900  1.00  0.00    -0.338 N 
HETATM   10  H   UNL     1     -42.969 -54.011  14.408  1.00  0.00     0.164 HD
ENDROOT
BRANCH   1  11
HETATM   11  N   UNL     1     -39.220 -56.650  17.522  1.00  0.00    -0.338 N 
HETATM   12  C   UNL     1     -39.125 -57.339  18.721  1.00  0.00     0.321 C 
HETATM   13  O   UNL     1     -39.061 -56.779  19.806  1.00  0.00    -0.247 OA
HETATM   14  N   UNL     1     -39.034 -58.698  18.492  1.00  0.00    -0.309 N 
HETATM   15  H   UNL     1     -38.865 -58.956  17.532  1.00  0.00     0.170 HD
HETATM   16  H   UNL     1     -39.875 -57.081  16.884  1.00  0.00     0.164 HD
BRANCH  14  17
HETATM   17  C   UNL     1     -38.754 -59.678  19.471  1.00  0.00     0.038 A 
HETATM   18  C   UNL     1     -39.736 -60.432  20.108  1.00  0.00     0.046 A 
HETATM   19  C   UNL     1     -39.355 -61.286  21.130  1.00  0.00     0.090 A 
HETATM   20  N   UNL     1     -38.079 -61.452  21.536  1.00  0.00    -0.375 N 
HETATM   21  C   UNL     1     -37.142 -60.740  20.879  1.00  0.00     0.090 A 
ATOM     22  HN  UNL     1     -37.837 -62.083  22.300  1.00  0.00     0.164 HD
HETATM   23  C   UNL     1     -37.422 -59.863  19.843  1.00  0.00     0.046 A 
ENDBRANCH  14  17
ENDBRANCH   1  11
BRANCH   9  24
HETATM   24  C   UNL     1     -42.915 -52.737  12.723  1.00  0.00     0.086 C 
HETATM   25  C   UNL     1     -43.058 -51.230  12.954  1.00  0.00     0.025 C 
HETATM   26  C   UNL     1     -44.204 -50.882  13.899  1.00  0.00     0.002 C 
HETATM   27  C   UNL     1     -45.520 -51.505  13.439  1.00  0.00     0.000 C 
HETATM   28  C   UNL     1     -45.394 -53.013  13.253  1.00  0.00     0.002 C 
HETATM   29  C   UNL     1     -44.250 -53.372  12.305  1.00  0.00     0.025 C 
ENDBRANCH   9  24
TORSDOF 3
ENDMDL
MODEL 5
REMARK VINA RESULT:      -5.7      2.804      9.697
REMARK  3 active torsions:
REMARK  status: ('A' for Active; 'I' for Inactive)
REMARK       I    between atoms: C_2  and  N_3 
REMARK       I    between atoms: C_2  and  N_19 
REMARK    1  A    between atoms: N_3  and  C_4 
REMARK       I    between atoms: N_7  and  C_10 
REMARK       I    between atoms: C_10  and  N_12 
REMARK    2  A    between atoms: N_12  and  C_13 
REMARK    3  A    between atoms: N_19  and  C_20 
ROOT
HETATM    1  C   UNL     1     -42.759 -46.771  10.962  1.00  0.00     0.089 C 
HETATM    2  C   UNL     1     -43.457 -48.011  11.541  1.00  0.00     0.045 C 
HETATM    3  C   UNL     1     -42.599 -48.772  12.561  1.00  0.00     0.129 C 
HETATM    4  N   UNL     1     -41.228 -48.994  12.101  1.00  0.00    -0.334 N 
HETATM    5  C   UNL     1     -40.553 -47.826  11.541  1.00  0.00     0.129 C 
HETATM    6  C   UNL     1     -41.383 -47.197  10.433  1.00  0.00     0.045 C 
HETATM    7  C   UNL     1     -40.450 -50.120  12.314  1.00  0.00     0.318 C 
HETATM    8  O   UNL     1     -39.302 -50.222  11.886  1.00  0.00    -0.247 OA
HETATM    9  N   UNL     1     -41.040 -51.138  13.015  1.00  0.00    -0.338 N 
HETATM   10  H   UNL     1     -41.717 -50.860  13.706  1.00  0.00     0.164 HD
ENDROOT
BRANCH   1  11
HETATM   11  N   UNL     1     -42.688 -45.693  11.955  1.00  0.00    -0.338 N 
HETATM   12  C   UNL     1     -42.629 -44.368  11.552  1.00  0.00     0.321 C 
HETATM   13  O   UNL     1     -42.694 -44.027  10.379  1.00  0.00    -0.247 OA
HETATM   14  N   UNL     1     -42.411 -43.541  12.636  1.00  0.00    -0.309 N 
HETATM   15  H   UNL     1     -42.149 -44.017  13.486  1.00  0.00     0.170 HD
HETATM   16  H   UNL     1     -43.255 -45.816  12.783  1.00  0.00     0.164 HD
BRANCH  14  17
HETATM   17  C   UNL     1     -42.129 -42.158  12.570  1.00  0.00     0.038 A 
HETATM   18  C   UNL     1     -43.099 -41.168  12.700  1.00  0.00     0.046 A 
HETATM   19  C   UNL     1     -42.725 -39.847  12.509  1.00  0.00     0.090 A 
HETATM   20  N   UNL     1     -41.467 -39.455  12.223  1.00  0.00    -0.375 N 
HETATM   21  C   UNL     1     -40.538 -40.428  12.140  1.00  0.00     0.090 A 
ATOM     22  HN  UNL     1     -41.231 -38.473  12.078  1.00  0.00     0.164 HD
HETATM   23  C   UNL     1     -40.811 -41.775  12.318  1.00  0.00     0.046 A 
ENDBRANCH  14  17
ENDBRANCH   1  11
BRANCH   9  24
HETATM   24  C   UNL     1     -40.278 -52.354  13.302  1.00  0.00     0.086 C 
HETATM   25  C   UNL     1     -40.894 -53.570  12.605  1.00  0.00     0.025 C 
HETATM   26  C   UNL     1     -42.192 -54.034  13.260  1.00  0.00     0.002 C 
HETATM   27  C   UNL     1     -42.008 -54.280  14.756  1.00  0.00     0.000 C 
HETATM   28  C   UNL     1     -41.438 -53.056  15.462  1.00  0.00     0.002 C 
HETATM   29  C   UNL     1     -40.136 -52.585  14.814  1.00  0.00     0.025 C 
ENDBRANCH   9  24
TORSDOF 3
ENDMDL
MODEL 6
REMARK VINA RESULT:      -5.7      5.152      9.872
REMARK  3 active torsions:
REMARK  status: ('A' for Active; 'I' for Inactive)
REMARK       I    between atoms: C_2  and  N_3 
REMARK       I    between atoms: C_2  and  N_19 
REMARK    1  A    between atoms: N_3  and  C_4 
REMARK       I    between atoms: N_7  and  C_10 
REMARK       I    between atoms: C_10  and  N_12 
REMARK    2  A    between atoms: N_12  and  C_13 
REMARK    3  A    between atoms: N_19  and  C_20 
ROOT
HETATM    1  C   UNL     1     -38.875 -49.761  13.713  1.00  0.00     0.089 C 
HETATM    2  C   UNL     1     -40.314 -49.281  13.470  1.00  0.00     0.045 C 
HETATM    3  C   UNL     1     -41.376 -50.206  14.078  1.00  0.00     0.129 C 
HETATM    4  N   UNL     1     -41.139 -51.620  13.782  1.00  0.00    -0.334 N 
HETATM    5  C   UNL     1     -39.773 -52.090  14.001  1.00  0.00     0.129 C 
HETATM    6  C   UNL     1     -38.772 -51.222  13.255  1.00  0.00     0.045 C 
HETATM    7  C   UNL     1     -42.093 -52.585  13.508  1.00  0.00     0.318 C 
HETATM    8  O   UNL     1     -41.801 -53.754  13.266  1.00  0.00    -0.247 OA
HETATM    9  N   UNL     1     -43.395 -52.161  13.497  1.00  0.00    -0.338 N 
HETATM   10  H   UNL     1     -43.615 -51.403  14.122  1.00  0.00     0.164 HD
ENDROOT
BRANCH   1  11
HETATM   11  N   UNL     1     -38.482 -49.565  15.113  1.00  0.00    -0.338 N 
HETATM   12  C   UNL     1     -37.867 -48.389  15.514  1.00  0.00     0.321 C 
HETATM   13  O   UNL     1     -37.677 -47.448  14.757  1.00  0.00    -0.247 OA
HETATM   14  N   UNL     1     -37.448 -48.485  16.826  1.00  0.00    -0.309 N 
HETATM   15  H   UNL     1     -37.479 -49.416  17.214  1.00  0.00     0.170 HD
HETATM   16  H   UNL     1     -39.130 -49.913  15.807  1.00  0.00     0.164 HD
BRANCH  14  17
HETATM   17  C   UNL     1     -36.638 -47.543  17.500  1.00  0.00     0.038 A 
HETATM   18  C   UNL     1     -35.253 -47.648  17.595  1.00  0.00     0.046 A 
HETATM   19  C   UNL     1     -34.572 -46.726  18.373  1.00  0.00     0.090 A 
HETATM   20  N   UNL     1     -35.168 -45.712  19.033  1.00  0.00    -0.375 N 
HETATM   21  C   UNL     1     -36.504 -45.608  18.895  1.00  0.00     0.090 A 
ATOM     22  HN  UNL     1     -34.635 -45.058  19.606  1.00  0.00     0.164 HD
HETATM   23  C   UNL     1     -37.273 -46.477  18.137  1.00  0.00     0.046 A 
ENDBRANCH  14  17
ENDBRANCH   1  11
BRANCH   9  24
HETATM   24  C   UNL     1     -44.466 -53.124  13.238  1.00  0.00     0.086 C 
HETATM   25  C   UNL     1     -45.665 -52.449  12.566  1.00  0.00     0.025 C 
HETATM   26  C   UNL     1     -46.465 -51.572  13.526  1.00  0.00     0.002 C 
HETATM   27  C   UNL     1     -46.884 -52.344  14.774  1.00  0.00     0.000 C 
HETATM   28  C   UNL     1     -45.687 -52.979  15.472  1.00  0.00     0.002 C 
HETATM   29  C   UNL     1     -44.881 -53.862  14.520  1.00  0.00     0.025 C 
ENDBRANCH   9  24
TORSDOF 3
ENDMDL
MODEL 7
REMARK VINA RESULT:      -5.7      3.768      4.244
REMARK  3 active torsions:
REMARK  status: ('A' for Active; 'I' for Inactive)
REMARK       I    between atoms: C_2  and  N_3 
REMARK       I    between atoms: C_2  and  N_19 
REMARK    1  A    between atoms: N_3  and  C_4 
REMARK       I    between atoms: N_7  and  C_10 
REMARK       I    between atoms: C_10  and  N_12 
REMARK    2  A    between atoms: N_12  and  C_13 
REMARK    3  A    between atoms: N_19  and  C_20 
ROOT
HETATM    1  C   UNL     1     -38.297 -50.536  13.150  1.00  0.00     0.089 C 
HETATM    2  C   UNL     1     -37.906 -49.070  13.389  1.00  0.00     0.045 C 
HETATM    3  C   UNL     1     -39.098 -48.105  13.328  1.00  0.00     0.129 C 
HETATM    4  N   UNL     1     -39.958 -48.333  12.167  1.00  0.00    -0.334 N 
HETATM    5  C   UNL     1     -40.333 -49.724  11.922  1.00  0.00     0.129 C 
HETATM    6  C   UNL     1     -39.102 -50.613  11.846  1.00  0.00     0.045 C 
HETATM    7  C   UNL     1     -40.602 -47.372  11.406  1.00  0.00     0.318 C 
HETATM    8  O   UNL     1     -41.308 -47.656  10.440  1.00  0.00    -0.247 OA
HETATM    9  N   UNL     1     -40.392 -46.069  11.773  1.00  0.00    -0.338 N 
HETATM   10  H   UNL     1     -40.238 -45.909  12.755  1.00  0.00     0.164 HD
ENDROOT
BRANCH   1  11
HETATM   11  N   UNL     1     -39.014 -51.087  14.305  1.00  0.00    -0.338 N 
HETATM   12  C   UNL     1     -39.217 -52.454  14.421  1.00  0.00     0.321 C 
HETATM   13  O   UNL     1     -38.770 -53.262  13.621  1.00  0.00    -0.247 OA
HETATM   14  N   UNL     1     -40.042 -52.731  15.493  1.00  0.00    -0.309 N 
HETATM   15  H   UNL     1     -40.503 -51.927  15.893  1.00  0.00     0.170 HD
HETATM   16  H   UNL     1     -38.816 -50.653  15.196  1.00  0.00     0.164 HD
BRANCH  14  17
HETATM   17  C   UNL     1     -40.593 -53.996  15.800  1.00  0.00     0.038 A 
HETATM   18  C   UNL     1     -41.900 -54.361  15.488  1.00  0.00     0.046 A 
HETATM   19  C   UNL     1     -42.367 -55.587  15.934  1.00  0.00     0.090 A 
HETATM   20  N   UNL     1     -41.624 -56.465  16.639  1.00  0.00    -0.375 N 
HETATM   21  C   UNL     1     -40.351 -56.105  16.896  1.00  0.00     0.090 A 
ATOM     22  HN  UNL     1     -42.006 -57.355  16.960  1.00  0.00     0.164 HD
HETATM   23  C   UNL     1     -39.790 -54.905  16.490  1.00  0.00     0.046 A 
ENDBRANCH  14  17
ENDBRANCH   1  11
BRANCH   9  24
HETATM   24  C   UNL     1     -41.053 -44.994  11.034  1.00  0.00     0.086 C 
HETATM   25  C   UNL     1     -40.165 -43.750  10.955  1.00  0.00     0.025 C 
HETATM   26  C   UNL     1     -40.074 -43.001  12.282  1.00  0.00     0.002 C 
HETATM   27  C   UNL     1     -41.458 -42.666  12.832  1.00  0.00     0.000 C 
HETATM   28  C   UNL     1     -42.330 -43.910  12.957  1.00  0.00     0.002 C 
HETATM   29  C   UNL     1     -42.430 -44.665  11.632  1.00  0.00     0.025 C 
ENDBRANCH   9  24
TORSDOF 3
ENDMDL
MODEL 8
REMARK VINA RESULT:      -5.7      6.122     10.038
REMARK  3 active torsions:
REMARK  status: ('A' for Active; 'I' for Inactive)
REMARK       I    between atoms: C_2  and  N_3 
REMARK       I    between atoms: C_2  and  N_19 
REMARK    1  A    between atoms: N_3  and  C_4 
REMARK       I    between atoms: N_7  and  C_10 
REMARK       I    between atoms: C_10  and  N_12 
REMARK    2  A    between atoms: N_12  and  C_13 
REMARK    3  A    between atoms: N_19  and  C_20 
ROOT
HETATM    1  C   UNL     1     -38.905 -50.586  14.591  1.00  0.00     0.089 C 
HETATM    2  C   UNL     1     -40.319 -50.008  14.439  1.00  0.00     0.045 C 
HETATM    3  C   UNL     1     -41.428 -51.033  14.711  1.00  0.00     0.129 C 
HETATM    4  N   UNL     1     -41.207 -52.309  14.029  1.00  0.00    -0.334 N 
HETATM    5  C   UNL     1     -39.863 -52.868  14.159  1.00  0.00     0.129 C 
HETATM    6  C   UNL     1     -38.810 -51.857  13.736  1.00  0.00     0.045 C 
HETATM    7  C   UNL     1     -42.166 -53.122  13.451  1.00  0.00     0.318 C 
HETATM    8  O   UNL     1     -41.887 -54.182  12.893  1.00  0.00    -0.247 OA
HETATM    9  N   UNL     1     -43.458 -52.669  13.510  1.00  0.00    -0.338 N 
HETATM   10  H   UNL     1     -43.692 -52.116  14.317  1.00  0.00     0.164 HD
ENDROOT
BRANCH   1  11
HETATM   11  N   UNL     1     -38.576 -50.814  16.003  1.00  0.00    -0.338 N 
HETATM   12  C   UNL     1     -37.278 -50.645  16.460  1.00  0.00     0.321 C 
HETATM   13  O   UNL     1     -36.369 -50.248  15.745  1.00  0.00    -0.247 OA
HETATM   14  N   UNL     1     -37.168 -51.061  17.771  1.00  0.00    -0.309 N 
HETATM   15  H   UNL     1     -37.962 -51.577  18.120  1.00  0.00     0.170 HD
HETATM   16  H   UNL     1     -39.261 -50.495  16.674  1.00  0.00     0.164 HD
BRANCH  14  17
HETATM   17  C   UNL     1     -35.960 -51.190  18.494  1.00  0.00     0.038 A 
HETATM   18  C   UNL     1     -35.327 -50.126  19.130  1.00  0.00     0.046 A 
HETATM   19  C   UNL     1     -34.091 -50.346  19.715  1.00  0.00     0.090 A 
HETATM   20  N   UNL     1     -33.466 -51.542  19.727  1.00  0.00    -0.375 N 
HETATM   21  C   UNL     1     -34.116 -52.565  19.138  1.00  0.00     0.090 A 
ATOM     22  HN  UNL     1     -32.550 -51.665  20.159  1.00  0.00     0.164 HD
HETATM   23  C   UNL     1     -35.355 -52.447  18.529  1.00  0.00     0.046 A 
ENDBRANCH  14  17
ENDBRANCH   1  11
BRANCH   9  24
HETATM   24  C   UNL     1     -44.535 -53.480  12.941  1.00  0.00     0.086 C 
HETATM   25  C   UNL     1     -45.729 -52.611  12.541  1.00  0.00     0.025 C 
HETATM   26  C   UNL     1     -46.524 -52.107  13.743  1.00  0.00     0.002 C 
HETATM   27  C   UNL     1     -46.948 -53.255  14.656  1.00  0.00     0.000 C 
HETATM   28  C   UNL     1     -45.755 -54.096  15.094  1.00  0.00     0.002 C 
HETATM   29  C   UNL     1     -44.954 -54.608  13.897  1.00  0.00     0.025 C 
ENDBRANCH   9  24
TORSDOF 3
ENDMDL
MODEL 9
REMARK VINA RESULT:      -5.6      1.867      2.141
REMARK  3 active torsions:
REMARK  status: ('A' for Active; 'I' for Inactive)
REMARK       I    between atoms: C_2  and  N_3 
REMARK       I    between atoms: C_2  and  N_19 
REMARK    1  A    between atoms: N_3  and  C_4 
REMARK       I    between atoms: N_7  and  C_10 
REMARK       I    between atoms: C_10  and  N_12 
REMARK    2  A    between atoms: N_12  and  C_13 
REMARK    3  A    between atoms: N_19  and  C_20 
ROOT
HETATM    1  C   UNL     1     -39.828 -49.924  12.267  1.00  0.00     0.089 C 
HETATM    2  C   UNL     1     -39.214 -48.641  12.846  1.00  0.00     0.045 C 
HETATM    3  C   UNL     1     -40.209 -47.476  12.936  1.00  0.00     0.129 C 
HETATM    4  N   UNL     1     -40.982 -47.291  11.707  1.00  0.00    -0.334 N 
HETATM    5  C   UNL     1     -41.567 -48.504  11.140  1.00  0.00     0.129 C 
HETATM    6  C   UNL     1     -40.507 -49.574  10.936  1.00  0.00     0.045 C 
HETATM    7  C   UNL     1     -41.375 -46.089  11.143  1.00  0.00     0.318 C 
HETATM    8  O   UNL     1     -42.024 -46.027  10.101  1.00  0.00    -0.247 OA
HETATM    9  N   UNL     1     -40.978 -44.954  11.801  1.00  0.00    -0.338 N 
HETATM   10  H   UNL     1     -40.893 -45.034  12.801  1.00  0.00     0.164 HD
ENDROOT
BRANCH   1  11
HETATM   11  N   UNL     1     -40.736 -50.557  13.231  1.00  0.00    -0.338 N 
HETATM   12  C   UNL     1     -41.396 -51.733  12.909  1.00  0.00     0.321 C 
HETATM   13  O   UNL     1     -41.217 -52.328  11.856  1.00  0.00    -0.247 OA
HETATM   14  N   UNL     1     -42.308 -52.061  13.892  1.00  0.00    -0.309 N 
HETATM   15  H   UNL     1     -42.485 -51.332  14.567  1.00  0.00     0.170 HD
HETATM   16  H   UNL     1     -40.439 -50.537  14.197  1.00  0.00     0.164 HD
BRANCH  14  17
HETATM   17  C   UNL     1     -43.268 -53.095  13.809  1.00  0.00     0.038 A 
HETATM   18  C   UNL     1     -44.458 -52.985  13.096  1.00  0.00     0.046 A 
HETATM   19  C   UNL     1     -45.375 -54.021  13.175  1.00  0.00     0.090 A 
HETATM   20  N   UNL     1     -45.176 -55.149  13.888  1.00  0.00    -0.375 N 
HETATM   21  C   UNL     1     -44.001 -55.249  14.540  1.00  0.00     0.090 A 
ATOM     22  HN  UNL     1     -45.879 -55.886  13.932  1.00  0.00     0.164 HD
HETATM   23  C   UNL     1     -43.020 -54.270  14.520  1.00  0.00     0.046 A 
ENDBRANCH  14  17
ENDBRANCH   1  11
BRANCH   9  24
HETATM   24  C   UNL     1     -41.370 -43.643  11.283  1.00  0.00     0.086 C 
HETATM   25  C   UNL     1     -40.338 -42.573  11.648  1.00  0.00     0.025 C 
HETATM   26  C   UNL     1     -40.384 -42.185  13.123  1.00  0.00     0.002 C 
HETATM   27  C   UNL     1     -41.791 -41.774  13.551  1.00  0.00     0.000 C 
HETATM   28  C   UNL     1     -42.815 -42.857  13.231  1.00  0.00     0.002 C 
HETATM   29  C   UNL     1     -42.779 -43.251  11.755  1.00  0.00     0.025 C 
ENDBRANCH   9  24
TORSDOF 3
ENDMDL
