MODEL 1
REMARK VINA RESULT:      -5.6      0.000      0.000
REMARK  3 active torsions:
REMARK  status: ('A' for Active; 'I' for Inactive)
REMARK       I    between atoms: N_4  and  C_9 
REMARK       I    between atoms: C_9  and  N_11 
REMARK    1  A    between atoms: N_11  and  C_12 
REMARK    2  A    between atoms: C_12  and  C_13 
REMARK    3  A    between atoms: C_13  and  C_14 
ROOT
HETATM    1  C   UNL     1     -41.540 -50.733  14.471  1.00  0.00     0.041 C 
HETATM    2  C   UNL     1     -40.764 -51.235  13.256  1.00  0.00     0.136 C 
HETATM    3  C   UNL     1     -41.685 -51.735  12.127  1.00  0.00     0.159 C 
HETATM    4  N   UNL     1     -42.268 -53.038  12.461  1.00  0.00    -0.329 N 
HETATM    5  C   UNL     1     -41.260 -54.035  12.831  1.00  0.00     0.159 C 
HETATM    6  C   UNL     1     -40.375 -53.501  13.974  1.00  0.00     0.136 C 
HETATM    7  C   UNL     1     -39.231 -54.460  14.271  1.00  0.00     0.041 C 
HETATM    8  O   UNL     1     -39.792 -52.231  13.624  1.00  0.00    -0.378 OA
HETATM    9  C   UNL     1     -43.597 -53.314  12.710  1.00  0.00     0.318 C 
HETATM   10  O   UNL     1     -43.979 -54.385  13.168  1.00  0.00    -0.247 OA
HETATM   11  N   UNL     1     -44.472 -52.296  12.430  1.00  0.00    -0.343 N 
HETATM   12  H   UNL     1     -44.221 -51.709  11.654  1.00  0.00     0.164 HD
ENDROOT
BRANCH  11  13
HETATM   13  C   UNL     1     -45.895 -52.502  12.648  1.00  0.00     0.129 C 
BRANCH  13  14
HETATM   14  C   UNL     1     -46.514 -51.485  13.610  1.00  0.00     0.061 C 
BRANCH  14  15
HETATM   15  C   UNL     1     -46.566 -51.948  15.026  1.00  0.00    -0.023 A 
HETATM   16  C   UNL     1     -47.264 -51.355  16.103  1.00  0.00     0.115 A 
HETATM   17  N   UNL     1     -47.101 -52.017  17.251  1.00  0.00    -0.310 N 
HETATM   18  N   UNL     1     -46.305 -53.047  16.911  1.00  0.00    -0.308 N 
ATOM     19  HN  UNL     1     -47.488 -51.794  18.167  1.00  0.00     0.186 HD
HETATM   20  C   UNL     1     -45.896 -54.010  17.905  1.00  0.00     0.177 C 
HETATM   21  C   UNL     1     -45.964 -53.055  15.590  1.00  0.00     0.118 A 
ENDBRANCH  14  15
ENDBRANCH  13  14
ENDBRANCH  11  13
TORSDOF 3
ENDMDL
MODEL 2
REMARK VINA RESULT:      -5.2      3.172      6.503
REMARK  3 active torsions:
REMARK  status: ('A' for Active; 'I' for Inactive)
REMARK       I    between atoms: N_4  and  C_9 
REMARK       I    between atoms: C_9  and  N_11 
REMARK    1  A    between atoms: N_11  and  C_12 
REMARK    2  A    between atoms: C_12  and  C_13 
REMARK    3  A    between atoms: C_13  and  C_14 
ROOT
HETATM    1  C   UNL     1     -43.272 -50.727  14.904  1.00  0.00     0.041 C 
HETATM    2  C   UNL     1     -43.160 -52.065  15.631  1.00  0.00     0.136 C 
HETATM    3  C   UNL     1     -41.728 -52.633  15.615  1.00  0.00     0.159 C 
HETATM    4  N   UNL     1     -41.388 -53.170  14.294  1.00  0.00    -0.329 N 
HETATM    5  C   UNL     1     -42.371 -54.141  13.804  1.00  0.00     0.159 C 
HETATM    6  C   UNL     1     -43.783 -53.526  13.819  1.00  0.00     0.136 C 
HETATM    7  C   UNL     1     -44.834 -54.565  13.455  1.00  0.00     0.041 C 
HETATM    8  O   UNL     1     -44.112 -53.022  15.128  1.00  0.00    -0.378 OA
HETATM    9  C   UNL     1     -40.447 -52.676  13.413  1.00  0.00     0.318 C 
HETATM   10  O   UNL     1     -40.355 -53.063  12.253  1.00  0.00    -0.247 OA
HETATM   11  N   UNL     1     -39.626 -51.699  13.916  1.00  0.00    -0.343 N 
HETATM   12  H   UNL     1     -39.403 -51.780  14.892  1.00  0.00     0.164 HD
ENDROOT
BRANCH  11  13
HETATM   13  C   UNL     1     -38.595 -51.130  13.063  1.00  0.00     0.129 C 
BRANCH  13  14
HETATM   14  C   UNL     1     -38.618 -49.600  13.023  1.00  0.00     0.061 C 
BRANCH  14  15
HETATM   15  C   UNL     1     -39.622 -49.036  12.076  1.00  0.00    -0.023 A 
HETATM   16  C   UNL     1     -40.360 -49.727  11.087  1.00  0.00     0.115 A 
HETATM   17  N   UNL     1     -41.177 -48.926  10.400  1.00  0.00    -0.310 N 
HETATM   18  N   UNL     1     -40.975 -47.717  10.953  1.00  0.00    -0.308 N 
ATOM     19  HN  UNL     1     -41.805 -49.173   9.635  1.00  0.00     0.186 HD
HETATM   20  C   UNL     1     -41.695 -46.565  10.469  1.00  0.00     0.177 C 
HETATM   21  C   UNL     1     -40.060 -47.732  11.965  1.00  0.00     0.118 A 
ENDBRANCH  14  15
ENDBRANCH  13  14
ENDBRANCH  11  13
TORSDOF 3
ENDMDL
MODEL 3
REMARK VINA RESULT:      -5.1      2.242      3.883
REMARK  3 active torsions:
REMARK  status: ('A' for Active; 'I' for Inactive)
REMARK       I    between atoms: N_4  and  C_9 
REMARK       I    between atoms: C_9  and  N_11 
REMARK    1  A    between atoms: N_11  and  C_12 
REMARK    2  A    between atoms: C_12  and  C_13 
REMARK    3  A    between atoms: C_13  and  C_14 
ROOT
HETATM    1  C   UNL     1     -42.210 -49.427  14.475  1.00  0.00     0.041 C 
HETATM    2  C   UNL     1     -41.625 -48.946  13.149  1.00  0.00     0.136 C 
HETATM    3  C   UNL     1     -41.455 -50.086  12.126  1.00  0.00     0.159 C 
HETATM    4  N   UNL     1     -40.316 -50.941  12.472  1.00  0.00    -0.329 N 
HETATM    5  C   UNL     1     -39.076 -50.185  12.665  1.00  0.00     0.159 C 
HETATM    6  C   UNL     1     -39.285 -49.071  13.708  1.00  0.00     0.136 C 
HETATM    7  C   UNL     1     -38.053 -48.183  13.812  1.00  0.00     0.041 C 
HETATM    8  O   UNL     1     -40.394 -48.226  13.344  1.00  0.00    -0.378 OA
HETATM    9  C   UNL     1     -40.360 -52.259  12.876  1.00  0.00     0.318 C 
HETATM   10  O   UNL     1     -39.385 -52.848  13.332  1.00  0.00    -0.247 OA
HETATM   11  N   UNL     1     -41.581 -52.872  12.757  1.00  0.00    -0.343 N 
HETATM   12  H   UNL     1     -42.145 -52.568  11.983  1.00  0.00     0.164 HD
ENDROOT
BRANCH  11  13
HETATM   13  C   UNL     1     -41.718 -54.266  13.146  1.00  0.00     0.129 C 
BRANCH  13  14
HETATM   14  C   UNL     1     -42.648 -54.472  14.345  1.00  0.00     0.061 C 
BRANCH  14  15
HETATM   15  C   UNL     1     -44.008 -53.891  14.160  1.00  0.00    -0.023 A 
HETATM   16  C   UNL     1     -45.113 -54.472  13.496  1.00  0.00     0.115 A 
HETATM   17  N   UNL     1     -46.191 -53.685  13.503  1.00  0.00    -0.310 N 
HETATM   18  N   UNL     1     -45.785 -52.598  14.183  1.00  0.00    -0.308 N 
ATOM     19  HN  UNL     1     -47.106 -53.866  13.089  1.00  0.00     0.186 HD
HETATM   20  C   UNL     1     -46.692 -51.498  14.405  1.00  0.00     0.177 C 
HETATM   21  C   UNL     1     -44.490 -52.676  14.604  1.00  0.00     0.118 A 
ENDBRANCH  14  15
ENDBRANCH  13  14
ENDBRANCH  11  13
TORSDOF 3
ENDMDL
MODEL 4
REMARK VINA RESULT:      -5.0      2.518      6.655
REMARK  3 active torsions:
REMARK  status: ('A' for Active; 'I' for Inactive)
REMARK       I    between atoms: N_4  and  C_9 
REMARK       I    between atoms: C_9  and  N_11 
REMARK    1  A    between atoms: N_11  and  C_12 
REMARK    2  A    between atoms: C_12  and  C_13 
REMARK    3  A    between atoms: C_13  and  C_14 
ROOT
HETATM    1  C   UNL     1     -43.943 -52.703  16.142  1.00  0.00     0.041 C 
HETATM    2  C   UNL     1     -44.725 -53.741  15.342  1.00  0.00     0.136 C 
HETATM    3  C   UNL     1     -43.813 -54.653  14.499  1.00  0.00     0.159 C 
HETATM    4  N   UNL     1     -43.294 -53.942  13.326  1.00  0.00    -0.329 N 
HETATM    5  C   UNL     1     -44.352 -53.326  12.521  1.00  0.00     0.159 C 
HETATM    6  C   UNL     1     -45.226 -52.410  13.397  1.00  0.00     0.136 C 
HETATM    7  C   UNL     1     -46.417 -51.879  12.612  1.00  0.00     0.041 C 
HETATM    8  O   UNL     1     -45.746 -53.127  14.534  1.00  0.00    -0.378 OA
HETATM    9  C   UNL     1     -41.983 -53.590  13.082  1.00  0.00     0.318 C 
HETATM   10  O   UNL     1     -41.656 -52.832  12.175  1.00  0.00    -0.247 OA
HETATM   11  N   UNL     1     -41.058 -54.129  13.939  1.00  0.00    -0.343 N 
HETATM   12  H   UNL     1     -41.272 -55.047  14.287  1.00  0.00     0.164 HD
ENDROOT
BRANCH  11  13
HETATM   13  C   UNL     1     -39.649 -53.823  13.749  1.00  0.00     0.129 C 
BRANCH  13  14
HETATM   14  C   UNL     1     -39.164 -52.646  14.599  1.00  0.00     0.061 C 
BRANCH  14  15
HETATM   15  C   UNL     1     -38.854 -51.420  13.811  1.00  0.00    -0.023 A 
HETATM   16  C   UNL     1     -37.671 -51.129  13.094  1.00  0.00     0.115 A 
HETATM   17  N   UNL     1     -37.709 -49.937  12.495  1.00  0.00    -0.310 N 
HETATM   18  N   UNL     1     -38.925 -49.461  12.816  1.00  0.00    -0.308 N 
ATOM     19  HN  UNL     1     -36.987 -49.493  11.929  1.00  0.00     0.186 HD
HETATM   20  C   UNL     1     -39.348 -48.166  12.342  1.00  0.00     0.177 C 
HETATM   21  C   UNL     1     -39.652 -50.314  13.595  1.00  0.00     0.118 A 
ENDBRANCH  14  15
ENDBRANCH  13  14
ENDBRANCH  11  13
TORSDOF 3
ENDMDL
MODEL 5
REMARK VINA RESULT:      -5.0      3.189      6.075
REMARK  3 active torsions:
REMARK  status: ('A' for Active; 'I' for Inactive)
REMARK       I    between atoms: N_4  and  C_9 
REMARK       I    between atoms: C_9  and  N_11 
REMARK    1  A    between atoms: N_11  and  C_12 
REMARK    2  A    between atoms: C_12  and  C_13 
REMARK    3  A    between atoms: C_13  and  C_14 
ROOT
HETATM    1  C   UNL     1     -44.280 -50.770  14.779  1.00  0.00     0.041 C 
HETATM    2  C   UNL     1     -43.723 -52.003  15.486  1.00  0.00     0.136 C 
HETATM    3  C   UNL     1     -42.225 -52.226  15.200  1.00  0.00     0.159 C 
HETATM    4  N   UNL     1     -42.019 -52.745  13.844  1.00  0.00    -0.329 N 
HETATM    5  C   UNL     1     -42.817 -53.941  13.565  1.00  0.00     0.159 C 
HETATM    6  C   UNL     1     -44.306 -53.668  13.846  1.00  0.00     0.136 C 
HETATM    7  C   UNL     1     -45.130 -54.940  13.704  1.00  0.00     0.041 C 
HETATM    8  O   UNL     1     -44.497 -53.179  15.188  1.00  0.00    -0.378 OA
HETATM    9  C   UNL     1     -41.401 -52.099  12.793  1.00  0.00     0.318 C 
HETATM   10  O   UNL     1     -41.437 -52.519  11.641  1.00  0.00    -0.247 OA
HETATM   11  N   UNL     1     -40.756 -50.932  13.115  1.00  0.00    -0.343 N 
HETATM   12  H   UNL     1     -40.343 -50.903  14.031  1.00  0.00     0.164 HD
ENDROOT
BRANCH  11  13
HETATM   13  C   UNL     1     -40.066 -50.190  12.073  1.00  0.00     0.129 C 
BRANCH  13  14
HETATM   14  C   UNL     1     -40.367 -48.690  12.096  1.00  0.00     0.061 C 
BRANCH  14  15
HETATM   15  C   UNL     1     -41.620 -48.315  11.381  1.00  0.00    -0.023 A 
HETATM   16  C   UNL     1     -42.950 -48.617  11.753  1.00  0.00     0.115 A 
HETATM   17  N   UNL     1     -43.849 -48.137  10.891  1.00  0.00    -0.310 N 
HETATM   18  N   UNL     1     -43.099 -47.514   9.965  1.00  0.00    -0.308 N 
ATOM     19  HN  UNL     1     -44.865 -48.224  10.926  1.00  0.00     0.186 HD
HETATM   20  C   UNL     1     -43.724 -46.855   8.845  1.00  0.00     0.177 C 
HETATM   21  C   UNL     1     -41.760 -47.584  10.218  1.00  0.00     0.118 A 
ENDBRANCH  14  15
ENDBRANCH  13  14
ENDBRANCH  11  13
TORSDOF 3
ENDMDL
MODEL 6
REMARK VINA RESULT:      -4.9      3.606      5.245
REMARK  3 active torsions:
REMARK  status: ('A' for Active; 'I' for Inactive)
REMARK       I    between atoms: N_4  and  C_9 
REMARK       I    between atoms: C_9  and  N_11 
REMARK    1  A    between atoms: N_11  and  C_12 
REMARK    2  A    between atoms: C_12  and  C_13 
REMARK    3  A    between atoms: C_13  and  C_14 
ROOT
HETATM    1  C   UNL     1     -42.730 -47.591  14.086  1.00  0.00     0.041 C 
HETATM    2  C   UNL     1     -43.040 -46.988  12.718  1.00  0.00     0.136 C 
HETATM    3  C   UNL     1     -43.048 -48.040  11.593  1.00  0.00     0.159 C 
HETATM    4  N   UNL     1     -41.686 -48.458  11.250  1.00  0.00    -0.329 N 
HETATM    5  C   UNL     1     -40.806 -47.328  10.940  1.00  0.00     0.159 C 
HETATM    6  C   UNL     1     -40.812 -46.312  12.098  1.00  0.00     0.136 C 
HETATM    7  C   UNL     1     -40.022 -45.064  11.732  1.00  0.00     0.041 C 
HETATM    8  O   UNL     1     -42.156 -45.894  12.410  1.00  0.00    -0.378 OA
HETATM    9  C   UNL     1     -41.124 -49.702  11.448  1.00  0.00     0.318 C 
HETATM   10  O   UNL     1     -39.924 -49.919  11.312  1.00  0.00    -0.247 OA
HETATM   11  N   UNL     1     -41.996 -50.688  11.832  1.00  0.00    -0.343 N 
HETATM   12  H   UNL     1     -42.926 -50.614  11.459  1.00  0.00     0.164 HD
ENDROOT
BRANCH  11  13
HETATM   13  C   UNL     1     -41.494 -52.035  12.050  1.00  0.00     0.129 C 
BRANCH  13  14
HETATM   14  C   UNL     1     -41.735 -52.548  13.472  1.00  0.00     0.061 C 
BRANCH  14  15
HETATM   15  C   UNL     1     -43.085 -53.146  13.677  1.00  0.00    -0.023 A 
HETATM   16  C   UNL     1     -43.901 -53.786  12.716  1.00  0.00     0.115 A 
HETATM   17  N   UNL     1     -45.060 -54.210  13.224  1.00  0.00    -0.310 N 
HETATM   18  N   UNL     1     -44.989 -53.853  14.519  1.00  0.00    -0.308 N 
ATOM     19  HN  UNL     1     -45.821 -54.690  12.743  1.00  0.00     0.186 HD
HETATM   20  C   UNL     1     -46.079 -54.147  15.416  1.00  0.00     0.177 C 
HETATM   21  C   UNL     1     -43.823 -53.221  14.841  1.00  0.00     0.118 A 
ENDBRANCH  14  15
ENDBRANCH  13  14
ENDBRANCH  11  13
TORSDOF 3
ENDMDL
MODEL 7
REMARK VINA RESULT:      -4.9      3.397      6.622
REMARK  3 active torsions:
REMARK  status: ('A' for Active; 'I' for Inactive)
REMARK       I    between atoms: N_4  and  C_9 
REMARK       I    between atoms: C_9  and  N_11 
REMARK    1  A    between atoms: N_11  and  C_12 
REMARK    2  A    between atoms: C_12  and  C_13 
REMARK    3  A    between atoms: C_13  and  C_14 
ROOT
HETATM    1  C   UNL     1     -40.266 -53.331  14.981  1.00  0.00     0.041 C 
HETATM    2  C   UNL     1     -41.005 -54.224  13.988  1.00  0.00     0.136 C 
HETATM    3  C   UNL     1     -40.907 -53.710  12.539  1.00  0.00     0.159 C 
HETATM    4  N   UNL     1     -41.768 -52.541  12.334  1.00  0.00    -0.329 N 
HETATM    5  C   UNL     1     -43.156 -52.779  12.741  1.00  0.00     0.159 C 
HETATM    6  C   UNL     1     -43.208 -53.272  14.199  1.00  0.00     0.136 C 
HETATM    7  C   UNL     1     -44.625 -53.665  14.591  1.00  0.00     0.041 C 
HETATM    8  O   UNL     1     -42.374 -54.433  14.381  1.00  0.00    -0.378 OA
HETATM    9  C   UNL     1     -41.365 -51.248  12.074  1.00  0.00     0.318 C 
HETATM   10  O   UNL     1     -42.133 -50.292  12.106  1.00  0.00    -0.247 OA
HETATM   11  N   UNL     1     -40.031 -51.091  11.797  1.00  0.00    -0.343 N 
HETATM   12  H   UNL     1     -39.595 -51.856  11.313  1.00  0.00     0.164 HD
ENDROOT
BRANCH  11  13
HETATM   13  C   UNL     1     -39.519 -49.764  11.498  1.00  0.00     0.129 C 
BRANCH  13  14
HETATM   14  C   UNL     1     -38.029 -49.603  11.813  1.00  0.00     0.061 C 
BRANCH  14  15
HETATM   15  C   UNL     1     -37.732 -49.464  13.267  1.00  0.00    -0.023 A 
HETATM   16  C   UNL     1     -37.673 -48.272  14.026  1.00  0.00     0.115 A 
HETATM   17  N   UNL     1     -37.377 -48.492  15.309  1.00  0.00    -0.310 N 
HETATM   18  N   UNL     1     -37.256 -49.830  15.382  1.00  0.00    -0.308 N 
ATOM     19  HN  UNL     1     -37.267 -47.807  16.057  1.00  0.00     0.186 HD
HETATM   20  C   UNL     1     -36.934 -50.464  16.636  1.00  0.00     0.177 C 
HETATM   21  C   UNL     1     -37.467 -50.457  14.188  1.00  0.00     0.118 A 
ENDBRANCH  14  15
ENDBRANCH  13  14
ENDBRANCH  11  13
TORSDOF 3
ENDMDL
MODEL 8
REMARK VINA RESULT:      -4.9      4.629      5.804
REMARK  3 active torsions:
REMARK  status: ('A' for Active; 'I' for Inactive)
REMARK       I    between atoms: N_4  and  C_9 
REMARK       I    between atoms: C_9  and  N_11 
REMARK    1  A    between atoms: N_11  and  C_12 
REMARK    2  A    between atoms: C_12  and  C_13 
REMARK    3  A    between atoms: C_13  and  C_14 
ROOT
HETATM    1  C   UNL     1     -39.365 -46.510  13.677  1.00  0.00     0.041 C 
HETATM    2  C   UNL     1     -40.245 -45.363  13.186  1.00  0.00     0.136 C 
HETATM    3  C   UNL     1     -41.710 -45.788  12.970  1.00  0.00     0.159 C 
HETATM    4  N   UNL     1     -41.853 -46.595  11.755  1.00  0.00    -0.329 N 
HETATM    5  C   UNL     1     -41.288 -45.944  10.570  1.00  0.00     0.159 C 
HETATM    6  C   UNL     1     -39.820 -45.554  10.822  1.00  0.00     0.136 C 
HETATM    7  C   UNL     1     -39.263 -44.745   9.659  1.00  0.00     0.041 C 
HETATM    8  O   UNL     1     -39.697 -44.743  12.007  1.00  0.00    -0.378 OA
HETATM    9  C   UNL     1     -42.192 -47.930  11.680  1.00  0.00     0.318 C 
HETATM   10  O   UNL     1     -42.104 -48.582  10.645  1.00  0.00    -0.247 OA
HETATM   11  N   UNL     1     -42.619 -48.496  12.854  1.00  0.00    -0.343 N 
HETATM   12  H   UNL     1     -43.126 -47.886  13.471  1.00  0.00     0.164 HD
ENDROOT
BRANCH  11  13
HETATM   13  C   UNL     1     -43.011 -49.896  12.867  1.00  0.00     0.129 C 
BRANCH  13  14
HETATM   14  C   UNL     1     -43.991 -50.242  13.991  1.00  0.00     0.061 C 
BRANCH  14  15
HETATM   15  C   UNL     1     -44.748 -51.506  13.765  1.00  0.00    -0.023 A 
HETATM   16  C   UNL     1     -46.049 -51.650  13.231  1.00  0.00     0.115 A 
HETATM   17  N   UNL     1     -46.440 -52.924  13.163  1.00  0.00    -0.310 N 
HETATM   18  N   UNL     1     -45.385 -53.606  13.643  1.00  0.00    -0.308 N 
ATOM     19  HN  UNL     1     -47.330 -53.292  12.826  1.00  0.00     0.186 HD
HETATM   20  C   UNL     1     -45.427 -55.045  13.730  1.00  0.00     0.177 C 
HETATM   21  C   UNL     1     -44.344 -52.803  14.009  1.00  0.00     0.118 A 
ENDBRANCH  14  15
ENDBRANCH  13  14
ENDBRANCH  11  13
TORSDOF 3
ENDMDL
MODEL 9
REMARK VINA RESULT:      -4.8      4.156      5.250
REMARK  3 active torsions:
REMARK  status: ('A' for Active; 'I' for Inactive)
REMARK       I    between atoms: N_4  and  C_9 
REMARK       I    between atoms: C_9  and  N_11 
REMARK    1  A    between atoms: N_11  and  C_12 
REMARK    2  A    between atoms: C_12  and  C_13 
REMARK    3  A    between atoms: C_13  and  C_14 
ROOT
HETATM    1  C   UNL     1     -44.425 -47.456   9.890  1.00  0.00     0.041 C 
HETATM    2  C   UNL     1     -42.939 -47.199   9.651  1.00  0.00     0.136 C 
HETATM    3  C   UNL     1     -42.038 -48.251  10.325  1.00  0.00     0.159 C 
HETATM    4  N   UNL     1     -41.978 -48.044  11.775  1.00  0.00    -0.329 N 
HETATM    5  C   UNL     1     -41.595 -46.677  12.139  1.00  0.00     0.159 C 
HETATM    6  C   UNL     1     -42.533 -45.661  11.459  1.00  0.00     0.136 C 
HETATM    7  C   UNL     1     -42.061 -44.235  11.706  1.00  0.00     0.041 C 
HETATM    8  O   UNL     1     -42.566 -45.862  10.033  1.00  0.00    -0.378 OA
HETATM    9  C   UNL     1     -42.481 -48.875  12.755  1.00  0.00     0.318 C 
HETATM   10  O   UNL     1     -42.562 -48.542  13.932  1.00  0.00    -0.247 OA
HETATM   11  N   UNL     1     -42.911 -50.103  12.322  1.00  0.00    -0.343 N 
HETATM   12  H   UNL     1     -42.400 -50.494  11.549  1.00  0.00     0.164 HD
ENDROOT
BRANCH  11  13
HETATM   13  C   UNL     1     -43.444 -51.050  13.287  1.00  0.00     0.129 C 
BRANCH  13  14
HETATM   14  C   UNL     1     -44.971 -51.158  13.252  1.00  0.00     0.061 C 
BRANCH  14  15
HETATM   15  C   UNL     1     -45.605 -51.177  14.601  1.00  0.00    -0.023 A 
HETATM   16  C   UNL     1     -46.924 -51.566  14.929  1.00  0.00     0.115 A 
HETATM   17  N   UNL     1     -47.183 -51.462  16.234  1.00  0.00    -0.310 N 
HETATM   18  N   UNL     1     -46.024 -51.016  16.752  1.00  0.00    -0.308 N 
ATOM     19  HN  UNL     1     -48.053 -51.671  16.723  1.00  0.00     0.186 HD
HETATM   20  C   UNL     1     -45.905 -50.776  18.169  1.00  0.00     0.177 C 
HETATM   21  C   UNL     1     -45.047 -50.838  15.817  1.00  0.00     0.118 A 
ENDBRANCH  14  15
ENDBRANCH  13  14
ENDBRANCH  11  13
TORSDOF 3
ENDMDL
