MODEL 1
REMARK VINA RESULT:      -6.0      0.000      0.000
REMARK  2 active torsions:
REMARK  status: ('A' for Active; 'I' for Inactive)
REMARK       I    between atoms: C_2  and  N_3 
REMARK       I    between atoms: C_2  and  N_13 
REMARK    1  A    between atoms: N_3  and  C_4 
REMARK    2  A    between atoms: N_13  and  C_14 
ROOT
HETATM    1  O   UNL     1     -42.744 -49.007  13.700  1.00  0.00    -0.247 OA
HETATM    2  C   UNL     1     -43.299 -49.311  12.653  1.00  0.00     0.321 C 
HETATM    3  N   UNL     1     -44.195 -50.354  12.577  1.00  0.00    -0.336 N 
HETATM    4  N   UNL     1     -43.160 -48.664  11.447  1.00  0.00    -0.308 N 
HETATM    5  H   UNL     1     -44.252 -50.824  11.685  1.00  0.00     0.164 HD
HETATM    6  H   UNL     1     -43.897 -48.827  10.775  1.00  0.00     0.170 HD
ENDROOT
BRANCH   3   7
HETATM    7  C   UNL     1     -44.449 -51.161  13.766  1.00  0.00     0.121 C 
HETATM    8  C   UNL     1     -45.948 -51.391  13.996  1.00  0.00     0.057 C 
HETATM    9  C   UNL     1     -46.089 -52.868  14.373  1.00  0.00     0.275 C 
HETATM   10  N   UNL     1     -44.724 -53.299  14.646  1.00  0.00     0.095 N 
HETATM   11  C   UNL     1     -44.508 -54.739  14.590  1.00  0.00     0.273 C 
HETATM   12  C   UNL     1     -43.883 -52.583  13.677  1.00  0.00     0.245 C 
HETATM   13  C   UNL     1     -43.039 -55.055  14.908  1.00  0.00     0.030 C 
HETATM   14  C   UNL     1     -42.069 -54.253  14.036  1.00  0.00     0.004 C 
HETATM   15  C   UNL     1     -42.414 -52.760  14.049  1.00  0.00     0.038 C 
ENDBRANCH   3   7
BRANCH   4  16
HETATM   16  C   UNL     1     -42.299 -47.568  11.207  1.00  0.00     0.051 A 
HETATM   17  C   UNL     1     -42.721 -46.240  11.222  1.00  0.00     0.032 A 
HETATM   18  C   UNL     1     -41.825 -45.218  10.918  1.00  0.00     0.019 A 
HETATM   19  C   UNL     1     -40.515 -45.555  10.627  1.00  0.00     0.088 A 
HETATM   20  N   UNL     1     -40.050 -46.823  10.641  1.00  0.00    -0.373 N 
HETATM   21  C   UNL     1     -40.951 -47.794  10.932  1.00  0.00     0.117 A 
ATOM     22  HN  UNL     1     -39.073 -47.038  10.443  1.00  0.00     0.164 HD
ENDBRANCH   4  16
TORSDOF 2
ENDMDL
MODEL 2
REMARK VINA RESULT:      -6.0      2.496      3.742
REMARK  2 active torsions:
REMARK  status: ('A' for Active; 'I' for Inactive)
REMARK       I    between atoms: C_2  and  N_3 
REMARK       I    between atoms: C_2  and  N_13 
REMARK    1  A    between atoms: N_3  and  C_4 
REMARK    2  A    between atoms: N_13  and  C_14 
ROOT
HETATM    1  O   UNL     1     -42.203 -51.889  13.639  1.00  0.00    -0.247 OA
HETATM    2  C   UNL     1     -42.201 -52.188  12.454  1.00  0.00     0.321 C 
HETATM    3  N   UNL     1     -43.104 -53.084  11.924  1.00  0.00    -0.336 N 
HETATM    4  N   UNL     1     -41.365 -51.671  11.491  1.00  0.00    -0.308 N 
HETATM    5  H   UNL     1     -42.786 -53.610  11.123  1.00  0.00     0.164 HD
HETATM    6  H   UNL     1     -41.681 -51.773  10.536  1.00  0.00     0.170 HD
ENDROOT
BRANCH   3   7
HETATM    7  C   UNL     1     -44.056 -53.742  12.812  1.00  0.00     0.121 C 
HETATM    8  C   UNL     1     -43.358 -54.655  13.829  1.00  0.00     0.057 C 
HETATM    9  C   UNL     1     -44.050 -54.391  15.169  1.00  0.00     0.275 C 
HETATM   10  N   UNL     1     -45.245 -53.638  14.812  1.00  0.00     0.095 N 
HETATM   11  C   UNL     1     -45.845 -52.878  15.901  1.00  0.00     0.273 C 
HETATM   12  C   UNL     1     -44.846 -52.769  13.696  1.00  0.00     0.245 C 
HETATM   13  C   UNL     1     -47.097 -52.147  15.395  1.00  0.00     0.030 C 
HETATM   14  C   UNL     1     -46.815 -51.310  14.143  1.00  0.00     0.004 C 
HETATM   15  C   UNL     1     -46.086 -52.133  13.077  1.00  0.00     0.038 C 
ENDBRANCH   3   7
BRANCH   4  16
HETATM   16  C   UNL     1     -40.325 -50.744  11.730  1.00  0.00     0.051 A 
HETATM   17  C   UNL     1     -39.187 -51.039  12.478  1.00  0.00     0.032 A 
HETATM   18  C   UNL     1     -38.233 -50.054  12.719  1.00  0.00     0.019 A 
HETATM   19  C   UNL     1     -38.436 -48.795  12.182  1.00  0.00     0.088 A 
HETATM   20  N   UNL     1     -39.501 -48.473  11.417  1.00  0.00    -0.373 N 
HETATM   21  C   UNL     1     -40.415 -49.454  11.209  1.00  0.00     0.117 A 
ATOM     22  HN  UNL     1     -39.612 -47.542  11.016  1.00  0.00     0.164 HD
ENDBRANCH   4  16
TORSDOF 2
ENDMDL
MODEL 3
REMARK VINA RESULT:      -5.9      1.526      7.634
REMARK  2 active torsions:
REMARK  status: ('A' for Active; 'I' for Inactive)
REMARK       I    between atoms: C_2  and  N_3 
REMARK       I    between atoms: C_2  and  N_13 
REMARK    1  A    between atoms: N_3  and  C_4 
REMARK    2  A    between atoms: N_13  and  C_14 
ROOT
HETATM    1  O   UNL     1     -42.919 -50.742  13.995  1.00  0.00    -0.247 OA
HETATM    2  C   UNL     1     -42.803 -51.104  12.833  1.00  0.00     0.321 C 
HETATM    3  N   UNL     1     -42.043 -50.403  11.921  1.00  0.00    -0.336 N 
HETATM    4  N   UNL     1     -43.349 -52.239  12.281  1.00  0.00    -0.308 N 
HETATM    5  H   UNL     1     -42.340 -50.466  10.959  1.00  0.00     0.164 HD
HETATM    6  H   UNL     1     -42.919 -52.561  11.424  1.00  0.00     0.170 HD
ENDROOT
BRANCH   3   7
HETATM    7  C   UNL     1     -41.404 -49.159  12.337  1.00  0.00     0.121 C 
HETATM    8  C   UNL     1     -39.882 -49.308  12.461  1.00  0.00     0.057 C 
HETATM    9  C   UNL     1     -39.288 -48.052  11.819  1.00  0.00     0.275 C 
HETATM   10  N   UNL     1     -40.426 -47.155  11.668  1.00  0.00     0.095 N 
HETATM   11  C   UNL     1     -40.245 -46.086  10.694  1.00  0.00     0.273 C 
HETATM   12  C   UNL     1     -41.566 -48.016  11.327  1.00  0.00     0.245 C 
HETATM   13  C   UNL     1     -41.507 -45.212  10.645  1.00  0.00     0.030 C 
HETATM   14  C   UNL     1     -42.779 -46.036  10.425  1.00  0.00     0.004 C 
HETATM   15  C   UNL     1     -42.857 -47.209  11.408  1.00  0.00     0.038 C 
ENDBRANCH   3   7
BRANCH   4  16
HETATM   16  C   UNL     1     -44.189 -53.150  12.962  1.00  0.00     0.051 A 
HETATM   17  C   UNL     1     -43.718 -54.267  13.650  1.00  0.00     0.032 A 
HETATM   18  C   UNL     1     -44.614 -55.150  14.247  1.00  0.00     0.019 A 
HETATM   19  C   UNL     1     -45.967 -54.878  14.156  1.00  0.00     0.088 A 
HETATM   20  N   UNL     1     -46.469 -53.789  13.536  1.00  0.00    -0.373 N 
HETATM   21  C   UNL     1     -45.569 -52.953  12.958  1.00  0.00     0.117 A 
ATOM     22  HN  UNL     1     -47.471 -53.603  13.504  1.00  0.00     0.164 HD
ENDBRANCH   4  16
TORSDOF 2
ENDMDL
MODEL 4
REMARK VINA RESULT:      -5.8      2.819      6.989
REMARK  2 active torsions:
REMARK  status: ('A' for Active; 'I' for Inactive)
REMARK       I    between atoms: C_2  and  N_3 
REMARK       I    between atoms: C_2  and  N_13 
REMARK    1  A    between atoms: N_3  and  C_4 
REMARK    2  A    between atoms: N_13  and  C_14 
ROOT
HETATM    1  O   UNL     1     -41.910 -50.885  13.203  1.00  0.00    -0.247 OA
HETATM    2  C   UNL     1     -41.825 -51.502  12.151  1.00  0.00     0.321 C 
HETATM    3  N   UNL     1     -40.973 -51.112  11.141  1.00  0.00    -0.336 N 
HETATM    4  N   UNL     1     -42.501 -52.658  11.835  1.00  0.00    -0.308 N 
HETATM    5  H   UNL     1     -41.263 -51.347  10.203  1.00  0.00     0.164 HD
HETATM    6  H   UNL     1     -42.103 -53.207  11.085  1.00  0.00     0.170 HD
ENDROOT
BRANCH   3   7
HETATM    7  C   UNL     1     -40.190 -49.892  11.305  1.00  0.00     0.121 C 
HETATM    8  C   UNL     1     -41.068 -48.635  11.272  1.00  0.00     0.057 C 
HETATM    9  C   UNL     1     -40.558 -47.741  12.406  1.00  0.00     0.275 C 
HETATM   10  N   UNL     1     -39.288 -48.342  12.791  1.00  0.00     0.095 N 
HETATM   11  C   UNL     1     -38.808 -47.976  14.117  1.00  0.00     0.273 C 
HETATM   12  C   UNL     1     -39.482 -49.793  12.662  1.00  0.00     0.245 C 
HETATM   13  C   UNL     1     -37.462 -48.664  14.389  1.00  0.00     0.030 C 
HETATM   14  C   UNL     1     -37.522 -50.176  14.152  1.00  0.00     0.004 C 
HETATM   15  C   UNL     1     -38.136 -50.500  12.786  1.00  0.00     0.038 C 
ENDBRANCH   3   7
BRANCH   4  16
HETATM   16  C   UNL     1     -43.456 -53.293  12.662  1.00  0.00     0.051 A 
HETATM   17  C   UNL     1     -43.123 -54.187  13.677  1.00  0.00     0.032 A 
HETATM   18  C   UNL     1     -44.124 -54.817  14.411  1.00  0.00     0.019 A 
HETATM   19  C   UNL     1     -45.443 -54.516  14.120  1.00  0.00     0.088 A 
HETATM   20  N   UNL     1     -45.814 -53.626  13.175  1.00  0.00    -0.373 N 
HETATM   21  C   UNL     1     -44.813 -53.037  12.473  1.00  0.00     0.117 A 
ATOM     22  HN  UNL     1     -46.794 -53.408  12.998  1.00  0.00     0.164 HD
ENDBRANCH   4  16
TORSDOF 2
ENDMDL
MODEL 5
REMARK VINA RESULT:      -5.7      1.997      3.130
REMARK  2 active torsions:
REMARK  status: ('A' for Active; 'I' for Inactive)
REMARK       I    between atoms: C_2  and  N_3 
REMARK       I    between atoms: C_2  and  N_13 
REMARK    1  A    between atoms: N_3  and  C_4 
REMARK    2  A    between atoms: N_13  and  C_14 
ROOT
HETATM    1  O   UNL     1     -41.519 -51.064  13.039  1.00  0.00    -0.247 OA
HETATM    2  C   UNL     1     -41.133 -51.355  11.915  1.00  0.00     0.321 C 
HETATM    3  N   UNL     1     -41.060 -52.660  11.481  1.00  0.00    -0.336 N 
HETATM    4  N   UNL     1     -40.768 -50.466  10.930  1.00  0.00    -0.308 N 
HETATM    5  H   UNL     1     -40.352 -52.857  10.790  1.00  0.00     0.164 HD
HETATM    6  H   UNL     1     -40.777 -50.828   9.987  1.00  0.00     0.170 HD
ENDROOT
BRANCH   3   7
HETATM    7  C   UNL     1     -41.397 -53.736  12.408  1.00  0.00     0.121 C 
HETATM    8  C   UNL     1     -40.347 -53.893  13.515  1.00  0.00     0.057 C 
HETATM    9  C   UNL     1     -41.135 -54.085  14.813  1.00  0.00     0.275 C 
HETATM   10  N   UNL     1     -42.499 -54.344  14.368  1.00  0.00     0.095 N 
HETATM   11  C   UNL     1     -43.529 -54.121  15.374  1.00  0.00     0.273 C 
HETATM   12  C   UNL     1     -42.697 -53.493  13.186  1.00  0.00     0.245 C 
HETATM   13  C   UNL     1     -44.909 -54.441  14.781  1.00  0.00     0.030 C 
HETATM   14  C   UNL     1     -45.163 -53.701  13.465  1.00  0.00     0.004 C 
HETATM   15  C   UNL     1     -43.996 -53.883  12.490  1.00  0.00     0.038 C 
ENDBRANCH   3   7
BRANCH   4  16
HETATM   16  C   UNL     1     -40.724 -49.061  11.080  1.00  0.00     0.051 A 
HETATM   17  C   UNL     1     -39.734 -48.393  11.798  1.00  0.00     0.032 A 
HETATM   18  C   UNL     1     -39.791 -47.010  11.949  1.00  0.00     0.019 A 
HETATM   19  C   UNL     1     -40.836 -46.325  11.355  1.00  0.00     0.088 A 
HETATM   20  N   UNL     1     -41.795 -46.922  10.616  1.00  0.00    -0.373 N 
HETATM   21  C   UNL     1     -41.714 -48.272  10.496  1.00  0.00     0.117 A 
ATOM     22  HN  UNL     1     -42.541 -46.388  10.171  1.00  0.00     0.164 HD
ENDBRANCH   4  16
TORSDOF 2
ENDMDL
MODEL 6
REMARK VINA RESULT:      -5.6      1.905      7.467
REMARK  2 active torsions:
REMARK  status: ('A' for Active; 'I' for Inactive)
REMARK       I    between atoms: C_2  and  N_3 
REMARK       I    between atoms: C_2  and  N_13 
REMARK    1  A    between atoms: N_3  and  C_4 
REMARK    2  A    between atoms: N_13  and  C_14 
ROOT
HETATM    1  O   UNL     1     -43.146 -50.368  14.043  1.00  0.00    -0.247 OA
HETATM    2  C   UNL     1     -43.757 -50.178  13.001  1.00  0.00     0.321 C 
HETATM    3  N   UNL     1     -43.332 -49.269  12.058  1.00  0.00    -0.336 N 
HETATM    4  N   UNL     1     -44.893 -50.843  12.597  1.00  0.00    -0.308 N 
HETATM    5  H   UNL     1     -44.054 -48.843  11.497  1.00  0.00     0.164 HD
HETATM    6  H   UNL     1     -45.094 -50.805  11.607  1.00  0.00     0.170 HD
ENDROOT
BRANCH   3   7
HETATM    7  C   UNL     1     -42.147 -48.462  12.334  1.00  0.00     0.121 C 
HETATM    8  C   UNL     1     -41.186 -48.423  11.139  1.00  0.00     0.057 C 
HETATM    9  C   UNL     1     -40.735 -46.965  11.015  1.00  0.00     0.275 C 
HETATM   10  N   UNL     1     -41.170 -46.350  12.262  1.00  0.00     0.095 N 
HETATM   11  C   UNL     1     -41.274 -44.896  12.231  1.00  0.00     0.273 C 
HETATM   12  C   UNL     1     -42.456 -46.982  12.588  1.00  0.00     0.245 C 
HETATM   13  C   UNL     1     -41.727 -44.380  13.604  1.00  0.00     0.030 C 
HETATM   14  C   UNL     1     -42.997 -45.077  14.099  1.00  0.00     0.004 C 
HETATM   15  C   UNL     1     -42.867 -46.601  14.006  1.00  0.00     0.038 C 
ENDBRANCH   3   7
BRANCH   4  16
HETATM   16  C   UNL     1     -45.575 -51.821  13.356  1.00  0.00     0.051 A 
HETATM   17  C   UNL     1     -46.433 -51.516  14.412  1.00  0.00     0.032 A 
HETATM   18  C   UNL     1     -47.024 -52.538  15.150  1.00  0.00     0.019 A 
HETATM   19  C   UNL     1     -46.755 -53.848  14.796  1.00  0.00     0.088 A 
HETATM   20  N   UNL     1     -45.964 -54.192  13.756  1.00  0.00    -0.373 N 
HETATM   21  C   UNL     1     -45.398 -53.172  13.063  1.00  0.00     0.117 A 
ATOM     22  HN  UNL     1     -45.801 -55.167  13.505  1.00  0.00     0.164 HD
ENDBRANCH   4  16
TORSDOF 2
ENDMDL
MODEL 7
REMARK VINA RESULT:      -5.2      3.158      4.037
REMARK  2 active torsions:
REMARK  status: ('A' for Active; 'I' for Inactive)
REMARK       I    between atoms: C_2  and  N_3 
REMARK       I    between atoms: C_2  and  N_13 
REMARK    1  A    between atoms: N_3  and  C_4 
REMARK    2  A    between atoms: N_13  and  C_14 
ROOT
HETATM    1  O   UNL     1     -42.524 -49.776  12.850  1.00  0.00    -0.247 OA
HETATM    2  C   UNL     1     -42.369 -50.979  13.004  1.00  0.00     0.321 C 
HETATM    3  N   UNL     1     -43.407 -51.810  13.369  1.00  0.00    -0.336 N 
HETATM    4  N   UNL     1     -41.200 -51.677  12.806  1.00  0.00    -0.308 N 
HETATM    5  H   UNL     1     -43.151 -52.629  13.901  1.00  0.00     0.164 HD
HETATM    6  H   UNL     1     -41.301 -52.673  12.669  1.00  0.00     0.170 HD
ENDROOT
BRANCH   3   7
HETATM    7  C   UNL     1     -44.719 -51.230  13.637  1.00  0.00     0.121 C 
HETATM    8  C   UNL     1     -45.829 -51.923  12.837  1.00  0.00     0.057 C 
HETATM    9  C   UNL     1     -46.990 -52.115  13.816  1.00  0.00     0.275 C 
HETATM   10  N   UNL     1     -46.637 -51.281  14.957  1.00  0.00     0.095 N 
HETATM   11  C   UNL     1     -47.322 -51.612  16.200  1.00  0.00     0.273 C 
HETATM   12  C   UNL     1     -45.178 -51.393  15.092  1.00  0.00     0.245 C 
HETATM   13  C   UNL     1     -46.870 -50.654  17.312  1.00  0.00     0.030 C 
HETATM   14  C   UNL     1     -45.345 -50.596  17.446  1.00  0.00     0.004 C 
HETATM   15  C   UNL     1     -44.677 -50.354  16.089  1.00  0.00     0.038 C 
ENDBRANCH   3   7
BRANCH   4  16
HETATM   16  C   UNL     1     -39.962 -51.099  12.443  1.00  0.00     0.051 A 
HETATM   17  C   UNL     1     -38.794 -51.247  13.190  1.00  0.00     0.032 A 
HETATM   18  C   UNL     1     -37.626 -50.598  12.799  1.00  0.00     0.019 A 
HETATM   19  C   UNL     1     -37.653 -49.830  11.649  1.00  0.00     0.088 A 
HETATM   20  N   UNL     1     -38.747 -49.690  10.870  1.00  0.00    -0.373 N 
HETATM   21  C   UNL     1     -39.870 -50.329  11.285  1.00  0.00     0.117 A 
ATOM     22  HN  UNL     1     -38.730 -49.135  10.015  1.00  0.00     0.164 HD
ENDBRANCH   4  16
TORSDOF 2
ENDMDL
MODEL 8
REMARK VINA RESULT:      -5.2      3.015      3.689
REMARK  2 active torsions:
REMARK  status: ('A' for Active; 'I' for Inactive)
REMARK       I    between atoms: C_2  and  N_3 
REMARK       I    between atoms: C_2  and  N_13 
REMARK    1  A    between atoms: N_3  and  C_4 
REMARK    2  A    between atoms: N_13  and  C_14 
ROOT
HETATM    1  O   UNL     1     -42.345 -49.706  12.567  1.00  0.00    -0.247 OA
HETATM    2  C   UNL     1     -41.524 -49.988  11.706  1.00  0.00     0.321 C 
HETATM    3  N   UNL     1     -40.829 -51.177  11.720  1.00  0.00    -0.336 N 
HETATM    4  N   UNL     1     -41.207 -49.222  10.608  1.00  0.00    -0.308 N 
HETATM    5  H   UNL     1     -39.909 -51.157  11.304  1.00  0.00     0.164 HD
HETATM    6  H   UNL     1     -40.760 -49.712   9.845  1.00  0.00     0.170 HD
ENDROOT
BRANCH   3   7
HETATM    7  C   UNL     1     -41.033 -52.106  12.827  1.00  0.00     0.121 C 
HETATM    8  C   UNL     1     -41.036 -53.567  12.361  1.00  0.00     0.057 C 
HETATM    9  C   UNL     1     -40.197 -54.334  13.386  1.00  0.00     0.275 C 
HETATM   10  N   UNL     1     -40.043 -53.398  14.492  1.00  0.00     0.095 N 
HETATM   11  C   UNL     1     -38.935 -53.686  15.395  1.00  0.00     0.273 C 
HETATM   12  C   UNL     1     -39.912 -52.072  13.873  1.00  0.00     0.245 C 
HETATM   13  C   UNL     1     -38.895 -52.637  16.516  1.00  0.00     0.030 C 
HETATM   14  C   UNL     1     -38.891 -51.205  15.974  1.00  0.00     0.004 C 
HETATM   15  C   UNL     1     -40.010 -50.995  14.949  1.00  0.00     0.038 C 
ENDBRANCH   3   7
BRANCH   4  16
HETATM   16  C   UNL     1     -41.742 -47.944  10.328  1.00  0.00     0.051 A 
HETATM   17  C   UNL     1     -42.914 -47.742   9.600  1.00  0.00     0.032 A 
HETATM   18  C   UNL     1     -43.347 -46.449   9.315  1.00  0.00     0.019 A 
HETATM   19  C   UNL     1     -42.600 -45.385   9.788  1.00  0.00     0.088 A 
HETATM   20  N   UNL     1     -41.482 -45.530  10.531  1.00  0.00    -0.373 N 
HETATM   21  C   UNL     1     -41.084 -46.802  10.783  1.00  0.00     0.117 A 
ATOM     22  HN  UNL     1     -40.964 -44.725  10.885  1.00  0.00     0.164 HD
ENDBRANCH   4  16
TORSDOF 2
ENDMDL
MODEL 9
REMARK VINA RESULT:      -5.0     14.465     17.605
REMARK  2 active torsions:
REMARK  status: ('A' for Active; 'I' for Inactive)
REMARK       I    between atoms: C_2  and  N_3 
REMARK       I    between atoms: C_2  and  N_13 
REMARK    1  A    between atoms: N_3  and  C_4 
REMARK    2  A    between atoms: N_13  and  C_14 
ROOT
HETATM    1  O   UNL     1     -30.964 -61.082  18.548  1.00  0.00    -0.247 OA
HETATM    2  C   UNL     1     -31.646 -62.004  18.126  1.00  0.00     0.321 C 
HETATM    3  N   UNL     1     -32.999 -62.087  18.374  1.00  0.00    -0.336 N 
HETATM    4  N   UNL     1     -31.206 -63.040  17.334  1.00  0.00    -0.308 N 
HETATM    5  H   UNL     1     -33.385 -63.019  18.412  1.00  0.00     0.164 HD
HETATM    6  H   UNL     1     -31.922 -63.534  16.820  1.00  0.00     0.170 HD
ENDROOT
BRANCH   3   7
HETATM    7  C   UNL     1     -33.630 -61.075  19.215  1.00  0.00     0.121 C 
HETATM    8  C   UNL     1     -34.159 -59.893  18.394  1.00  0.00     0.057 C 
HETATM    9  C   UNL     1     -35.543 -59.575  18.966  1.00  0.00     0.275 C 
HETATM   10  N   UNL     1     -35.593 -60.323  20.216  1.00  0.00     0.095 N 
HETATM   11  C   UNL     1     -36.932 -60.564  20.738  1.00  0.00     0.273 C 
HETATM   12  C   UNL     1     -34.876 -61.578  19.954  1.00  0.00     0.245 C 
HETATM   13  C   UNL     1     -36.841 -61.346  22.057  1.00  0.00     0.030 C 
HETATM   14  C   UNL     1     -35.995 -62.615  21.923  1.00  0.00     0.004 C 
HETATM   15  C   UNL     1     -34.643 -62.316  21.268  1.00  0.00     0.038 C 
ENDBRANCH   3   7
BRANCH   4  16
HETATM   16  C   UNL     1     -29.867 -63.236  16.925  1.00  0.00     0.051 A 
HETATM   17  C   UNL     1     -29.337 -62.718  15.744  1.00  0.00     0.032 A 
HETATM   18  C   UNL     1     -28.024 -63.004  15.381  1.00  0.00     0.019 A 
HETATM   19  C   UNL     1     -27.264 -63.791  16.227  1.00  0.00     0.088 A 
HETATM   20  N   UNL     1     -27.718 -64.282  17.400  1.00  0.00    -0.373 N 
HETATM   21  C   UNL     1     -29.005 -63.991  17.719  1.00  0.00     0.117 A 
ATOM     22  HN  UNL     1     -27.126 -64.841  18.013  1.00  0.00     0.164 HD
ENDBRANCH   4  16
TORSDOF 2
ENDMDL
