MODEL 1
REMARK VINA RESULT:      -5.9      0.000      0.000
REMARK  3 active torsions:
REMARK  status: ('A' for Active; 'I' for Inactive)
REMARK    1  A    between atoms: C_5  and  N_7 
REMARK       I    between atoms: N_7  and  C_8 
REMARK       I    between atoms: C_8  and  N_10 
REMARK    2  A    between atoms: N_10  and  C_11 
REMARK    3  A    between atoms: C_14  and  N_18 
ROOT
HETATM    1  C   UNL     1     -41.237 -49.879  12.464  1.00  0.00     0.051 A 
HETATM    2  C   UNL     1     -42.340 -49.986  13.294  1.00  0.00     0.035 A 
HETATM    3  C   UNL     1     -42.934 -51.235  13.491  1.00  0.00     0.051 A 
HETATM    4  C   UNL     1     -42.396 -52.389  12.917  1.00  0.00     0.103 A 
HETATM    5  N   UNL     1     -41.312 -52.287  12.116  1.00  0.00    -0.350 N 
ATOM      6  HN  UNL     1     -40.904 -53.117  11.686  1.00  0.00     0.166 HD
HETATM    7  C   UNL     1     -40.771 -51.053  11.892  1.00  0.00     0.119 A 
ENDROOT
BRANCH   1   8
HETATM    8  N   UNL     1     -40.670 -48.603  12.252  1.00  0.00    -0.308 N 
HETATM    9  C   UNL     1     -41.041 -47.783  11.207  1.00  0.00     0.321 C 
HETATM   10  N   UNL     1     -40.431 -46.547  11.304  1.00  0.00    -0.336 N 
HETATM   11  O   UNL     1     -41.874 -48.055  10.353  1.00  0.00    -0.247 OA
HETATM   12  H   UNL     1     -39.455 -46.548  11.568  1.00  0.00     0.164 HD
HETATM   13  H   UNL     1     -40.389 -48.088  13.075  1.00  0.00     0.170 HD
BRANCH  10  14
HETATM   14  C   UNL     1     -40.855 -45.459  10.425  1.00  0.00     0.116 C 
HETATM   15  C   UNL     1     -39.876 -44.291  10.437  1.00  0.00     0.057 C 
HETATM   16  C   UNL     1     -40.506 -43.233  11.340  1.00  0.00     0.274 C 
HETATM   17  N   UNL     1     -41.754 -43.808  11.854  1.00  0.00     0.086 N 
HETATM   18  C   UNL     1     -42.780 -42.788  12.046  1.00  0.00     0.310 C 
HETATM   19  C   UNL     1     -42.171 -44.819  10.871  1.00  0.00     0.296 C 
ENDBRANCH  10  14
ENDBRANCH   1   8
BRANCH   4  20
HETATM   20  N   UNL     1     -42.978 -53.623  13.116  1.00  0.00    -0.363 N 
HETATM   21  C   UNL     1     -44.281 -54.007  12.553  1.00  0.00     0.150 C 
HETATM   22  C   UNL     1     -45.288 -54.306  13.681  1.00  0.00     0.187 C 
HETATM   23  O   UNL     1     -44.781 -55.288  14.594  1.00  0.00    -0.388 OA
HETATM   24  C   UNL     1     -43.571 -54.807  15.209  1.00  0.00     0.187 C 
HETATM   25  C   UNL     1     -42.478 -54.522  14.166  1.00  0.00     0.150 C 
ENDBRANCH   4  20
TORSDOF 3
ENDMDL
MODEL 2
REMARK VINA RESULT:      -5.7      2.121      8.952
REMARK  3 active torsions:
REMARK  status: ('A' for Active; 'I' for Inactive)
REMARK    1  A    between atoms: C_5  and  N_7 
REMARK       I    between atoms: N_7  and  C_8 
REMARK       I    between atoms: C_8  and  N_10 
REMARK    2  A    between atoms: N_10  and  C_11 
REMARK    3  A    between atoms: C_14  and  N_18 
ROOT
HETATM    1  C   UNL     1     -42.104 -47.884  11.210  1.00  0.00     0.051 A 
HETATM    2  C   UNL     1     -40.863 -47.313  10.986  1.00  0.00     0.035 A 
HETATM    3  C   UNL     1     -40.748 -45.922  10.918  1.00  0.00     0.051 A 
HETATM    4  C   UNL     1     -41.852 -45.095  11.137  1.00  0.00     0.103 A 
HETATM    5  N   UNL     1     -43.062 -45.652  11.369  1.00  0.00    -0.350 N 
ATOM      6  HN  UNL     1     -43.880 -45.066  11.530  1.00  0.00     0.166 HD
HETATM    7  C   UNL     1     -43.170 -47.013  11.383  1.00  0.00     0.119 A 
ENDROOT
BRANCH   1   8
HETATM    8  N   UNL     1     -42.206 -49.293  11.244  1.00  0.00    -0.308 N 
HETATM    9  C   UNL     1     -42.172 -50.018  12.417  1.00  0.00     0.321 C 
HETATM   10  N   UNL     1     -42.420 -51.356  12.180  1.00  0.00    -0.336 N 
HETATM   11  O   UNL     1     -42.043 -49.548  13.539  1.00  0.00    -0.247 OA
HETATM   12  H   UNL     1     -41.965 -51.761  11.372  1.00  0.00     0.164 HD
HETATM   13  H   UNL     1     -42.777 -49.724  10.531  1.00  0.00     0.170 HD
BRANCH  10  14
HETATM   14  C   UNL     1     -42.647 -52.261  13.306  1.00  0.00     0.116 C 
HETATM   15  C   UNL     1     -42.665 -53.724  12.879  1.00  0.00     0.057 C 
HETATM   16  C   UNL     1     -44.138 -54.119  12.819  1.00  0.00     0.274 C 
HETATM   17  N   UNL     1     -44.910 -52.914  13.144  1.00  0.00     0.086 N 
HETATM   18  C   UNL     1     -46.141 -53.237  13.859  1.00  0.00     0.310 C 
HETATM   19  C   UNL     1     -44.020 -52.067  13.951  1.00  0.00     0.296 C 
ENDBRANCH  10  14
ENDBRANCH   1   8
BRANCH   4  20
HETATM   20  N   UNL     1     -41.738 -43.722  11.078  1.00  0.00    -0.363 N 
HETATM   21  C   UNL     1     -40.483 -42.999  11.335  1.00  0.00     0.150 C 
HETATM   22  C   UNL     1     -40.635 -42.075  12.559  1.00  0.00     0.187 C 
HETATM   23  O   UNL     1     -41.752 -41.189  12.415  1.00  0.00    -0.388 OA
HETATM   24  C   UNL     1     -42.969 -41.949  12.293  1.00  0.00     0.187 C 
HETATM   25  C   UNL     1     -42.939 -42.875  11.066  1.00  0.00     0.150 C 
ENDBRANCH   4  20
TORSDOF 3
ENDMDL
MODEL 3
REMARK VINA RESULT:      -5.6      2.523      8.774
REMARK  3 active torsions:
REMARK  status: ('A' for Active; 'I' for Inactive)
REMARK    1  A    between atoms: C_5  and  N_7 
REMARK       I    between atoms: N_7  and  C_8 
REMARK       I    between atoms: C_8  and  N_10 
REMARK    2  A    between atoms: N_10  and  C_11 
REMARK    3  A    between atoms: C_14  and  N_18 
ROOT
HETATM    1  C   UNL     1     -41.755 -50.066  12.814  1.00  0.00     0.051 A 
HETATM    2  C   UNL     1     -42.823 -49.193  12.941  1.00  0.00     0.035 A 
HETATM    3  C   UNL     1     -43.029 -48.212  11.968  1.00  0.00     0.051 A 
HETATM    4  C   UNL     1     -42.217 -48.138  10.833  1.00  0.00     0.103 A 
HETATM    5  N   UNL     1     -41.183 -48.999  10.703  1.00  0.00    -0.350 N 
ATOM      6  HN  UNL     1     -40.577 -48.960   9.883  1.00  0.00     0.166 HD
HETATM    7  C   UNL     1     -40.961 -49.920  11.686  1.00  0.00     0.119 A 
ENDROOT
BRANCH   1   8
HETATM    8  N   UNL     1     -41.544 -51.030  13.825  1.00  0.00    -0.308 N 
HETATM    9  C   UNL     1     -41.858 -52.363  13.665  1.00  0.00     0.321 C 
HETATM   10  N   UNL     1     -41.434 -53.107  14.749  1.00  0.00    -0.336 N 
HETATM   11  O   UNL     1     -42.354 -52.861  12.663  1.00  0.00    -0.247 OA
HETATM   12  H   UNL     1     -41.592 -52.700  15.662  1.00  0.00     0.164 HD
HETATM   13  H   UNL     1     -40.752 -50.883  14.434  1.00  0.00     0.170 HD
BRANCH  10  14
HETATM   14  C   UNL     1     -41.471 -54.567  14.686  1.00  0.00     0.116 C 
HETATM   15  C   UNL     1     -42.742 -55.142  15.298  1.00  0.00     0.057 C 
HETATM   16  C   UNL     1     -42.345 -55.640  16.685  1.00  0.00     0.274 C 
HETATM   17  N   UNL     1     -40.928 -55.306  16.862  1.00  0.00     0.086 N 
HETATM   18  C   UNL     1     -40.236 -56.301  17.675  1.00  0.00     0.310 C 
HETATM   19  C   UNL     1     -40.358 -55.221  15.509  1.00  0.00     0.296 C 
ENDBRANCH  10  14
ENDBRANCH   1   8
BRANCH   4  20
HETATM   20  N   UNL     1     -42.424 -47.176   9.869  1.00  0.00    -0.363 N 
HETATM   21  C   UNL     1     -41.925 -45.797   9.977  1.00  0.00     0.150 C 
HETATM   22  C   UNL     1     -43.099 -44.799  10.003  1.00  0.00     0.187 C 
HETATM   23  O   UNL     1     -43.965 -44.975   8.876  1.00  0.00    -0.388 OA
HETATM   24  C   UNL     1     -44.524 -46.301   8.889  1.00  0.00     0.187 C 
HETATM   25  C   UNL     1     -43.431 -47.380   8.817  1.00  0.00     0.150 C 
ENDBRANCH   4  20
TORSDOF 3
ENDMDL
MODEL 4
REMARK VINA RESULT:      -5.5      3.265      4.937
REMARK  3 active torsions:
REMARK  status: ('A' for Active; 'I' for Inactive)
REMARK    1  A    between atoms: C_5  and  N_7 
REMARK       I    between atoms: N_7  and  C_8 
REMARK       I    between atoms: C_8  and  N_10 
REMARK    2  A    between atoms: N_10  and  C_11 
REMARK    3  A    between atoms: C_14  and  N_18 
ROOT
HETATM    1  C   UNL     1     -42.005 -46.220  11.034  1.00  0.00     0.051 A 
HETATM    2  C   UNL     1     -42.776 -47.333  11.325  1.00  0.00     0.035 A 
HETATM    3  C   UNL     1     -42.166 -48.586  11.423  1.00  0.00     0.051 A 
HETATM    4  C   UNL     1     -40.782 -48.727  11.297  1.00  0.00     0.103 A 
HETATM    5  N   UNL     1     -40.027 -47.639  11.026  1.00  0.00    -0.350 N 
ATOM      6  HN  UNL     1     -39.015 -47.721  10.930  1.00  0.00     0.166 HD
HETATM    7  C   UNL     1     -40.642 -46.428  10.883  1.00  0.00     0.119 A 
ENDROOT
BRANCH   1   8
HETATM    8  N   UNL     1     -42.644 -44.967  10.908  1.00  0.00    -0.308 N 
HETATM    9  C   UNL     1     -42.700 -44.048  11.935  1.00  0.00     0.321 C 
HETATM   10  N   UNL     1     -43.265 -42.861  11.510  1.00  0.00    -0.336 N 
HETATM   11  O   UNL     1     -42.226 -44.203  13.053  1.00  0.00    -0.247 OA
HETATM   12  H   UNL     1     -44.079 -42.940  10.915  1.00  0.00     0.164 HD
HETATM   13  H   UNL     1     -42.621 -44.535   9.995  1.00  0.00     0.170 HD
BRANCH  10  14
HETATM   14  C   UNL     1     -43.219 -41.685  12.377  1.00  0.00     0.116 C 
HETATM   15  C   UNL     1     -44.360 -40.715  12.098  1.00  0.00     0.057 C 
HETATM   16  C   UNL     1     -43.753 -39.592  11.261  1.00  0.00     0.274 C 
HETATM   17  N   UNL     1     -42.348 -39.948  11.035  1.00  0.00     0.086 N 
HETATM   18  C   UNL     1     -41.494 -38.765  10.973  1.00  0.00     0.310 C 
HETATM   19  C   UNL     1     -41.969 -40.832  12.147  1.00  0.00     0.296 C 
ENDBRANCH  10  14
ENDBRANCH   1   8
BRANCH   4  20
HETATM   20  N   UNL     1     -40.178 -49.962  11.401  1.00  0.00    -0.363 N 
HETATM   21  C   UNL     1     -40.896 -51.187  11.785  1.00  0.00     0.150 C 
HETATM   22  C   UNL     1     -40.328 -51.754  13.101  1.00  0.00     0.187 C 
HETATM   23  O   UNL     1     -38.912 -51.957  13.020  1.00  0.00    -0.388 OA
HETATM   24  C   UNL     1     -38.250 -50.705  12.767  1.00  0.00     0.187 C 
HETATM   25  C   UNL     1     -38.713 -50.074  11.444  1.00  0.00     0.150 C 
ENDBRANCH   4  20
TORSDOF 3
ENDMDL
MODEL 5
REMARK VINA RESULT:      -5.4      3.116      4.115
REMARK  3 active torsions:
REMARK  status: ('A' for Active; 'I' for Inactive)
REMARK    1  A    between atoms: C_5  and  N_7 
REMARK       I    between atoms: N_7  and  C_8 
REMARK       I    between atoms: C_8  and  N_10 
REMARK    2  A    between atoms: N_10  and  C_11 
REMARK    3  A    between atoms: C_14  and  N_18 
ROOT
HETATM    1  C   UNL     1     -41.001 -52.192  12.834  1.00  0.00     0.051 A 
HETATM    2  C   UNL     1     -39.799 -52.059  13.508  1.00  0.00     0.035 A 
HETATM    3  C   UNL     1     -39.416 -53.035  14.431  1.00  0.00     0.051 A 
HETATM    4  C   UNL     1     -40.193 -54.177  14.639  1.00  0.00     0.103 A 
HETATM    5  N   UNL     1     -41.361 -54.313  13.972  1.00  0.00    -0.350 N 
ATOM      6  HN  UNL     1     -41.944 -55.139  14.110  1.00  0.00     0.166 HD
HETATM    7  C   UNL     1     -41.748 -53.327  13.110  1.00  0.00     0.119 A 
ENDROOT
BRANCH   1   8
HETATM    8  N   UNL     1     -41.386 -51.178  11.929  1.00  0.00    -0.308 N 
HETATM    9  C   UNL     1     -42.175 -50.107  12.295  1.00  0.00     0.321 C 
HETATM   10  N   UNL     1     -42.294 -49.201  11.260  1.00  0.00    -0.336 N 
HETATM   11  O   UNL     1     -42.634 -49.913  13.413  1.00  0.00    -0.247 OA
HETATM   12  H   UNL     1     -42.441 -49.590  10.337  1.00  0.00     0.164 HD
HETATM   13  H   UNL     1     -40.730 -50.950  11.196  1.00  0.00     0.170 HD
BRANCH  10  14
HETATM   14  C   UNL     1     -42.902 -47.895  11.506  1.00  0.00     0.116 C 
HETATM   15  C   UNL     1     -43.599 -47.338  10.271  1.00  0.00     0.057 C 
HETATM   16  C   UNL     1     -42.641 -46.304   9.686  1.00  0.00     0.274 C 
HETATM   17  N   UNL     1     -41.438 -46.324  10.525  1.00  0.00     0.086 N 
HETATM   18  C   UNL     1     -40.824 -45.002  10.621  1.00  0.00     0.310 C 
HETATM   19  C   UNL     1     -41.868 -46.817  11.841  1.00  0.00     0.296 C 
ENDBRANCH  10  14
ENDBRANCH   1   8
BRANCH   4  20
HETATM   20  N   UNL     1     -39.813 -55.145  15.544  1.00  0.00    -0.363 N 
HETATM   21  C   UNL     1     -40.714 -55.700  16.565  1.00  0.00     0.150 C 
HETATM   22  C   UNL     1     -40.185 -55.388  17.978  1.00  0.00     0.187 C 
HETATM   23  O   UNL     1     -38.834 -55.835  18.146  1.00  0.00    -0.388 OA
HETATM   24  C   UNL     1     -37.975 -55.166  17.204  1.00  0.00     0.187 C 
HETATM   25  C   UNL     1     -38.391 -55.453  15.752  1.00  0.00     0.150 C 
ENDBRANCH   4  20
TORSDOF 3
ENDMDL
MODEL 6
REMARK VINA RESULT:      -5.3      3.184      8.633
REMARK  3 active torsions:
REMARK  status: ('A' for Active; 'I' for Inactive)
REMARK    1  A    between atoms: C_5  and  N_7 
REMARK       I    between atoms: N_7  and  C_8 
REMARK       I    between atoms: C_8  and  N_10 
REMARK    2  A    between atoms: N_10  and  C_11 
REMARK    3  A    between atoms: C_14  and  N_18 
ROOT
HETATM    1  C   UNL     1     -41.738 -51.202  12.795  1.00  0.00     0.051 A 
HETATM    2  C   UNL     1     -42.805 -50.566  13.407  1.00  0.00     0.035 A 
HETATM    3  C   UNL     1     -43.261 -49.346  12.901  1.00  0.00     0.051 A 
HETATM    4  C   UNL     1     -42.704 -48.789  11.748  1.00  0.00     0.103 A 
HETATM    5  N   UNL     1     -41.671 -49.416  11.142  1.00  0.00    -0.350 N 
ATOM      6  HN  UNL     1     -41.249 -49.025  10.300  1.00  0.00     0.166 HD
HETATM    7  C   UNL     1     -41.201 -50.582  11.676  1.00  0.00     0.119 A 
ENDROOT
BRANCH   1   8
HETATM    8  N   UNL     1     -41.270 -52.418  13.341  1.00  0.00    -0.308 N 
HETATM    9  C   UNL     1     -40.263 -52.478  14.281  1.00  0.00     0.321 C 
HETATM   10  N   UNL     1     -40.088 -53.768  14.740  1.00  0.00    -0.336 N 
HETATM   11  O   UNL     1     -39.660 -51.516  14.737  1.00  0.00    -0.247 OA
HETATM   12  H   UNL     1     -40.114 -54.501  14.042  1.00  0.00     0.164 HD
HETATM   13  H   UNL     1     -41.947 -53.161  13.442  1.00  0.00     0.170 HD
BRANCH  10  14
HETATM   14  C   UNL     1     -39.226 -54.017  15.895  1.00  0.00     0.116 C 
HETATM   15  C   UNL     1     -38.533 -55.372  15.820  1.00  0.00     0.057 C 
HETATM   16  C   UNL     1     -39.320 -56.290  16.751  1.00  0.00     0.274 C 
HETATM   17  N   UNL     1     -40.437 -55.498  17.278  1.00  0.00     0.086 N 
HETATM   18  C   UNL     1     -40.779 -55.889  18.642  1.00  0.00     0.310 C 
HETATM   19  C   UNL     1     -40.007 -54.094  17.208  1.00  0.00     0.296 C 
ENDBRANCH  10  14
ENDBRANCH   1   8
BRANCH   4  20
HETATM   20  N   UNL     1     -43.158 -47.589  11.243  1.00  0.00    -0.363 N 
HETATM   21  C   UNL     1     -44.147 -47.487  10.159  1.00  0.00     0.150 C 
HETATM   22  C   UNL     1     -43.531 -46.787   8.932  1.00  0.00     0.187 C 
HETATM   23  O   UNL     1     -42.970 -45.515   9.277  1.00  0.00    -0.388 OA
HETATM   24  C   UNL     1     -41.922 -45.687  10.248  1.00  0.00     0.187 C 
HETATM   25  C   UNL     1     -42.445 -46.338  11.539  1.00  0.00     0.150 C 
ENDBRANCH   4  20
TORSDOF 3
ENDMDL
MODEL 7
REMARK VINA RESULT:      -5.3      2.637      9.036
REMARK  3 active torsions:
REMARK  status: ('A' for Active; 'I' for Inactive)
REMARK    1  A    between atoms: C_5  and  N_7 
REMARK       I    between atoms: N_7  and  C_8 
REMARK       I    between atoms: C_8  and  N_10 
REMARK    2  A    between atoms: N_10  and  C_11 
REMARK    3  A    between atoms: C_14  and  N_18 
ROOT
HETATM    1  C   UNL     1     -40.201 -49.241  13.118  1.00  0.00     0.051 A 
HETATM    2  C   UNL     1     -41.243 -48.395  13.456  1.00  0.00     0.035 A 
HETATM    3  C   UNL     1     -41.480 -47.253  12.687  1.00  0.00     0.051 A 
HETATM    4  C   UNL     1     -40.726 -46.984  11.542  1.00  0.00     0.103 A 
HETATM    5  N   UNL     1     -39.716 -47.817  11.204  1.00  0.00    -0.350 N 
ATOM      6  HN  UNL     1     -39.152 -47.638  10.373  1.00  0.00     0.166 HD
HETATM    7  C   UNL     1     -39.462 -48.902  11.994  1.00  0.00     0.119 A 
ENDROOT
BRANCH   1   8
HETATM    8  N   UNL     1     -39.956 -50.372  13.928  1.00  0.00    -0.308 N 
HETATM    9  C   UNL     1     -40.454 -51.625  13.633  1.00  0.00     0.321 C 
HETATM   10  N   UNL     1     -39.963 -52.573  14.509  1.00  0.00    -0.336 N 
HETATM   11  O   UNL     1     -41.156 -51.901  12.670  1.00  0.00    -0.247 OA
HETATM   12  H   UNL     1     -39.927 -52.307  15.485  1.00  0.00     0.164 HD
HETATM   13  H   UNL     1     -39.068 -50.405  14.407  1.00  0.00     0.170 HD
BRANCH  10  14
HETATM   14  C   UNL     1     -40.188 -53.993  14.242  1.00  0.00     0.116 C 
HETATM   15  C   UNL     1     -41.472 -54.506  14.882  1.00  0.00     0.057 C 
HETATM   16  C   UNL     1     -41.037 -55.252  16.141  1.00  0.00     0.274 C 
HETATM   17  N   UNL     1     -39.579 -55.112  16.230  1.00  0.00     0.086 N 
HETATM   18  C   UNL     1     -38.959 -56.292  16.824  1.00  0.00     0.310 C 
HETATM   19  C   UNL     1     -39.108 -54.887  14.855  1.00  0.00     0.296 C 
ENDBRANCH  10  14
ENDBRANCH   1   8
BRANCH   4  20
HETATM   20  N   UNL     1     -40.964 -45.862  10.777  1.00  0.00    -0.363 N 
HETATM   21  C   UNL     1     -39.918 -44.898  10.404  1.00  0.00     0.150 C 
HETATM   22  C   UNL     1     -40.228 -43.510  10.996  1.00  0.00     0.187 C 
HETATM   23  O   UNL     1     -41.538 -43.060  10.627  1.00  0.00    -0.388 OA
HETATM   24  C   UNL     1     -42.530 -43.975  11.127  1.00  0.00     0.187 C 
HETATM   25  C   UNL     1     -42.337 -45.390  10.554  1.00  0.00     0.150 C 
ENDBRANCH   4  20
TORSDOF 3
ENDMDL
MODEL 8
REMARK VINA RESULT:      -5.3      6.220     10.180
REMARK  3 active torsions:
REMARK  status: ('A' for Active; 'I' for Inactive)
REMARK    1  A    between atoms: C_5  and  N_7 
REMARK       I    between atoms: N_7  and  C_8 
REMARK       I    between atoms: C_8  and  N_10 
REMARK    2  A    between atoms: N_10  and  C_11 
REMARK    3  A    between atoms: C_14  and  N_18 
ROOT
HETATM    1  C   UNL     1     -39.343 -55.225  15.509  1.00  0.00     0.051 A 
HETATM    2  C   UNL     1     -39.506 -54.393  14.414  1.00  0.00     0.035 A 
HETATM    3  C   UNL     1     -40.784 -53.938  14.079  1.00  0.00     0.051 A 
HETATM    4  C   UNL     1     -41.892 -54.254  14.868  1.00  0.00     0.103 A 
HETATM    5  N   UNL     1     -41.732 -55.056  15.945  1.00  0.00    -0.350 N 
ATOM      6  HN  UNL     1     -42.528 -55.299  16.533  1.00  0.00     0.166 HD
HETATM    7  C   UNL     1     -40.486 -55.535  16.232  1.00  0.00     0.119 A 
ENDROOT
BRANCH   1   8
HETATM    8  N   UNL     1     -38.048 -55.701  15.812  1.00  0.00    -0.308 N 
HETATM    9  C   UNL     1     -37.375 -55.357  16.966  1.00  0.00     0.321 C 
HETATM   10  N   UNL     1     -36.190 -56.057  17.077  1.00  0.00    -0.336 N 
HETATM   11  O   UNL     1     -37.798 -54.611  17.839  1.00  0.00    -0.247 OA
HETATM   12  H   UNL     1     -35.642 -56.150  16.231  1.00  0.00     0.164 HD
HETATM   13  H   UNL     1     -37.816 -56.628  15.483  1.00  0.00     0.170 HD
BRANCH  10  14
HETATM   14  C   UNL     1     -35.433 -56.007  18.327  1.00  0.00     0.116 C 
HETATM   15  C   UNL     1     -34.038 -55.423  18.136  1.00  0.00     0.057 C 
HETATM   16  C   UNL     1     -33.090 -56.618  18.109  1.00  0.00     0.274 C 
HETATM   17  N   UNL     1     -33.924 -57.820  18.223  1.00  0.00     0.086 N 
HETATM   18  C   UNL     1     -33.242 -58.883  18.954  1.00  0.00     0.310 C 
HETATM   19  C   UNL     1     -35.156 -57.397  18.905  1.00  0.00     0.296 C 
ENDBRANCH  10  14
ENDBRANCH   1   8
BRANCH   4  20
HETATM   20  N   UNL     1     -43.152 -53.799  14.544  1.00  0.00    -0.363 N 
HETATM   21  C   UNL     1     -44.391 -54.461  14.979  1.00  0.00     0.150 C 
HETATM   22  C   UNL     1     -45.193 -54.960  13.760  1.00  0.00     0.187 C 
HETATM   23  O   UNL     1     -45.441 -53.903  12.825  1.00  0.00    -0.388 OA
HETATM   24  C   UNL     1     -44.194 -53.376  12.337  1.00  0.00     0.187 C 
HETATM   25  C   UNL     1     -43.334 -52.805  13.476  1.00  0.00     0.150 C 
ENDBRANCH   4  20
TORSDOF 3
ENDMDL
MODEL 9
REMARK VINA RESULT:      -5.2      2.222      3.361
REMARK  3 active torsions:
REMARK  status: ('A' for Active; 'I' for Inactive)
REMARK    1  A    between atoms: C_5  and  N_7 
REMARK       I    between atoms: N_7  and  C_8 
REMARK       I    between atoms: C_8  and  N_10 
REMARK    2  A    between atoms: N_10  and  C_11 
REMARK    3  A    between atoms: C_14  and  N_18 
ROOT
HETATM    1  C   UNL     1     -40.519 -47.575  11.388  1.00  0.00     0.051 A 
HETATM    2  C   UNL     1     -39.568 -47.942  12.325  1.00  0.00     0.035 A 
HETATM    3  C   UNL     1     -39.452 -49.284  12.699  1.00  0.00     0.051 A 
HETATM    4  C   UNL     1     -40.234 -50.271  12.095  1.00  0.00     0.103 A 
HETATM    5  N   UNL     1     -41.154 -49.914  11.170  1.00  0.00    -0.350 N 
ATOM      6  HN  UNL     1     -41.735 -50.620  10.718  1.00  0.00     0.166 HD
HETATM    7  C   UNL     1     -41.291 -48.594  10.851  1.00  0.00     0.119 A 
ENDROOT
BRANCH   1   8
HETATM    8  N   UNL     1     -40.642 -46.209  11.047  1.00  0.00    -0.308 N 
HETATM    9  C   UNL     1     -41.520 -45.356  11.683  1.00  0.00     0.321 C 
HETATM   10  N   UNL     1     -41.350 -44.056  11.250  1.00  0.00    -0.336 N 
HETATM   11  O   UNL     1     -42.285 -45.668  12.586  1.00  0.00    -0.247 OA
HETATM   12  H   UNL     1     -41.218 -43.928  10.255  1.00  0.00     0.164 HD
HETATM   13  H   UNL     1     -39.806 -45.744  10.725  1.00  0.00     0.170 HD
BRANCH  10  14
HETATM   14  C   UNL     1     -42.024 -42.964  11.950  1.00  0.00     0.116 C 
HETATM   15  C   UNL     1     -42.237 -41.747  11.058  1.00  0.00     0.057 C 
HETATM   16  C   UNL     1     -41.147 -40.752  11.448  1.00  0.00     0.274 C 
HETATM   17  N   UNL     1     -40.327 -41.408  12.473  1.00  0.00     0.086 N 
HETATM   18  C   UNL     1     -39.807 -40.449  13.443  1.00  0.00     0.310 C 
HETATM   19  C   UNL     1     -41.196 -42.408  13.111  1.00  0.00     0.296 C 
ENDBRANCH  10  14
ENDBRANCH   1   8
BRANCH   4  20
HETATM   20  N   UNL     1     -40.116 -51.596  12.457  1.00  0.00    -0.363 N 
HETATM   21  C   UNL     1     -41.051 -52.644  12.020  1.00  0.00     0.150 C 
HETATM   22  C   UNL     1     -41.769 -53.266  13.233  1.00  0.00     0.187 C 
HETATM   23  O   UNL     1     -40.836 -53.744  14.209  1.00  0.00    -0.388 OA
HETATM   24  C   UNL     1     -40.031 -52.654  14.695  1.00  0.00     0.187 C 
HETATM   25  C   UNL     1     -39.231 -51.990  13.562  1.00  0.00     0.150 C 
ENDBRANCH   4  20
TORSDOF 3
ENDMDL
