MODEL 1
REMARK VINA RESULT:      -5.6      0.000      0.000
REMARK  2 active torsions:
REMARK  status: ('A' for Active; 'I' for Inactive)
REMARK    1  A    between atoms: C_8  and  N_9 
REMARK       I    between atoms: N_9  and  C_10 
REMARK    2  A    between atoms: C_10  and  C_12 
ROOT
HETATM    1  N   UNL     1     -40.880 -48.892  10.669  1.00  0.00    -0.307 N 
HETATM    2  C   UNL     1     -41.098 -47.537  10.818  1.00  0.00     0.282 C 
HETATM    3  O   UNL     1     -40.452 -46.759  11.512  1.00  0.00    -0.265 OA
HETATM    4  H   UNL     1     -41.469 -49.384  10.016  1.00  0.00     0.170 HD
ENDROOT
BRANCH   1   5
HETATM    5  C   UNL     1     -39.899 -49.621  11.377  1.00  0.00     0.113 A 
HETATM    6  C   UNL     1     -40.257 -50.658  12.251  1.00  0.00    -0.018 A 
HETATM    7  C   UNL     1     -41.672 -51.075  12.520  1.00  0.00     0.052 C 
HETATM    8  C   UNL     1     -39.222 -51.352  12.907  1.00  0.00     0.012 A 
HETATM    9  C   UNL     1     -37.894 -51.005  12.697  1.00  0.00     0.018 A 
HETATM   10  C   UNL     1     -37.642 -49.962  11.836  1.00  0.00     0.089 A 
HETATM   11  N   UNL     1     -38.608 -49.282  11.190  1.00  0.00    -0.352 N 
ATOM     12  HN  UNL     1     -38.365 -48.516  10.562  1.00  0.00     0.166 HD
ENDBRANCH   1   5
BRANCH   2  13
HETATM   13  C   UNL     1     -42.285 -47.020  10.040  1.00  0.00     0.159 C 
HETATM   14  C   UNL     1     -42.488 -45.693  10.060  1.00  0.00     0.177 C 
HETATM   15  O   UNL     1     -43.527 -45.029   9.480  1.00  0.00    -0.358 OA
HETATM   16  C   UNL     1     -44.490 -45.863   8.842  1.00  0.00     0.201 C 
HETATM   17  C   UNL     1     -44.408 -47.364   9.137  1.00  0.00     0.202 C 
HETATM   18  O   UNL     1     -43.106 -47.906   9.375  1.00  0.00    -0.342 OA
ENDBRANCH   2  13
TORSDOF 2
ENDMDL
MODEL 2
REMARK VINA RESULT:      -5.4      2.048      6.263
REMARK  2 active torsions:
REMARK  status: ('A' for Active; 'I' for Inactive)
REMARK    1  A    between atoms: C_8  and  N_9 
REMARK       I    between atoms: N_9  and  C_10 
REMARK    2  A    between atoms: C_10  and  C_12 
ROOT
HETATM    1  N   UNL     1     -40.966 -48.297  10.552  1.00  0.00    -0.307 N 
HETATM    2  C   UNL     1     -41.129 -49.311  11.474  1.00  0.00     0.282 C 
HETATM    3  O   UNL     1     -42.190 -49.772  11.883  1.00  0.00    -0.265 OA
HETATM    4  H   UNL     1     -40.022 -48.070  10.279  1.00  0.00     0.170 HD
ENDROOT
BRANCH   1   5
HETATM    5  C   UNL     1     -42.030 -47.562   9.984  1.00  0.00     0.113 A 
HETATM    6  C   UNL     1     -42.311 -46.253  10.403  1.00  0.00    -0.018 A 
HETATM    7  C   UNL     1     -41.541 -45.532  11.469  1.00  0.00     0.052 C 
HETATM    8  C   UNL     1     -43.376 -45.576   9.778  1.00  0.00     0.012 A 
HETATM    9  C   UNL     1     -44.124 -46.199   8.787  1.00  0.00     0.018 A 
HETATM   10  C   UNL     1     -43.785 -47.490   8.456  1.00  0.00     0.089 A 
HETATM   11  N   UNL     1     -42.770 -48.162   9.032  1.00  0.00    -0.352 N 
ATOM     12  HN  UNL     1     -42.562 -49.119   8.749  1.00  0.00     0.166 HD
ENDBRANCH   1   5
BRANCH   2  13
HETATM   13  C   UNL     1     -39.829 -49.856  12.019  1.00  0.00     0.159 C 
HETATM   14  C   UNL     1     -39.826 -51.144  12.399  1.00  0.00     0.177 C 
HETATM   15  O   UNL     1     -38.785 -51.812  12.969  1.00  0.00    -0.358 OA
HETATM   16  C   UNL     1     -37.625 -51.021  13.211  1.00  0.00     0.201 C 
HETATM   17  C   UNL     1     -37.786 -49.503  13.089  1.00  0.00     0.202 C 
HETATM   18  O   UNL     1     -38.731 -49.028  12.125  1.00  0.00    -0.342 OA
ENDBRANCH   2  13
TORSDOF 2
ENDMDL
MODEL 3
REMARK VINA RESULT:      -5.2      2.953      6.147
REMARK  2 active torsions:
REMARK  status: ('A' for Active; 'I' for Inactive)
REMARK    1  A    between atoms: C_8  and  N_9 
REMARK       I    between atoms: N_9  and  C_10 
REMARK    2  A    between atoms: C_10  and  C_12 
ROOT
HETATM    1  N   UNL     1     -41.769 -49.759  11.381  1.00  0.00    -0.307 N 
HETATM    2  C   UNL     1     -42.484 -50.342  12.408  1.00  0.00     0.282 C 
HETATM    3  O   UNL     1     -43.441 -49.860  13.006  1.00  0.00    -0.265 OA
HETATM    4  H   UNL     1     -41.040 -50.310  10.957  1.00  0.00     0.170 HD
ENDROOT
BRANCH   1   5
HETATM    5  C   UNL     1     -41.990 -48.447  10.905  1.00  0.00     0.113 A 
HETATM    6  C   UNL     1     -41.028 -47.441  11.077  1.00  0.00    -0.018 A 
HETATM    7  C   UNL     1     -39.716 -47.649  11.772  1.00  0.00     0.052 C 
HETATM    8  C   UNL     1     -41.312 -46.163  10.558  1.00  0.00     0.012 A 
HETATM    9  C   UNL     1     -42.514 -45.916   9.908  1.00  0.00     0.018 A 
HETATM   10  C   UNL     1     -43.404 -46.960   9.804  1.00  0.00     0.089 A 
HETATM   11  N   UNL     1     -43.160 -48.194  10.285  1.00  0.00    -0.352 N 
ATOM     12  HN  UNL     1     -43.855 -48.932  10.181  1.00  0.00     0.166 HD
ENDBRANCH   1   5
BRANCH   2  13
HETATM   13  C   UNL     1     -41.972 -51.705  12.812  1.00  0.00     0.159 C 
HETATM   14  C   UNL     1     -40.769 -52.063  12.337  1.00  0.00     0.177 C 
HETATM   15  O   UNL     1     -40.153 -53.263  12.528  1.00  0.00    -0.358 OA
HETATM   16  C   UNL     1     -40.912 -54.216  13.267  1.00  0.00     0.201 C 
HETATM   17  C   UNL     1     -42.395 -53.898  13.486  1.00  0.00     0.202 C 
HETATM   18  O   UNL     1     -42.748 -52.518  13.611  1.00  0.00    -0.342 OA
ENDBRANCH   2  13
TORSDOF 2
ENDMDL
MODEL 4
REMARK VINA RESULT:      -5.2      3.847      6.540
REMARK  2 active torsions:
REMARK  status: ('A' for Active; 'I' for Inactive)
REMARK    1  A    between atoms: C_8  and  N_9 
REMARK       I    between atoms: N_9  and  C_10 
REMARK    2  A    between atoms: C_10  and  C_12 
ROOT
HETATM    1  N   UNL     1     -42.942 -50.701  13.152  1.00  0.00    -0.307 N 
HETATM    2  C   UNL     1     -42.162 -51.618  12.477  1.00  0.00     0.282 C 
HETATM    3  O   UNL     1     -42.492 -52.744  12.117  1.00  0.00    -0.265 OA
HETATM    4  H   UNL     1     -42.538 -49.795  13.329  1.00  0.00     0.170 HD
ENDROOT
BRANCH   1   5
HETATM    5  C   UNL     1     -44.252 -50.960  13.614  1.00  0.00     0.113 A 
HETATM    6  C   UNL     1     -44.576 -50.850  14.975  1.00  0.00    -0.018 A 
HETATM    7  C   UNL     1     -43.592 -50.470  16.041  1.00  0.00     0.052 C 
HETATM    8  C   UNL     1     -45.907 -51.106  15.357  1.00  0.00     0.012 A 
HETATM    9  C   UNL     1     -46.857 -51.465  14.410  1.00  0.00     0.018 A 
HETATM   10  C   UNL     1     -46.441 -51.566  13.102  1.00  0.00     0.089 A 
HETATM   11  N   UNL     1     -45.178 -51.323  12.705  1.00  0.00    -0.352 N 
ATOM     12  HN  UNL     1     -44.922 -51.413  11.722  1.00  0.00     0.166 HD
ENDBRANCH   1   5
BRANCH   2  13
HETATM   13  C   UNL     1     -40.756 -51.139  12.201  1.00  0.00     0.159 C 
HETATM   14  C   UNL     1     -39.765 -51.769  12.850  1.00  0.00     0.177 C 
HETATM   15  O   UNL     1     -38.440 -51.459  12.793  1.00  0.00    -0.358 OA
HETATM   16  C   UNL     1     -38.125 -50.322  11.994  1.00  0.00     0.201 C 
HETATM   17  C   UNL     1     -39.297 -49.436  11.560  1.00  0.00     0.202 C 
HETATM   18  O   UNL     1     -40.550 -50.086  11.334  1.00  0.00    -0.342 OA
ENDBRANCH   2  13
TORSDOF 2
ENDMDL
MODEL 5
REMARK VINA RESULT:      -5.2      4.122      5.906
REMARK  2 active torsions:
REMARK  status: ('A' for Active; 'I' for Inactive)
REMARK    1  A    between atoms: C_8  and  N_9 
REMARK       I    between atoms: N_9  and  C_10 
REMARK    2  A    between atoms: C_10  and  C_12 
ROOT
HETATM    1  N   UNL     1     -40.887 -52.443  12.871  1.00  0.00    -0.307 N 
HETATM    2  C   UNL     1     -42.208 -52.052  12.784  1.00  0.00     0.282 C 
HETATM    3  O   UNL     1     -42.629 -50.932  12.513  1.00  0.00    -0.265 OA
HETATM    4  H   UNL     1     -40.706 -53.418  13.051  1.00  0.00     0.170 HD
ENDROOT
BRANCH   1   5
HETATM    5  C   UNL     1     -39.789 -51.565  12.736  1.00  0.00     0.113 A 
HETATM    6  C   UNL     1     -38.821 -51.454  13.745  1.00  0.00    -0.018 A 
HETATM    7  C   UNL     1     -38.860 -52.224  15.031  1.00  0.00     0.052 C 
HETATM    8  C   UNL     1     -37.744 -50.571  13.530  1.00  0.00     0.012 A 
HETATM    9  C   UNL     1     -37.661 -49.831  12.358  1.00  0.00     0.018 A 
HETATM   10  C   UNL     1     -38.668 -49.993  11.434  1.00  0.00     0.089 A 
HETATM   11  N   UNL     1     -39.706 -50.832  11.608  1.00  0.00    -0.352 N 
ATOM     12  HN  UNL     1     -40.426 -50.914  10.890  1.00  0.00     0.166 HD
ENDBRANCH   1   5
BRANCH   2  13
HETATM   13  C   UNL     1     -43.193 -53.157  13.088  1.00  0.00     0.159 C 
HETATM   14  C   UNL     1     -44.407 -53.056  12.523  1.00  0.00     0.177 C 
HETATM   15  O   UNL     1     -45.455 -53.904  12.711  1.00  0.00    -0.358 OA
HETATM   16  C   UNL     1     -45.215 -54.958  13.639  1.00  0.00     0.201 C 
HETATM   17  C   UNL     1     -43.960 -54.839  14.510  1.00  0.00     0.202 C 
HETATM   18  O   UNL     1     -42.828 -54.188  13.928  1.00  0.00    -0.342 OA
ENDBRANCH   2  13
TORSDOF 2
ENDMDL
MODEL 6
REMARK VINA RESULT:      -5.1      2.214      3.436
REMARK  2 active torsions:
REMARK  status: ('A' for Active; 'I' for Inactive)
REMARK    1  A    between atoms: C_8  and  N_9 
REMARK       I    between atoms: N_9  and  C_10 
REMARK    2  A    between atoms: C_10  and  C_12 
ROOT
HETATM    1  N   UNL     1     -41.947 -50.454  11.754  1.00  0.00    -0.307 N 
HETATM    2  C   UNL     1     -40.790 -49.726  11.565  1.00  0.00     0.282 C 
HETATM    3  O   UNL     1     -39.643 -50.086  11.815  1.00  0.00    -0.265 OA
HETATM    4  H   UNL     1     -42.810 -50.033  11.446  1.00  0.00     0.170 HD
ENDROOT
BRANCH   1   5
HETATM    5  C   UNL     1     -41.993 -51.731  12.355  1.00  0.00     0.113 A 
HETATM    6  C   UNL     1     -43.099 -52.135  13.116  1.00  0.00    -0.018 A 
HETATM    7  C   UNL     1     -44.301 -51.274  13.369  1.00  0.00     0.052 C 
HETATM    8  C   UNL     1     -43.080 -53.431  13.669  1.00  0.00     0.012 A 
HETATM    9  C   UNL     1     -41.991 -54.268  13.469  1.00  0.00     0.018 A 
HETATM   10  C   UNL     1     -40.944 -53.777  12.723  1.00  0.00     0.089 A 
HETATM   11  N   UNL     1     -40.934 -52.546  12.178  1.00  0.00    -0.352 N 
ATOM     12  HN  UNL     1     -40.131 -52.232  11.634  1.00  0.00     0.166 HD
ENDBRANCH   1   5
BRANCH   2  13
HETATM   13  C   UNL     1     -41.023 -48.338  11.014  1.00  0.00     0.159 C 
HETATM   14  C   UNL     1     -40.191 -47.373  11.437  1.00  0.00     0.177 C 
HETATM   15  O   UNL     1     -40.262 -46.052  11.114  1.00  0.00    -0.358 OA
HETATM   16  C   UNL     1     -41.364 -45.695  10.285  1.00  0.00     0.201 C 
HETATM   17  C   UNL     1     -42.468 -46.744  10.114  1.00  0.00     0.202 C 
HETATM   18  O   UNL     1     -42.066 -48.116  10.139  1.00  0.00    -0.342 OA
ENDBRANCH   2  13
TORSDOF 2
ENDMDL
MODEL 7
REMARK VINA RESULT:      -5.1      4.084      6.429
REMARK  2 active torsions:
REMARK  status: ('A' for Active; 'I' for Inactive)
REMARK    1  A    between atoms: C_8  and  N_9 
REMARK       I    between atoms: N_9  and  C_10 
REMARK    2  A    between atoms: C_10  and  C_12 
ROOT
HETATM    1  N   UNL     1     -41.796 -52.620  12.929  1.00  0.00    -0.307 N 
HETATM    2  C   UNL     1     -41.584 -51.295  12.606  1.00  0.00     0.282 C 
HETATM    3  O   UNL     1     -42.429 -50.407  12.543  1.00  0.00    -0.265 OA
HETATM    4  H   UNL     1     -40.984 -53.214  12.990  1.00  0.00     0.170 HD
ENDROOT
BRANCH   1   5
HETATM    5  C   UNL     1     -43.069 -53.186  13.162  1.00  0.00     0.113 A 
HETATM    6  C   UNL     1     -43.245 -54.211  14.104  1.00  0.00    -0.018 A 
HETATM    7  C   UNL     1     -42.132 -54.796  14.921  1.00  0.00     0.052 C 
HETATM    8  C   UNL     1     -44.548 -54.712  14.296  1.00  0.00     0.012 A 
HETATM    9  C   UNL     1     -45.613 -54.207  13.562  1.00  0.00     0.018 A 
HETATM   10  C   UNL     1     -45.340 -53.216  12.648  1.00  0.00     0.089 A 
HETATM   11  N   UNL     1     -44.107 -52.713  12.446  1.00  0.00    -0.352 N 
ATOM     12  HN  UNL     1     -43.960 -51.978  11.755  1.00  0.00     0.166 HD
ENDBRANCH   1   5
BRANCH   2  13
HETATM   13  C   UNL     1     -40.144 -50.967  12.284  1.00  0.00     0.159 C 
HETATM   14  C   UNL     1     -39.205 -51.660  12.947  1.00  0.00     0.177 C 
HETATM   15  O   UNL     1     -37.858 -51.482  12.852  1.00  0.00    -0.358 OA
HETATM   16  C   UNL     1     -37.452 -50.419  11.994  1.00  0.00     0.201 C 
HETATM   17  C   UNL     1     -38.543 -49.445  11.537  1.00  0.00     0.202 C 
HETATM   18  O   UNL     1     -39.857 -49.981  11.364  1.00  0.00    -0.342 OA
ENDBRANCH   2  13
TORSDOF 2
ENDMDL
MODEL 8
REMARK VINA RESULT:      -5.1      4.282      6.110
REMARK  2 active torsions:
REMARK  status: ('A' for Active; 'I' for Inactive)
REMARK    1  A    between atoms: C_8  and  N_9 
REMARK       I    between atoms: N_9  and  C_10 
REMARK    2  A    between atoms: C_10  and  C_12 
ROOT
HETATM    1  N   UNL     1     -41.226 -51.857  13.131  1.00  0.00    -0.307 N 
HETATM    2  C   UNL     1     -41.316 -53.214  12.899  1.00  0.00     0.282 C 
HETATM    3  O   UNL     1     -40.431 -53.950  12.473  1.00  0.00    -0.265 OA
HETATM    4  H   UNL     1     -42.031 -51.405  13.535  1.00  0.00     0.170 HD
ENDROOT
BRANCH   1   5
HETATM    5  C   UNL     1     -40.090 -51.074  12.828  1.00  0.00     0.113 A 
HETATM    6  C   UNL     1     -40.205 -49.879  12.101  1.00  0.00    -0.018 A 
HETATM    7  C   UNL     1     -41.504 -49.339  11.580  1.00  0.00     0.052 C 
HETATM    8  C   UNL     1     -39.030 -49.143  11.855  1.00  0.00     0.012 A 
HETATM    9  C   UNL     1     -37.802 -49.600  12.312  1.00  0.00     0.018 A 
HETATM   10  C   UNL     1     -37.785 -50.791  13.000  1.00  0.00     0.089 A 
HETATM   11  N   UNL     1     -38.891 -51.515  13.256  1.00  0.00    -0.352 N 
ATOM     12  HN  UNL     1     -38.822 -52.393  13.770  1.00  0.00     0.166 HD
ENDBRANCH   1   5
BRANCH   2  13
HETATM   13  C   UNL     1     -42.679 -53.796  13.195  1.00  0.00     0.159 C 
HETATM   14  C   UNL     1     -43.686 -53.411  12.395  1.00  0.00     0.177 C 
HETATM   15  O   UNL     1     -44.995 -53.766  12.522  1.00  0.00    -0.358 OA
HETATM   16  C   UNL     1     -45.287 -54.585  13.651  1.00  0.00     0.201 C 
HETATM   17  C   UNL     1     -44.193 -54.712  14.715  1.00  0.00     0.202 C 
HETATM   18  O   UNL     1     -42.838 -54.659  14.258  1.00  0.00    -0.342 OA
ENDBRANCH   2  13
TORSDOF 2
ENDMDL
MODEL 9
REMARK VINA RESULT:      -4.8      3.335      5.767
REMARK  2 active torsions:
REMARK  status: ('A' for Active; 'I' for Inactive)
REMARK    1  A    between atoms: C_8  and  N_9 
REMARK       I    between atoms: N_9  and  C_10 
REMARK    2  A    between atoms: C_10  and  C_12 
ROOT
HETATM    1  N   UNL     1     -40.174 -48.490  12.271  1.00  0.00    -0.307 N 
HETATM    2  C   UNL     1     -39.268 -49.485  11.964  1.00  0.00     0.282 C 
HETATM    3  O   UNL     1     -38.156 -49.342  11.464  1.00  0.00    -0.265 OA
HETATM    4  H   UNL     1     -41.026 -48.769  12.730  1.00  0.00     0.170 HD
ENDROOT
BRANCH   1   5
HETATM    5  C   UNL     1     -39.981 -47.122  11.974  1.00  0.00     0.113 A 
HETATM    6  C   UNL     1     -39.751 -46.184  12.991  1.00  0.00    -0.018 A 
HETATM    7  C   UNL     1     -39.698 -46.528  14.450  1.00  0.00     0.052 C 
HETATM    8  C   UNL     1     -39.549 -44.842  12.615  1.00  0.00     0.012 A 
HETATM    9  C   UNL     1     -39.591 -44.469  11.278  1.00  0.00     0.018 A 
HETATM   10  C   UNL     1     -39.842 -45.456  10.353  1.00  0.00     0.089 A 
HETATM   11  N   UNL     1     -40.033 -46.748  10.680  1.00  0.00    -0.352 N 
ATOM     12  HN  UNL     1     -40.217 -47.440   9.954  1.00  0.00     0.166 HD
ENDBRANCH   1   5
BRANCH   2  13
HETATM   13  C   UNL     1     -39.763 -50.879  12.274  1.00  0.00     0.159 C 
HETATM   14  C   UNL     1     -40.999 -51.188  11.854  1.00  0.00     0.177 C 
HETATM   15  O   UNL     1     -41.656 -52.360  12.079  1.00  0.00    -0.358 OA
HETATM   16  C   UNL     1     -40.947 -53.300  12.881  1.00  0.00     0.201 C 
HETATM   17  C   UNL     1     -39.708 -52.783  13.620  1.00  0.00     0.202 C 
HETATM   18  O   UNL     1     -38.957 -51.749  12.978  1.00  0.00    -0.342 OA
ENDBRANCH   2  13
TORSDOF 2
ENDMDL
