MODEL 1
REMARK VINA RESULT:      -5.7      0.000      0.000
REMARK  6 active torsions:
REMARK  status: ('A' for Active; 'I' for Inactive)
REMARK    1  A    between atoms: C_2  and  C_5 
REMARK    2  A    between atoms: C_5  and  C_6 
REMARK    3  A    between atoms: C_5  and  N_14 
REMARK    4  A    between atoms: C_6  and  C_7 
REMARK    5  A    between atoms: N_14  and  C_15 
REMARK    6  A    between atoms: C_15  and  C_16 
ROOT
HETATM    1  C   UNL     1     -46.162 -52.809  14.156  1.00  0.00     0.331 C 
ENDROOT
BRANCH   1   2
HETATM    2  C   UNL     1     -46.196 -51.876  12.902  1.00  0.00     0.418 C 
HETATM    3  F   UNL     1     -46.149 -52.532  11.726  1.00  0.00    -0.169 F 
HETATM    4  F   UNL     1     -45.142 -51.021  12.892  1.00  0.00    -0.169 F 
HETATM    5  F   UNL     1     -47.318 -51.118  12.909  1.00  0.00    -0.169 F 
ENDBRANCH   1   2
BRANCH   1   6
HETATM    6  C   UNL     1     -47.260 -52.426  15.180  1.00  0.00     0.083 C 
BRANCH   6   7
HETATM    7  C   UNL     1     -46.841 -51.416  16.224  1.00  0.00    -0.053 A 
HETATM    8  C   UNL     1     -47.758 -50.969  17.181  1.00  0.00     0.024 A 
HETATM    9  C   UNL     1     -47.357 -50.016  18.103  1.00  0.00     0.088 A 
HETATM   10  N   UNL     1     -46.113 -49.494  18.146  1.00  0.00    -0.375 N 
HETATM   11  C   UNL     1     -45.235 -49.949  17.228  1.00  0.00     0.088 A 
ATOM     12  HN  UNL     1     -45.850 -48.791  18.838  1.00  0.00     0.164 HD
HETATM   13  C   UNL     1     -45.544 -50.898  16.264  1.00  0.00     0.024 A 
ENDBRANCH   6   7
ENDBRANCH   1   6
BRANCH   1  14
HETATM   14  N   UNL     1     -46.296 -54.284  13.903  1.00  0.00     0.097 N 
HETATM   15  H   UNL     1     -46.794 -54.420  13.019  1.00  0.00     0.316 HD
BRANCH  14  16
HETATM   16  C   UNL     1     -44.989 -54.952  13.806  1.00  0.00     0.275 C 
BRANCH  16  17
HETATM   17  C   UNL     1     -43.841 -54.019  14.262  1.00  0.00     0.017 C 
HETATM   18  C   UNL     1     -42.858 -53.714  13.112  1.00  0.00     0.010 C 
HETATM   19  C   UNL     1     -41.387 -54.102  13.268  1.00  0.00     0.027 C 
HETATM   20  C   UNL     1     -40.945 -54.548  14.616  1.00  0.00    -0.031 C 
HETATM   21  C   UNL     1     -41.769 -54.739  15.649  1.00  0.00    -0.030 C 
HETATM   22  C   UNL     1     -43.244 -54.538  15.588  1.00  0.00     0.033 C 
ENDBRANCH  16  17
ENDBRANCH  14  16
ENDBRANCH   1  14
TORSDOF 6
ENDMDL
MODEL 2
REMARK VINA RESULT:      -5.6      2.719      5.792
REMARK  6 active torsions:
REMARK  status: ('A' for Active; 'I' for Inactive)
REMARK    1  A    between atoms: C_2  and  C_5 
REMARK    2  A    between atoms: C_5  and  C_6 
REMARK    3  A    between atoms: C_5  and  N_14 
REMARK    4  A    between atoms: C_6  and  C_7 
REMARK    5  A    between atoms: N_14  and  C_15 
REMARK    6  A    between atoms: C_15  and  C_16 
ROOT
HETATM    1  C   UNL     1     -42.590 -52.529  13.193  1.00  0.00     0.331 C 
ENDROOT
BRANCH   1   2
HETATM    2  C   UNL     1     -42.818 -51.054  13.658  1.00  0.00     0.418 C 
HETATM    3  F   UNL     1     -43.475 -50.290  12.764  1.00  0.00    -0.169 F 
HETATM    4  F   UNL     1     -41.640 -50.422  13.891  1.00  0.00    -0.169 F 
HETATM    5  F   UNL     1     -43.515 -51.028  14.818  1.00  0.00    -0.169 F 
ENDBRANCH   1   2
BRANCH   1   6
HETATM    6  C   UNL     1     -42.511 -53.500  14.399  1.00  0.00     0.083 C 
BRANCH   6   7
HETATM    7  C   UNL     1     -41.145 -54.092  14.658  1.00  0.00    -0.053 A 
HETATM    8  C   UNL     1     -40.109 -53.907  13.736  1.00  0.00     0.024 A 
HETATM    9  C   UNL     1     -38.878 -54.493  13.983  1.00  0.00     0.088 A 
HETATM   10  N   UNL     1     -38.605 -55.230  15.079  1.00  0.00    -0.375 N 
HETATM   11  C   UNL     1     -39.609 -55.383  15.968  1.00  0.00     0.088 A 
ATOM     12  HN  UNL     1     -37.687 -55.649  15.230  1.00  0.00     0.164 HD
HETATM   13  C   UNL     1     -40.876 -54.839  15.808  1.00  0.00     0.024 A 
ENDBRANCH   6   7
ENDBRANCH   1   6
BRANCH   1  14
HETATM   14  N   UNL     1     -43.602 -53.100  12.239  1.00  0.00     0.097 N 
HETATM   15  H   UNL     1     -43.110 -53.456  11.415  1.00  0.00     0.316 HD
BRANCH  14  16
HETATM   16  C   UNL     1     -44.366 -54.206  12.837  1.00  0.00     0.275 C 
BRANCH  16  17
HETATM   17  C   UNL     1     -45.813 -53.774  13.182  1.00  0.00     0.017 C 
HETATM   18  C   UNL     1     -46.177 -52.421  12.534  1.00  0.00     0.010 C 
HETATM   19  C   UNL     1     -46.580 -51.251  13.433  1.00  0.00     0.027 C 
HETATM   20  C   UNL     1     -46.814 -51.552  14.870  1.00  0.00    -0.031 C 
HETATM   21  C   UNL     1     -46.583 -52.740  15.433  1.00  0.00    -0.030 C 
HETATM   22  C   UNL     1     -46.051 -53.922  14.700  1.00  0.00     0.033 C 
ENDBRANCH  16  17
ENDBRANCH  14  16
ENDBRANCH   1  14
TORSDOF 6
ENDMDL
MODEL 3
REMARK VINA RESULT:      -5.6      4.084      5.672
REMARK  6 active torsions:
REMARK  status: ('A' for Active; 'I' for Inactive)
REMARK    1  A    between atoms: C_2  and  C_5 
REMARK    2  A    between atoms: C_5  and  C_6 
REMARK    3  A    between atoms: C_5  and  N_14 
REMARK    4  A    between atoms: C_6  and  C_7 
REMARK    5  A    between atoms: N_14  and  C_15 
REMARK    6  A    between atoms: C_15  and  C_16 
ROOT
HETATM    1  C   UNL     1     -41.676 -52.306  12.279  1.00  0.00     0.331 C 
ENDROOT
BRANCH   1   2
HETATM    2  C   UNL     1     -40.904 -53.172  13.327  1.00  0.00     0.418 C 
HETATM    3  F   UNL     1     -41.196 -52.875  14.609  1.00  0.00    -0.169 F 
HETATM    4  F   UNL     1     -39.562 -53.014  13.207  1.00  0.00    -0.169 F 
HETATM    5  F   UNL     1     -41.165 -54.487  13.136  1.00  0.00    -0.169 F 
ENDBRANCH   1   2
BRANCH   1   6
HETATM    6  C   UNL     1     -42.720 -51.385  12.959  1.00  0.00     0.083 C 
BRANCH   6   7
HETATM    7  C   UNL     1     -44.088 -51.997  13.154  1.00  0.00    -0.053 A 
HETATM    8  C   UNL     1     -45.191 -51.185  13.433  1.00  0.00     0.024 A 
HETATM    9  C   UNL     1     -46.426 -51.778  13.644  1.00  0.00     0.088 A 
HETATM   10  N   UNL     1     -46.638 -53.108  13.581  1.00  0.00    -0.375 N 
HETATM   11  C   UNL     1     -45.567 -53.877  13.293  1.00  0.00     0.088 A 
ATOM     12  HN  UNL     1     -47.560 -53.513  13.744  1.00  0.00     0.164 HD
HETATM   13  C   UNL     1     -44.292 -53.377  13.069  1.00  0.00     0.024 A 
ENDBRANCH   6   7
ENDBRANCH   1   6
BRANCH   1  14
HETATM   14  N   UNL     1     -40.844 -51.434  11.380  1.00  0.00     0.097 N 
HETATM   15  H   UNL     1     -41.137 -51.589  10.412  1.00  0.00     0.316 HD
BRANCH  14  16
HETATM   16  C   UNL     1     -41.004 -50.005  11.690  1.00  0.00     0.275 C 
BRANCH  16  17
HETATM   17  C   UNL     1     -39.690 -49.393  12.235  1.00  0.00     0.017 C 
HETATM   18  C   UNL     1     -38.452 -49.937  11.490  1.00  0.00     0.010 C 
HETATM   19  C   UNL     1     -37.373 -50.676  12.283  1.00  0.00     0.027 C 
HETATM   20  C   UNL     1     -37.472 -50.629  13.765  1.00  0.00    -0.031 C 
HETATM   21  C   UNL     1     -38.496 -50.089  14.430  1.00  0.00    -0.030 C 
HETATM   22  C   UNL     1     -39.681 -49.468  13.777  1.00  0.00     0.033 C 
ENDBRANCH  16  17
ENDBRANCH  14  16
ENDBRANCH   1  14
TORSDOF 6
ENDMDL
MODEL 4
REMARK VINA RESULT:      -5.6      2.665      3.940
REMARK  6 active torsions:
REMARK  status: ('A' for Active; 'I' for Inactive)
REMARK    1  A    between atoms: C_2  and  C_5 
REMARK    2  A    between atoms: C_5  and  C_6 
REMARK    3  A    between atoms: C_5  and  N_14 
REMARK    4  A    between atoms: C_6  and  C_7 
REMARK    5  A    between atoms: N_14  and  C_15 
REMARK    6  A    between atoms: C_15  and  C_16 
ROOT
HETATM    1  C   UNL     1     -44.905 -52.058  13.805  1.00  0.00     0.331 C 
ENDROOT
BRANCH   1   2
HETATM    2  C   UNL     1     -46.447 -51.822  13.705  1.00  0.00     0.418 C 
HETATM    3  F   UNL     1     -46.854 -51.339  12.515  1.00  0.00    -0.169 F 
HETATM    4  F   UNL     1     -46.872 -50.928  14.633  1.00  0.00    -0.169 F 
HETATM    5  F   UNL     1     -47.116 -52.976  13.935  1.00  0.00    -0.169 F 
ENDBRANCH   1   2
BRANCH   1   6
HETATM    6  C   UNL     1     -44.563 -53.568  13.868  1.00  0.00     0.083 C 
BRANCH   6   7
HETATM    7  C   UNL     1     -43.670 -53.978  15.017  1.00  0.00    -0.053 A 
HETATM    8  C   UNL     1     -43.411 -53.086  16.062  1.00  0.00     0.024 A 
HETATM    9  C   UNL     1     -42.559 -53.475  17.083  1.00  0.00     0.088 A 
HETATM   10  N   UNL     1     -41.965 -54.685  17.142  1.00  0.00    -0.375 N 
HETATM   11  C   UNL     1     -42.239 -55.541  16.135  1.00  0.00     0.088 A 
ATOM     12  HN  UNL     1     -41.341 -54.940  17.907  1.00  0.00     0.164 HD
HETATM   13  C   UNL     1     -43.076 -55.242  15.069  1.00  0.00     0.024 A 
ENDBRANCH   6   7
ENDBRANCH   1   6
BRANCH   1  14
HETATM   14  N   UNL     1     -44.059 -51.465  12.714  1.00  0.00     0.097 N 
HETATM   15  H   UNL     1     -44.670 -50.966  12.061  1.00  0.00     0.316 HD
BRANCH  14  16
HETATM   16  C   UNL     1     -43.065 -50.514  13.236  1.00  0.00     0.275 C 
BRANCH  16  17
HETATM   17  C   UNL     1     -41.620 -50.984  12.935  1.00  0.00     0.017 C 
HETATM   18  C   UNL     1     -41.600 -52.232  12.028  1.00  0.00     0.010 C 
HETATM   19  C   UNL     1     -40.941 -53.514  12.541  1.00  0.00     0.027 C 
HETATM   20  C   UNL     1     -40.157 -53.412  13.800  1.00  0.00    -0.031 C 
HETATM   21  C   UNL     1     -40.095 -52.315  14.557  1.00  0.00    -0.030 C 
HETATM   22  C   UNL     1     -40.809 -51.045  14.247  1.00  0.00     0.033 C 
ENDBRANCH  16  17
ENDBRANCH  14  16
ENDBRANCH   1  14
TORSDOF 6
ENDMDL
MODEL 5
REMARK VINA RESULT:      -5.6      2.318      3.252
REMARK  6 active torsions:
REMARK  status: ('A' for Active; 'I' for Inactive)
REMARK    1  A    between atoms: C_2  and  C_5 
REMARK    2  A    between atoms: C_5  and  C_6 
REMARK    3  A    between atoms: C_5  and  N_14 
REMARK    4  A    between atoms: C_6  and  C_7 
REMARK    5  A    between atoms: N_14  and  C_15 
REMARK    6  A    between atoms: C_15  and  C_16 
ROOT
HETATM    1  C   UNL     1     -43.371 -50.645  13.279  1.00  0.00     0.331 C 
ENDROOT
BRANCH   1   2
HETATM    2  C   UNL     1     -42.951 -49.164  13.009  1.00  0.00     0.418 C 
HETATM    3  F   UNL     1     -41.626 -48.990  12.836  1.00  0.00    -0.169 F 
HETATM    4  F   UNL     1     -43.300 -48.354  14.041  1.00  0.00    -0.169 F 
HETATM    5  F   UNL     1     -43.580 -48.690  11.907  1.00  0.00    -0.169 F 
ENDBRANCH   1   2
BRANCH   1   6
HETATM    6  C   UNL     1     -44.912 -50.800  13.326  1.00  0.00     0.083 C 
BRANCH   6   7
HETATM    7  C   UNL     1     -45.488 -51.096  14.692  1.00  0.00    -0.053 A 
HETATM    8  C   UNL     1     -46.832 -51.455  14.829  1.00  0.00     0.024 A 
HETATM    9  C   UNL     1     -47.341 -51.685  16.097  1.00  0.00     0.088 A 
HETATM   10  N   UNL     1     -46.607 -51.598  17.225  1.00  0.00    -0.375 N 
HETATM   11  C   UNL     1     -45.307 -51.268  17.075  1.00  0.00     0.088 A 
ATOM     12  HN  UNL     1     -47.013 -51.771  18.145  1.00  0.00     0.164 HD
HETATM   13  C   UNL     1     -44.708 -51.017  15.849  1.00  0.00     0.024 A 
ENDBRANCH   6   7
ENDBRANCH   1   6
BRANCH   1  14
HETATM   14  N   UNL     1     -42.858 -51.679  12.317  1.00  0.00     0.097 N 
HETATM   15  H   UNL     1     -42.420 -51.199  11.525  1.00  0.00     0.316 HD
BRANCH  14  16
HETATM   16  C   UNL     1     -41.857 -52.564  12.933  1.00  0.00     0.275 C 
BRANCH  16  17
HETATM   17  C   UNL     1     -42.458 -53.951  13.267  1.00  0.00     0.017 C 
HETATM   18  C   UNL     1     -43.803 -54.183  12.546  1.00  0.00     0.010 C 
HETATM   19  C   UNL     1     -45.058 -54.446  13.380  1.00  0.00     0.027 C 
HETATM   20  C   UNL     1     -44.865 -54.688  14.834  1.00  0.00    -0.031 C 
HETATM   21  C   UNL     1     -43.693 -54.573  15.463  1.00  0.00    -0.030 C 
HETATM   22  C   UNL     1     -42.422 -54.180  14.794  1.00  0.00     0.033 C 
ENDBRANCH  16  17
ENDBRANCH  14  16
ENDBRANCH   1  14
TORSDOF 6
ENDMDL
MODEL 6
REMARK VINA RESULT:      -5.5      4.050      6.550
REMARK  6 active torsions:
REMARK  status: ('A' for Active; 'I' for Inactive)
REMARK    1  A    between atoms: C_2  and  C_5 
REMARK    2  A    between atoms: C_5  and  C_6 
REMARK    3  A    between atoms: C_5  and  N_14 
REMARK    4  A    between atoms: C_6  and  C_7 
REMARK    5  A    between atoms: N_14  and  C_15 
REMARK    6  A    between atoms: C_15  and  C_16 
ROOT
HETATM    1  C   UNL     1     -41.661 -52.701  13.593  1.00  0.00     0.331 C 
ENDROOT
BRANCH   1   2
HETATM    2  C   UNL     1     -41.270 -54.208  13.742  1.00  0.00     0.418 C 
HETATM    3  F   UNL     1     -40.172 -54.420  14.493  1.00  0.00    -0.169 F 
HETATM    4  F   UNL     1     -41.010 -54.773  12.536  1.00  0.00    -0.169 F 
HETATM    5  F   UNL     1     -42.291 -54.907  14.292  1.00  0.00    -0.169 F 
ENDBRANCH   1   2
BRANCH   1   6
HETATM    6  C   UNL     1     -41.136 -52.106  12.263  1.00  0.00     0.083 C 
BRANCH   6   7
HETATM    7  C   UNL     1     -39.973 -51.149  12.401  1.00  0.00    -0.053 A 
HETATM    8  C   UNL     1     -38.943 -51.417  13.308  1.00  0.00     0.024 A 
HETATM    9  C   UNL     1     -37.909 -50.504  13.440  1.00  0.00     0.088 A 
HETATM   10  N   UNL     1     -37.824 -49.362  12.728  1.00  0.00    -0.375 N 
HETATM   11  C   UNL     1     -38.816 -49.127  11.843  1.00  0.00     0.088 A 
ATOM     12  HN  UNL     1     -37.049 -48.709  12.850  1.00  0.00     0.164 HD
HETATM   13  C   UNL     1     -39.893 -49.978  11.643  1.00  0.00     0.024 A 
ENDBRANCH   6   7
ENDBRANCH   1   6
BRANCH   1  14
HETATM   14  N   UNL     1     -43.126 -52.374  13.670  1.00  0.00     0.097 N 
HETATM   15  H   UNL     1     -43.228 -51.365  13.814  1.00  0.00     0.316 HD
BRANCH  14  16
HETATM   16  C   UNL     1     -43.842 -52.740  12.438  1.00  0.00     0.275 C 
BRANCH  16  17
HETATM   17  C   UNL     1     -45.357 -52.928  12.699  1.00  0.00     0.017 C 
HETATM   18  C   UNL     1     -46.057 -51.587  13.005  1.00  0.00     0.010 C 
HETATM   19  C   UNL     1     -46.771 -51.410  14.346  1.00  0.00     0.027 C 
HETATM   20  C   UNL     1     -46.942 -52.625  15.186  1.00  0.00    -0.031 C 
HETATM   21  C   UNL     1     -46.413 -53.816  14.896  1.00  0.00    -0.030 C 
HETATM   22  C   UNL     1     -45.573 -54.087  13.696  1.00  0.00     0.033 C 
ENDBRANCH  16  17
ENDBRANCH  14  16
ENDBRANCH   1  14
TORSDOF 6
ENDMDL
MODEL 7
REMARK VINA RESULT:      -5.5      3.083      5.006
REMARK  6 active torsions:
REMARK  status: ('A' for Active; 'I' for Inactive)
REMARK    1  A    between atoms: C_2  and  C_5 
REMARK    2  A    between atoms: C_5  and  C_6 
REMARK    3  A    between atoms: C_5  and  N_14 
REMARK    4  A    between atoms: C_6  and  C_7 
REMARK    5  A    between atoms: N_14  and  C_15 
REMARK    6  A    between atoms: C_15  and  C_16 
ROOT
HETATM    1  C   UNL     1     -44.614 -51.933  13.245  1.00  0.00     0.331 C 
ENDROOT
BRANCH   1   2
HETATM    2  C   UNL     1     -46.130 -52.226  13.004  1.00  0.00     0.418 C 
HETATM    3  F   UNL     1     -46.458 -52.403  11.709  1.00  0.00    -0.169 F 
HETATM    4  F   UNL     1     -46.908 -51.206  13.448  1.00  0.00    -0.169 F 
HETATM    5  F   UNL     1     -46.510 -53.334  13.683  1.00  0.00    -0.169 F 
ENDBRANCH   1   2
BRANCH   1   6
HETATM    6  C   UNL     1     -43.715 -53.015  12.595  1.00  0.00     0.083 C 
BRANCH   6   7
HETATM    7  C   UNL     1     -42.515 -53.431  13.415  1.00  0.00    -0.053 A 
HETATM    8  C   UNL     1     -42.523 -53.279  14.805  1.00  0.00     0.024 A 
HETATM    9  C   UNL     1     -41.396 -53.635  15.527  1.00  0.00     0.088 A 
HETATM   10  N   UNL     1     -40.277 -54.141  14.967  1.00  0.00    -0.375 N 
HETATM   11  C   UNL     1     -40.292 -54.300  13.627  1.00  0.00     0.088 A 
ATOM     12  HN  UNL     1     -39.462 -54.392  15.528  1.00  0.00     0.164 HD
HETATM   13  C   UNL     1     -41.371 -53.970  12.820  1.00  0.00     0.024 A 
ENDBRANCH   6   7
ENDBRANCH   1   6
BRANCH   1  14
HETATM   14  N   UNL     1     -44.101 -50.600  12.777  1.00  0.00     0.097 N 
HETATM   15  H   UNL     1     -44.885 -50.066  12.391  1.00  0.00     0.316 HD
BRANCH  14  16
HETATM   16  C   UNL     1     -43.502 -49.820  13.871  1.00  0.00     0.275 C 
BRANCH  16  17
HETATM   17  C   UNL     1     -42.088 -49.312  13.495  1.00  0.00     0.017 C 
HETATM   18  C   UNL     1     -41.782 -49.522  11.997  1.00  0.00     0.010 C 
HETATM   19  C   UNL     1     -40.589 -50.390  11.596  1.00  0.00     0.027 C 
HETATM   20  C   UNL     1     -39.656 -50.798  12.679  1.00  0.00    -0.031 C 
HETATM   21  C   UNL     1     -39.861 -50.554  13.975  1.00  0.00    -0.030 C 
HETATM   22  C   UNL     1     -41.057 -49.847  14.512  1.00  0.00     0.033 C 
ENDBRANCH  16  17
ENDBRANCH  14  16
ENDBRANCH   1  14
TORSDOF 6
ENDMDL
MODEL 8
REMARK VINA RESULT:      -5.4      2.958      3.913
REMARK  6 active torsions:
REMARK  status: ('A' for Active; 'I' for Inactive)
REMARK    1  A    between atoms: C_2  and  C_5 
REMARK    2  A    between atoms: C_5  and  C_6 
REMARK    3  A    between atoms: C_5  and  N_14 
REMARK    4  A    between atoms: C_6  and  C_7 
REMARK    5  A    between atoms: N_14  and  C_15 
REMARK    6  A    between atoms: C_15  and  C_16 
ROOT
HETATM    1  C   UNL     1     -44.996 -51.816  13.771  1.00  0.00     0.331 C 
ENDROOT
BRANCH   1   2
HETATM    2  C   UNL     1     -46.558 -51.762  13.809  1.00  0.00     0.418 C 
HETATM    3  F   UNL     1     -47.057 -50.976  14.783  1.00  0.00    -0.169 F 
HETATM    4  F   UNL     1     -47.091 -52.993  14.015  1.00  0.00    -0.169 F 
HETATM    5  F   UNL     1     -47.043 -51.316  12.626  1.00  0.00    -0.169 F 
ENDBRANCH   1   2
BRANCH   1   6
HETATM    6  C   UNL     1     -44.367 -50.866  14.821  1.00  0.00     0.083 C 
BRANCH   6   7
HETATM    7  C   UNL     1     -43.408 -49.838  14.264  1.00  0.00    -0.053 A 
HETATM    8  C   UNL     1     -43.301 -49.648  12.883  1.00  0.00     0.024 A 
HETATM    9  C   UNL     1     -42.387 -48.725  12.400  1.00  0.00     0.088 A 
HETATM   10  N   UNL     1     -41.592 -47.975  13.191  1.00  0.00    -0.375 N 
HETATM   11  C   UNL     1     -41.720 -48.157  14.522  1.00  0.00     0.088 A 
ATOM     12  HN  UNL     1     -40.927 -47.305  12.804  1.00  0.00     0.164 HD
HETATM   13  C   UNL     1     -42.603 -49.059  15.100  1.00  0.00     0.024 A 
ENDBRANCH   6   7
ENDBRANCH   1   6
BRANCH   1  14
HETATM   14  N   UNL     1     -44.363 -53.165  13.968  1.00  0.00     0.097 N 
HETATM   15  H   UNL     1     -45.104 -53.853  14.134  1.00  0.00     0.316 HD
BRANCH  14  16
HETATM   16  C   UNL     1     -43.589 -53.594  12.793  1.00  0.00     0.275 C 
BRANCH  16  17
HETATM   17  C   UNL     1     -42.080 -53.714  13.122  1.00  0.00     0.017 C 
HETATM   18  C   UNL     1     -41.819 -53.659  14.642  1.00  0.00     0.010 C 
HETATM   19  C   UNL     1     -40.925 -52.552  15.203  1.00  0.00     0.027 C 
HETATM   20  C   UNL     1     -40.177 -51.725  14.220  1.00  0.00    -0.031 C 
HETATM   21  C   UNL     1     -40.328 -51.815  12.897  1.00  0.00    -0.030 C 
HETATM   22  C   UNL     1     -41.274 -52.750  12.226  1.00  0.00     0.033 C 
ENDBRANCH  16  17
ENDBRANCH  14  16
ENDBRANCH   1  14
TORSDOF 6
ENDMDL
MODEL 9
REMARK VINA RESULT:      -5.4      4.011      5.992
REMARK  6 active torsions:
REMARK  status: ('A' for Active; 'I' for Inactive)
REMARK    1  A    between atoms: C_2  and  C_5 
REMARK    2  A    between atoms: C_5  and  C_6 
REMARK    3  A    between atoms: C_5  and  N_14 
REMARK    4  A    between atoms: C_6  and  C_7 
REMARK    5  A    between atoms: N_14  and  C_15 
REMARK    6  A    between atoms: C_15  and  C_16 
ROOT
HETATM    1  C   UNL     1     -41.704 -52.510  12.895  1.00  0.00     0.331 C 
ENDROOT
BRANCH   1   2
HETATM    2  C   UNL     1     -40.918 -53.784  13.347  1.00  0.00     0.418 C 
HETATM    3  F   UNL     1     -41.343 -54.309  14.512  1.00  0.00    -0.169 F 
HETATM    4  F   UNL     1     -39.599 -53.517  13.519  1.00  0.00    -0.169 F 
HETATM    5  F   UNL     1     -41.003 -54.750  12.401  1.00  0.00    -0.169 F 
ENDBRANCH   1   2
BRANCH   1   6
HETATM    6  C   UNL     1     -40.745 -51.384  12.433  1.00  0.00     0.083 C 
BRANCH   6   7
HETATM    7  C   UNL     1     -41.399 -50.044  12.187  1.00  0.00    -0.053 A 
HETATM    8  C   UNL     1     -41.180 -49.361  10.987  1.00  0.00     0.024 A 
HETATM    9  C   UNL     1     -41.763 -48.117  10.804  1.00  0.00     0.088 A 
HETATM   10  N   UNL     1     -42.553 -47.520  11.720  1.00  0.00    -0.375 N 
HETATM   11  C   UNL     1     -42.769 -48.199  12.866  1.00  0.00     0.088 A 
ATOM     12  HN  UNL     1     -42.965 -46.601  11.555  1.00  0.00     0.164 HD
HETATM   13  C   UNL     1     -42.228 -49.447  13.141  1.00  0.00     0.024 A 
ENDBRANCH   6   7
ENDBRANCH   1   6
BRANCH   1  14
HETATM   14  N   UNL     1     -42.719 -52.696  11.802  1.00  0.00     0.097 N 
HETATM   15  H   UNL     1     -42.353 -53.374  11.129  1.00  0.00     0.316 HD
BRANCH  14  16
HETATM   16  C   UNL     1     -44.003 -53.198  12.316  1.00  0.00     0.275 C 
BRANCH  16  17
HETATM   17  C   UNL     1     -44.379 -52.522  13.657  1.00  0.00     0.017 C 
HETATM   18  C   UNL     1     -44.727 -53.561  14.745  1.00  0.00     0.010 C 
HETATM   19  C   UNL     1     -46.117 -53.532  15.383  1.00  0.00     0.027 C 
HETATM   20  C   UNL     1     -46.977 -52.359  15.076  1.00  0.00    -0.031 C 
HETATM   21  C   UNL     1     -46.657 -51.405  14.199  1.00  0.00    -0.030 C 
HETATM   22  C   UNL     1     -45.399 -51.392  13.402  1.00  0.00     0.033 C 
ENDBRANCH  16  17
ENDBRANCH  14  16
ENDBRANCH   1  14
TORSDOF 6
ENDMDL
