MODEL 1
REMARK VINA RESULT:      -6.0      0.000      0.000
REMARK  7 active torsions:
REMARK  status: ('A' for Active; 'I' for Inactive)
REMARK    1  A    between atoms: N_2  and  C_16 
REMARK    2  A    between atoms: C_3  and  N_7 
REMARK    3  A    between atoms: N_7  and  C_9 
REMARK    4  A    between atoms: N_7  and  C_21 
REMARK    5  A    between atoms: C_16  and  C_18 
REMARK    6  A    between atoms: C_18  and  O_25 
REMARK    7  A    between atoms: C_21  and  C_22 
ROOT
HETATM    1  N   UNL     1     -44.148 -54.953  17.699  1.00  0.00    -0.197 NA
HETATM    2  C   UNL     1     -43.355 -54.678  16.892  1.00  0.00     0.065 C 
HETATM    3  C   UNL     1     -42.291 -54.354  15.928  1.00  0.00     0.106 C 
HETATM    4  C   UNL     1     -41.012 -55.075  16.365  1.00  0.00     0.027 C 
ENDROOT
BRANCH   3   5
HETATM    5  C   UNL     1     -42.688 -54.770  14.501  1.00  0.00     0.143 C 
BRANCH   5   6
HETATM    6  N   UNL     1     -43.489 -53.749  13.812  1.00  0.00    -0.359 N 
BRANCH   6   7
HETATM    7  C   UNL     1     -42.743 -52.830  13.042  1.00  0.00     0.135 A 
HETATM    8  C   UNL     1     -42.810 -51.418  13.180  1.00  0.00     0.122 A 
HETATM    9  C   UNL     1     -41.899 -50.667  12.453  1.00  0.00     0.140 A 
HETATM   10  N   UNL     1     -43.639 -50.576  13.906  1.00  0.00    -0.346 N 
HETATM   11  N   UNL     1     -42.177 -49.360  12.759  1.00  0.00    -0.324 N 
HETATM   12  N   UNL     1     -40.944 -51.119  11.628  1.00  0.00    -0.336 N 
HETATM   13  C   UNL     1     -43.251 -49.356  13.607  1.00  0.00     0.185 A 
HETATM   14  C   UNL     1     -40.995 -52.460  11.527  1.00  0.00     0.183 A 
ATOM     15  HN  UNL     1     -40.269 -50.528  11.144  1.00  0.00     0.168 HD
HETATM   16  N   UNL     1     -41.836 -53.318  12.145  1.00  0.00    -0.337 N 
ATOM     17  HN  UNL     1     -41.795 -54.317  11.943  1.00  0.00     0.168 HD
ATOM     18  HN  UNL     1     -44.392 -50.846  14.539  1.00  0.00     0.167 HD
BRANCH  11  19
HETATM   19  C   UNL     1     -41.541 -48.188  12.190  1.00  0.00     0.171 C 
BRANCH  19  20
HETATM   20  C   UNL     1     -42.064 -47.773  10.805  1.00  0.00     0.097 C 
HETATM   21  C   UNL     1     -41.828 -46.327  10.410  1.00  0.00     0.068 C 
HETATM   22  C   UNL     1     -42.971 -46.033   9.451  1.00  0.00     0.170 C 
HETATM   23  O   UNL     1     -44.043 -46.931   9.758  1.00  0.00    -0.388 OA
HETATM   24  C   UNL     1     -43.594 -47.842  10.773  1.00  0.00     0.207 C 
BRANCH  20  25
HETATM   25  O   UNL     1     -41.553 -48.632   9.779  1.00  0.00    -0.386 OA
HETATM   26  H   UNL     1     -41.971 -48.412   8.927  1.00  0.00     0.210 HD
ENDBRANCH  20  25
ENDBRANCH  19  20
ENDBRANCH  11  19
ENDBRANCH   6   7
BRANCH   6  27
HETATM   27  C   UNL     1     -44.838 -54.114  13.346  1.00  0.00     0.086 A 
HETATM   28  C   UNL     1     -45.996 -53.864  14.285  1.00  0.00     0.027 A 
HETATM   29  C   UNL     1     -45.628 -55.263  13.906  1.00  0.00     0.027 A 
ENDBRANCH   6  27
ENDBRANCH   5   6
ENDBRANCH   3   5
TORSDOF 7
ENDMDL
MODEL 2
REMARK VINA RESULT:      -5.9      2.932      7.589
REMARK  7 active torsions:
REMARK  status: ('A' for Active; 'I' for Inactive)
REMARK    1  A    between atoms: N_2  and  C_16 
REMARK    2  A    between atoms: C_3  and  N_7 
REMARK    3  A    between atoms: N_7  and  C_9 
REMARK    4  A    between atoms: N_7  and  C_21 
REMARK    5  A    between atoms: C_16  and  C_18 
REMARK    6  A    between atoms: C_18  and  O_25 
REMARK    7  A    between atoms: C_21  and  C_22 
ROOT
HETATM    1  N   UNL     1     -41.956 -42.838  10.761  1.00  0.00    -0.197 NA
HETATM    2  C   UNL     1     -41.615 -43.939  10.918  1.00  0.00     0.065 C 
HETATM    3  C   UNL     1     -41.109 -45.302  11.149  1.00  0.00     0.106 C 
HETATM    4  C   UNL     1     -39.963 -45.223  12.163  1.00  0.00     0.027 C 
ENDROOT
BRANCH   3   5
HETATM    5  C   UNL     1     -42.224 -46.230  11.662  1.00  0.00     0.143 C 
BRANCH   5   6
HETATM    6  N   UNL     1     -42.434 -47.399  10.798  1.00  0.00    -0.359 N 
BRANCH   6   7
HETATM    7  C   UNL     1     -41.908 -48.610  11.301  1.00  0.00     0.135 A 
HETATM    8  C   UNL     1     -42.466 -49.347  12.379  1.00  0.00     0.122 A 
HETATM    9  C   UNL     1     -41.916 -50.591  12.647  1.00  0.00     0.140 A 
HETATM   10  N   UNL     1     -43.481 -49.079  13.284  1.00  0.00    -0.346 N 
HETATM   11  N   UNL     1     -42.621 -51.079  13.716  1.00  0.00    -0.324 N 
HETATM   12  N   UNL     1     -40.910 -51.195  11.997  1.00  0.00    -0.336 N 
HETATM   13  C   UNL     1     -43.526 -50.121  14.083  1.00  0.00     0.185 A 
HETATM   14  C   UNL     1     -40.419 -50.398  11.030  1.00  0.00     0.183 A 
ATOM     15  HN  UNL     1     -40.565 -52.131  12.207  1.00  0.00     0.168 HD
HETATM   16  N   UNL     1     -40.827 -49.161  10.673  1.00  0.00    -0.337 N 
ATOM     17  HN  UNL     1     -40.334 -48.644   9.945  1.00  0.00     0.168 HD
ATOM     18  HN  UNL     1     -44.071 -48.247  13.322  1.00  0.00     0.167 HD
BRANCH  11  19
HETATM   19  C   UNL     1     -42.372 -52.324  14.416  1.00  0.00     0.171 C 
BRANCH  19  20
HETATM   20  C   UNL     1     -43.080 -53.554  13.827  1.00  0.00     0.097 C 
HETATM   21  C   UNL     1     -44.557 -53.391  13.522  1.00  0.00     0.068 C 
HETATM   22  C   UNL     1     -45.103 -54.804  13.655  1.00  0.00     0.170 C 
HETATM   23  O   UNL     1     -44.232 -55.530  14.528  1.00  0.00    -0.388 OA
HETATM   24  C   UNL     1     -43.115 -54.689  14.856  1.00  0.00     0.207 C 
BRANCH  20  25
HETATM   25  O   UNL     1     -42.405 -54.029  12.656  1.00  0.00    -0.386 OA
HETATM   26  H   UNL     1     -42.307 -54.998  12.704  1.00  0.00     0.210 HD
ENDBRANCH  20  25
ENDBRANCH  19  20
ENDBRANCH  11  19
ENDBRANCH   6   7
BRANCH   6  27
HETATM   27  C   UNL     1     -43.660 -47.459   9.985  1.00  0.00     0.086 A 
HETATM   28  C   UNL     1     -43.502 -47.585   8.486  1.00  0.00     0.027 A 
HETATM   29  C   UNL     1     -44.108 -46.350   9.074  1.00  0.00     0.027 A 
ENDBRANCH   6  27
ENDBRANCH   5   6
ENDBRANCH   3   5
TORSDOF 7
ENDMDL
MODEL 3
REMARK VINA RESULT:      -5.8      2.384      4.388
REMARK  7 active torsions:
REMARK  status: ('A' for Active; 'I' for Inactive)
REMARK    1  A    between atoms: N_2  and  C_16 
REMARK    2  A    between atoms: C_3  and  N_7 
REMARK    3  A    between atoms: N_7  and  C_9 
REMARK    4  A    between atoms: N_7  and  C_21 
REMARK    5  A    between atoms: C_16  and  C_18 
REMARK    6  A    between atoms: C_18  and  O_25 
REMARK    7  A    between atoms: C_21  and  C_22 
ROOT
HETATM    1  N   UNL     1     -45.391 -54.854  13.320  1.00  0.00    -0.197 NA
HETATM    2  C   UNL     1     -45.197 -53.715  13.177  1.00  0.00     0.065 C 
HETATM    3  C   UNL     1     -45.035 -52.266  12.977  1.00  0.00     0.106 C 
HETATM    4  C   UNL     1     -46.415 -51.610  13.086  1.00  0.00     0.027 C 
ENDROOT
BRANCH   3   5
HETATM    5  C   UNL     1     -44.066 -51.667  14.011  1.00  0.00     0.143 C 
BRANCH   5   6
HETATM    6  N   UNL     1     -42.862 -51.091  13.396  1.00  0.00    -0.359 N 
BRANCH   6   7
HETATM    7  C   UNL     1     -42.798 -49.680  13.428  1.00  0.00     0.135 A 
HETATM    8  C   UNL     1     -42.602 -48.854  12.290  1.00  0.00     0.122 A 
HETATM    9  C   UNL     1     -42.718 -47.484  12.474  1.00  0.00     0.140 A 
HETATM   10  N   UNL     1     -42.288 -49.123  10.967  1.00  0.00    -0.346 N 
HETATM   11  N   UNL     1     -42.484 -46.929  11.244  1.00  0.00    -0.324 N 
HETATM   12  N   UNL     1     -43.003 -46.837  13.614  1.00  0.00    -0.336 N 
HETATM   13  C   UNL     1     -42.197 -47.951  10.380  1.00  0.00     0.185 A 
HETATM   14  C   UNL     1     -43.120 -47.700  14.639  1.00  0.00     0.183 A 
ATOM     15  HN  UNL     1     -43.116 -45.826  13.692  1.00  0.00     0.168 HD
HETATM   16  N   UNL     1     -43.006 -49.046  14.620  1.00  0.00    -0.337 N 
ATOM     17  HN  UNL     1     -43.075 -49.583  15.485  1.00  0.00     0.168 HD
ATOM     18  HN  UNL     1     -42.155 -50.039  10.538  1.00  0.00     0.167 HD
BRANCH  11  19
HETATM   19  C   UNL     1     -42.420 -45.514  10.935  1.00  0.00     0.171 C 
BRANCH  19  20
HETATM   20  C   UNL     1     -41.011 -44.902  10.980  1.00  0.00     0.097 C 
HETATM   21  C   UNL     1     -40.109 -45.386  12.101  1.00  0.00     0.068 C 
HETATM   22  C   UNL     1     -39.176 -44.208  12.334  1.00  0.00     0.170 C 
HETATM   23  O   UNL     1     -39.845 -43.023  11.893  1.00  0.00    -0.388 OA
HETATM   24  C   UNL     1     -41.093 -43.404  11.293  1.00  0.00     0.207 C 
BRANCH  20  25
HETATM   25  O   UNL     1     -40.335 -45.063   9.727  1.00  0.00    -0.386 OA
HETATM   26  H   UNL     1     -40.891 -45.585   9.119  1.00  0.00     0.210 HD
ENDBRANCH  20  25
ENDBRANCH  19  20
ENDBRANCH  11  19
ENDBRANCH   6   7
BRANCH   6  27
HETATM   27  C   UNL     1     -41.601 -51.847  13.481  1.00  0.00     0.086 A 
HETATM   28  C   UNL     1     -40.965 -52.296  12.185  1.00  0.00     0.027 A 
HETATM   29  C   UNL     1     -41.486 -53.310  13.154  1.00  0.00     0.027 A 
ENDBRANCH   6  27
ENDBRANCH   5   6
ENDBRANCH   3   5
TORSDOF 7
ENDMDL
MODEL 4
REMARK VINA RESULT:      -5.8      1.822      3.389
REMARK  7 active torsions:
REMARK  status: ('A' for Active; 'I' for Inactive)
REMARK    1  A    between atoms: N_2  and  C_16 
REMARK    2  A    between atoms: C_3  and  N_7 
REMARK    3  A    between atoms: N_7  and  C_9 
REMARK    4  A    between atoms: N_7  and  C_21 
REMARK    5  A    between atoms: C_16  and  C_18 
REMARK    6  A    between atoms: C_18  and  O_25 
REMARK    7  A    between atoms: C_21  and  C_22 
ROOT
HETATM    1  N   UNL     1     -45.873 -55.730  13.959  1.00  0.00    -0.197 NA
HETATM    2  C   UNL     1     -45.153 -54.857  13.686  1.00  0.00     0.065 C 
HETATM    3  C   UNL     1     -44.304 -53.724  13.287  1.00  0.00     0.106 C 
HETATM    4  C   UNL     1     -45.201 -52.643  12.675  1.00  0.00     0.027 C 
ENDROOT
BRANCH   3   5
HETATM    5  C   UNL     1     -43.522 -53.164  14.488  1.00  0.00     0.143 C 
BRANCH   5   6
HETATM    6  N   UNL     1     -42.239 -52.562  14.102  1.00  0.00    -0.359 N 
BRANCH   6   7
HETATM    7  C   UNL     1     -42.260 -51.156  13.967  1.00  0.00     0.135 A 
HETATM    8  C   UNL     1     -41.774 -50.445  12.838  1.00  0.00     0.122 A 
HETATM    9  C   UNL     1     -42.011 -49.079  12.799  1.00  0.00     0.140 A 
HETATM   10  N   UNL     1     -41.062 -50.829  11.712  1.00  0.00    -0.346 N 
HETATM   11  N   UNL     1     -41.446 -48.644  11.630  1.00  0.00    -0.324 N 
HETATM   12  N   UNL     1     -42.659 -48.339  13.710  1.00  0.00    -0.336 N 
HETATM   13  C   UNL     1     -40.860 -49.725  11.029  1.00  0.00     0.185 A 
HETATM   14  C   UNL     1     -43.034 -49.092  14.760  1.00  0.00     0.183 A 
ATOM     15  HN  UNL     1     -42.843 -47.340  13.619  1.00  0.00     0.168 HD
HETATM   16  N   UNL     1     -42.851 -50.416  14.952  1.00  0.00    -0.337 N 
ATOM     17  HN  UNL     1     -43.149 -50.859  15.822  1.00  0.00     0.168 HD
ATOM     18  HN  UNL     1     -40.759 -51.772  11.465  1.00  0.00     0.167 HD
BRANCH  11  19
HETATM   19  C   UNL     1     -41.366 -47.271  11.170  1.00  0.00     0.171 C 
BRANCH  19  20
HETATM   20  C   UNL     1     -42.681 -46.689  10.628  1.00  0.00     0.097 C 
HETATM   21  C   UNL     1     -43.223 -47.331   9.364  1.00  0.00     0.068 C 
HETATM   22  C   UNL     1     -44.013 -46.208   8.710  1.00  0.00     0.170 C 
HETATM   23  O   UNL     1     -43.472 -44.966   9.170  1.00  0.00    -0.388 OA
HETATM   24  C   UNL     1     -42.469 -45.246  10.158  1.00  0.00     0.207 C 
BRANCH  20  25
HETATM   25  O   UNL     1     -43.702 -46.690  11.633  1.00  0.00    -0.386 OA
HETATM   26  H   UNL     1     -44.276 -47.469  11.519  1.00  0.00     0.210 HD
ENDBRANCH  20  25
ENDBRANCH  19  20
ENDBRANCH  11  19
ENDBRANCH   6   7
BRANCH   6  27
HETATM   27  C   UNL     1     -40.997 -53.196  14.576  1.00  0.00     0.086 A 
HETATM   28  C   UNL     1     -40.298 -54.154  13.639  1.00  0.00     0.027 A 
HETATM   29  C   UNL     1     -40.888 -54.656  14.919  1.00  0.00     0.027 A 
ENDBRANCH   6  27
ENDBRANCH   5   6
ENDBRANCH   3   5
TORSDOF 7
ENDMDL
MODEL 5
REMARK VINA RESULT:      -5.8      2.332      3.787
REMARK  7 active torsions:
REMARK  status: ('A' for Active; 'I' for Inactive)
REMARK    1  A    between atoms: N_2  and  C_16 
REMARK    2  A    between atoms: C_3  and  N_7 
REMARK    3  A    between atoms: N_7  and  C_9 
REMARK    4  A    between atoms: N_7  and  C_21 
REMARK    5  A    between atoms: C_16  and  C_18 
REMARK    6  A    between atoms: C_18  and  O_25 
REMARK    7  A    between atoms: C_21  and  C_22 
ROOT
HETATM    1  N   UNL     1     -44.859 -53.353  12.263  1.00  0.00    -0.197 NA
HETATM    2  C   UNL     1     -44.578 -52.464  12.960  1.00  0.00     0.065 C 
HETATM    3  C   UNL     1     -44.307 -51.327  13.855  1.00  0.00     0.106 C 
HETATM    4  C   UNL     1     -45.551 -51.088  14.717  1.00  0.00     0.027 C 
ENDROOT
BRANCH   3   5
HETATM    5  C   UNL     1     -43.078 -51.596  14.739  1.00  0.00     0.143 C 
BRANCH   5   6
HETATM    6  N   UNL     1     -41.837 -51.732  13.964  1.00  0.00    -0.359 N 
BRANCH   6   7
HETATM    7  C   UNL     1     -41.102 -50.537  13.808  1.00  0.00     0.135 A 
HETATM    8  C   UNL     1     -41.128 -49.717  12.648  1.00  0.00     0.122 A 
HETATM    9  C   UNL     1     -40.468 -48.499  12.719  1.00  0.00     0.140 A 
HETATM   10  N   UNL     1     -41.682 -49.878  11.388  1.00  0.00    -0.346 N 
HETATM   11  N   UNL     1     -40.642 -47.919  11.490  1.00  0.00    -0.324 N 
HETATM   12  N   UNL     1     -39.804 -47.992  13.767  1.00  0.00    -0.336 N 
HETATM   13  C   UNL     1     -41.347 -48.800  10.716  1.00  0.00     0.185 A 
HETATM   14  C   UNL     1     -39.794 -48.861  14.794  1.00  0.00     0.183 A 
ATOM     15  HN  UNL     1     -39.366 -47.071  13.784  1.00  0.00     0.168 HD
HETATM   16  N   UNL     1     -40.362 -50.085  14.864  1.00  0.00    -0.337 N 
ATOM     17  HN  UNL     1     -40.240 -50.664  15.695  1.00  0.00     0.168 HD
ATOM     18  HN  UNL     1     -42.234 -50.668  11.052  1.00  0.00     0.167 HD
BRANCH  11  19
HETATM   19  C   UNL     1     -40.074 -46.663  11.042  1.00  0.00     0.171 C 
BRANCH  19  20
HETATM   20  C   UNL     1     -41.092 -45.534  10.815  1.00  0.00     0.097 C 
HETATM   21  C   UNL     1     -40.563 -44.119  10.964  1.00  0.00     0.068 C 
HETATM   22  C   UNL     1     -41.791 -43.328  11.387  1.00  0.00     0.170 C 
HETATM   23  O   UNL     1     -42.704 -44.235  12.013  1.00  0.00    -0.388 OA
HETATM   24  C   UNL     1     -42.169 -45.563  11.904  1.00  0.00     0.207 C 
BRANCH  20  25
HETATM   25  O   UNL     1     -41.736 -45.665   9.541  1.00  0.00    -0.386 OA
HETATM   26  H   UNL     1     -41.324 -45.057   8.900  1.00  0.00     0.210 HD
ENDBRANCH  20  25
ENDBRANCH  19  20
ENDBRANCH  11  19
ENDBRANCH   6   7
BRANCH   6  27
HETATM   27  C   UNL     1     -41.093 -53.000  14.050  1.00  0.00     0.086 A 
HETATM   28  C   UNL     1     -41.209 -53.961  12.888  1.00  0.00     0.027 A 
HETATM   29  C   UNL     1     -41.751 -54.340  14.230  1.00  0.00     0.027 A 
ENDBRANCH   6  27
ENDBRANCH   5   6
ENDBRANCH   3   5
TORSDOF 7
ENDMDL
MODEL 6
REMARK VINA RESULT:      -5.7      3.156      7.937
REMARK  7 active torsions:
REMARK  status: ('A' for Active; 'I' for Inactive)
REMARK    1  A    between atoms: N_2  and  C_16 
REMARK    2  A    between atoms: C_3  and  N_7 
REMARK    3  A    between atoms: N_7  and  C_9 
REMARK    4  A    between atoms: N_7  and  C_21 
REMARK    5  A    between atoms: C_16  and  C_18 
REMARK    6  A    between atoms: C_18  and  O_25 
REMARK    7  A    between atoms: C_21  and  C_22 
ROOT
HETATM    1  N   UNL     1     -40.445 -42.297  12.517  1.00  0.00    -0.197 NA
HETATM    2  C   UNL     1     -40.857 -43.138  11.825  1.00  0.00     0.065 C 
HETATM    3  C   UNL     1     -41.295 -44.220  10.930  1.00  0.00     0.106 C 
HETATM    4  C   UNL     1     -40.116 -45.176  10.719  1.00  0.00     0.027 C 
ENDROOT
BRANCH   3   5
HETATM    5  C   UNL     1     -42.504 -44.971  11.516  1.00  0.00     0.143 C 
BRANCH   5   6
HETATM    6  N   UNL     1     -42.648 -46.329  10.974  1.00  0.00    -0.359 N 
BRANCH   6   7
HETATM    7  C   UNL     1     -42.433 -47.366  11.909  1.00  0.00     0.135 A 
HETATM    8  C   UNL     1     -41.609 -48.500  11.682  1.00  0.00     0.122 A 
HETATM    9  C   UNL     1     -41.384 -49.345  12.759  1.00  0.00     0.140 A 
HETATM   10  N   UNL     1     -40.957 -48.988  10.560  1.00  0.00    -0.346 N 
HETATM   11  N   UNL     1     -40.577 -50.342  12.279  1.00  0.00    -0.324 N 
HETATM   12  N   UNL     1     -41.852 -49.214  14.009  1.00  0.00    -0.336 N 
HETATM   13  C   UNL     1     -40.377 -50.102  10.946  1.00  0.00     0.185 A 
HETATM   14  C   UNL     1     -42.659 -48.141  14.108  1.00  0.00     0.183 A 
ATOM     15  HN  UNL     1     -41.627 -49.842  14.780  1.00  0.00     0.168 HD
HETATM   16  N   UNL     1     -42.993 -47.251  13.150  1.00  0.00    -0.337 N 
ATOM     17  HN  UNL     1     -43.656 -46.501  13.349  1.00  0.00     0.168 HD
ATOM     18  HN  UNL     1     -40.933 -48.570   9.630  1.00  0.00     0.167 HD
BRANCH  11  19
HETATM   19  C   UNL     1     -40.122 -51.509  13.008  1.00  0.00     0.171 C 
BRANCH  19  20
HETATM   20  C   UNL     1     -40.950 -52.784  12.775  1.00  0.00     0.097 C 
HETATM   21  C   UNL     1     -42.456 -52.602  12.736  1.00  0.00     0.068 C 
HETATM   22  C   UNL     1     -42.985 -53.950  13.202  1.00  0.00     0.170 C 
HETATM   23  O   UNL     1     -41.970 -54.568  13.999  1.00  0.00    -0.388 OA
HETATM   24  C   UNL     1     -40.798 -53.739  13.964  1.00  0.00     0.207 C 
BRANCH  20  25
HETATM   25  O   UNL     1     -40.526 -53.469  11.591  1.00  0.00    -0.386 OA
HETATM   26  H   UNL     1     -41.264 -53.515  10.955  1.00  0.00     0.210 HD
ENDBRANCH  20  25
ENDBRANCH  19  20
ENDBRANCH  11  19
ENDBRANCH   6   7
BRANCH   6  27
HETATM   27  C   UNL     1     -43.629 -46.554   9.899  1.00  0.00     0.086 A 
HETATM   28  C   UNL     1     -43.166 -46.353   8.474  1.00  0.00     0.027 A 
HETATM   29  C   UNL     1     -44.207 -45.451   9.058  1.00  0.00     0.027 A 
ENDBRANCH   6  27
ENDBRANCH   5   6
ENDBRANCH   3   5
TORSDOF 7
ENDMDL
MODEL 7
REMARK VINA RESULT:      -5.7      2.853      7.688
REMARK  7 active torsions:
REMARK  status: ('A' for Active; 'I' for Inactive)
REMARK    1  A    between atoms: N_2  and  C_16 
REMARK    2  A    between atoms: C_3  and  N_7 
REMARK    3  A    between atoms: N_7  and  C_9 
REMARK    4  A    between atoms: N_7  and  C_21 
REMARK    5  A    between atoms: C_16  and  C_18 
REMARK    6  A    between atoms: C_18  and  O_25 
REMARK    7  A    between atoms: C_21  and  C_22 
ROOT
HETATM    1  N   UNL     1     -43.579 -48.223   6.972  1.00  0.00    -0.197 NA
HETATM    2  C   UNL     1     -43.337 -47.820   8.037  1.00  0.00     0.065 C 
HETATM    3  C   UNL     1     -43.115 -47.299   9.395  1.00  0.00     0.106 C 
HETATM    4  C   UNL     1     -44.431 -47.409  10.172  1.00  0.00     0.027 C 
ENDROOT
BRANCH   3   5
HETATM    5  C   UNL     1     -41.995 -48.073  10.112  1.00  0.00     0.143 C 
BRANCH   5   6
HETATM    6  N   UNL     1     -41.772 -47.608  11.487  1.00  0.00    -0.359 N 
BRANCH   6   7
HETATM    7  C   UNL     1     -42.188 -48.509  12.492  1.00  0.00     0.135 A 
HETATM    8  C   UNL     1     -41.968 -49.912  12.462  1.00  0.00     0.122 A 
HETATM    9  C   UNL     1     -42.304 -50.630  13.600  1.00  0.00     0.140 A 
HETATM   10  N   UNL     1     -41.482 -50.773  11.491  1.00  0.00    -0.346 N 
HETATM   11  N   UNL     1     -42.002 -51.934  13.310  1.00  0.00    -0.324 N 
HETATM   12  N   UNL     1     -42.813 -50.152  14.744  1.00  0.00    -0.336 N 
HETATM   13  C   UNL     1     -41.543 -51.973  12.021  1.00  0.00     0.185 A 
HETATM   14  C   UNL     1     -43.031 -48.827  14.655  1.00  0.00     0.183 A 
ATOM     15  HN  UNL     1     -43.009 -50.716  15.571  1.00  0.00     0.168 HD
HETATM   16  N   UNL     1     -42.784 -48.004  13.613  1.00  0.00    -0.337 N 
ATOM     17  HN  UNL     1     -43.040 -47.017  13.661  1.00  0.00     0.168 HD
ATOM     18  HN  UNL     1     -41.146 -50.527  10.559  1.00  0.00     0.167 HD
BRANCH  11  19
HETATM   19  C   UNL     1     -42.243 -53.084  14.160  1.00  0.00     0.171 C 
BRANCH  19  20
HETATM   20  C   UNL     1     -43.713 -53.525  14.254  1.00  0.00     0.097 C 
HETATM   21  C   UNL     1     -43.950 -54.992  14.561  1.00  0.00     0.068 C 
HETATM   22  C   UNL     1     -45.300 -55.271  13.920  1.00  0.00     0.170 C 
HETATM   23  O   UNL     1     -45.492 -54.320  12.867  1.00  0.00    -0.388 OA
HETATM   24  C   UNL     1     -44.395 -53.394  12.888  1.00  0.00     0.207 C 
BRANCH  20  25
HETATM   25  O   UNL     1     -44.435 -52.723  15.196  1.00  0.00    -0.386 OA
HETATM   26  H   UNL     1     -45.264 -52.407  14.792  1.00  0.00     0.210 HD
ENDBRANCH  20  25
ENDBRANCH  19  20
ENDBRANCH  11  19
ENDBRANCH   6   7
BRANCH   6  27
HETATM   27  C   UNL     1     -40.600 -46.757  11.757  1.00  0.00     0.086 A 
HETATM   28  C   UNL     1     -40.817 -45.262  11.806  1.00  0.00     0.027 A 
HETATM   29  C   UNL     1     -39.969 -45.861  10.728  1.00  0.00     0.027 A 
ENDBRANCH   6  27
ENDBRANCH   5   6
ENDBRANCH   3   5
TORSDOF 7
ENDMDL
MODEL 8
REMARK VINA RESULT:      -5.7      1.932      2.949
REMARK  7 active torsions:
REMARK  status: ('A' for Active; 'I' for Inactive)
REMARK    1  A    between atoms: N_2  and  C_16 
REMARK    2  A    between atoms: C_3  and  N_7 
REMARK    3  A    between atoms: N_7  and  C_9 
REMARK    4  A    between atoms: N_7  and  C_21 
REMARK    5  A    between atoms: C_16  and  C_18 
REMARK    6  A    between atoms: C_18  and  O_25 
REMARK    7  A    between atoms: C_21  and  C_22 
ROOT
HETATM    1  N   UNL     1     -43.450 -55.397  15.154  1.00  0.00    -0.197 NA
HETATM    2  C   UNL     1     -42.978 -54.477  14.620  1.00  0.00     0.065 C 
HETATM    3  C   UNL     1     -42.308 -53.358  13.940  1.00  0.00     0.106 C 
HETATM    4  C   UNL     1     -41.056 -53.900  13.242  1.00  0.00     0.027 C 
ENDROOT
BRANCH   3   5
HETATM    5  C   UNL     1     -43.245 -52.682  12.925  1.00  0.00     0.143 C 
BRANCH   5   6
HETATM    6  N   UNL     1     -43.937 -51.510  13.480  1.00  0.00    -0.359 N 
BRANCH   6   7
HETATM    7  C   UNL     1     -43.130 -50.360  13.626  1.00  0.00     0.135 A 
HETATM    8  C   UNL     1     -42.180 -49.913  12.670  1.00  0.00     0.122 A 
HETATM    9  C   UNL     1     -41.583 -48.682  12.899  1.00  0.00     0.140 A 
HETATM   10  N   UNL     1     -41.675 -50.469  11.505  1.00  0.00    -0.346 N 
HETATM   11  N   UNL     1     -40.722 -48.494  11.850  1.00  0.00    -0.324 N 
HETATM   12  N   UNL     1     -41.803 -47.848  13.925  1.00  0.00    -0.336 N 
HETATM   13  C   UNL     1     -40.788 -49.609  11.059  1.00  0.00     0.185 A 
HETATM   14  C   UNL     1     -42.677 -48.382  14.797  1.00  0.00     0.183 A 
ATOM     15  HN  UNL     1     -41.367 -46.932  14.030  1.00  0.00     0.168 HD
HETATM   16  N   UNL     1     -43.314 -49.572  14.726  1.00  0.00    -0.337 N 
ATOM     17  HN  UNL     1     -43.923 -49.877  15.485  1.00  0.00     0.168 HD
ATOM     18  HN  UNL     1     -41.938 -51.360  11.082  1.00  0.00     0.167 HD
BRANCH  11  19
HETATM   19  C   UNL     1     -39.809 -47.382  11.673  1.00  0.00     0.171 C 
BRANCH  19  20
HETATM   20  C   UNL     1     -40.406 -46.157  10.962  1.00  0.00     0.097 C 
HETATM   21  C   UNL     1     -40.781 -44.987  11.851  1.00  0.00     0.068 C 
HETATM   22  C   UNL     1     -41.907 -44.309  11.086  1.00  0.00     0.170 C 
HETATM   23  O   UNL     1     -42.516 -45.291  10.241  1.00  0.00    -0.388 OA
HETATM   24  C   UNL     1     -41.766 -46.510  10.349  1.00  0.00     0.207 C 
BRANCH  20  25
HETATM   25  O   UNL     1     -39.546 -45.696   9.913  1.00  0.00    -0.386 OA
HETATM   26  H   UNL     1     -38.822 -45.164  10.291  1.00  0.00     0.210 HD
ENDBRANCH  20  25
ENDBRANCH  19  20
ENDBRANCH  11  19
ENDBRANCH   6   7
BRANCH   6  27
HETATM   27  C   UNL     1     -45.363 -51.324  13.165  1.00  0.00     0.086 A 
HETATM   28  C   UNL     1     -46.363 -51.561  14.274  1.00  0.00     0.027 A 
HETATM   29  C   UNL     1     -46.349 -52.456  13.075  1.00  0.00     0.027 A 
ENDBRANCH   6  27
ENDBRANCH   5   6
ENDBRANCH   3   5
TORSDOF 7
ENDMDL
MODEL 9
REMARK VINA RESULT:      -5.7      3.415      7.608
REMARK  7 active torsions:
REMARK  status: ('A' for Active; 'I' for Inactive)
REMARK    1  A    between atoms: N_2  and  C_16 
REMARK    2  A    between atoms: C_3  and  N_7 
REMARK    3  A    between atoms: N_7  and  C_9 
REMARK    4  A    between atoms: N_7  and  C_21 
REMARK    5  A    between atoms: C_16  and  C_18 
REMARK    6  A    between atoms: C_18  and  O_25 
REMARK    7  A    between atoms: C_21  and  C_22 
ROOT
HETATM    1  N   UNL     1     -43.474 -48.145   7.294  1.00  0.00    -0.197 NA
HETATM    2  C   UNL     1     -43.383 -47.561   8.297  1.00  0.00     0.065 C 
HETATM    3  C   UNL     1     -43.340 -46.862   9.591  1.00  0.00     0.106 C 
HETATM    4  C   UNL     1     -44.202 -47.643  10.587  1.00  0.00     0.027 C 
ENDROOT
BRANCH   3   5
HETATM    5  C   UNL     1     -41.896 -46.734  10.106  1.00  0.00     0.143 C 
BRANCH   5   6
HETATM    6  N   UNL     1     -41.742 -47.200  11.491  1.00  0.00    -0.359 N 
BRANCH   6   7
HETATM    7  C   UNL     1     -40.951 -48.360  11.642  1.00  0.00     0.135 A 
HETATM    8  C   UNL     1     -41.451 -49.637  12.012  1.00  0.00     0.122 A 
HETATM    9  C   UNL     1     -40.563 -50.701  11.966  1.00  0.00     0.140 A 
HETATM   10  N   UNL     1     -42.690 -50.078  12.449  1.00  0.00    -0.346 N 
HETATM   11  N   UNL     1     -41.284 -51.795  12.366  1.00  0.00    -0.324 N 
HETATM   12  N   UNL     1     -39.273 -50.672  11.602  1.00  0.00    -0.336 N 
HETATM   13  C   UNL     1     -42.545 -51.364  12.678  1.00  0.00     0.185 A 
HETATM   14  C   UNL     1     -38.884 -49.415  11.320  1.00  0.00     0.183 A 
ATOM     15  HN  UNL     1     -38.668 -51.491  11.546  1.00  0.00     0.168 HD
HETATM   16  N   UNL     1     -39.619 -48.282  11.348  1.00  0.00    -0.337 N 
ATOM     17  HN  UNL     1     -39.185 -47.379  11.152  1.00  0.00     0.168 HD
ATOM     18  HN  UNL     1     -43.537 -49.522  12.568  1.00  0.00     0.167 HD
BRANCH  11  19
HETATM   19  C   UNL     1     -40.777 -53.140  12.553  1.00  0.00     0.171 C 
BRANCH  19  20
HETATM   20  C   UNL     1     -39.829 -53.316  13.750  1.00  0.00     0.097 C 
HETATM   21  C   UNL     1     -39.569 -54.745  14.190  1.00  0.00     0.068 C 
HETATM   22  C   UNL     1     -39.254 -54.605  15.671  1.00  0.00     0.170 C 
HETATM   23  O   UNL     1     -39.872 -53.403  16.140  1.00  0.00    -0.388 OA
HETATM   24  C   UNL     1     -40.458 -52.726  15.017  1.00  0.00     0.207 C 
BRANCH  20  25
HETATM   25  O   UNL     1     -38.577 -52.658  13.521  1.00  0.00    -0.386 OA
HETATM   26  H   UNL     1     -38.687 -51.696  13.632  1.00  0.00     0.210 HD
ENDBRANCH  20  25
ENDBRANCH  19  20
ENDBRANCH  11  19
ENDBRANCH   6   7
BRANCH   6  27
HETATM   27  C   UNL     1     -41.719 -46.196  12.569  1.00  0.00     0.086 A 
HETATM   28  C   UNL     1     -42.955 -46.064  13.429  1.00  0.00     0.027 A 
HETATM   29  C   UNL     1     -42.533 -44.933  12.545  1.00  0.00     0.027 A 
ENDBRANCH   6  27
ENDBRANCH   5   6
ENDBRANCH   3   5
TORSDOF 7
ENDMDL
