MODEL 1
REMARK VINA RESULT:      -4.9      0.000      0.000
REMARK  4 active torsions:
REMARK  status: ('A' for Active; 'I' for Inactive)
REMARK    1  A    between atoms: C_2  and  C_3 
REMARK       I    between atoms: C_2  and  N_11 
REMARK    2  A    between atoms: C_3  and  N_4 
REMARK    3  A    between atoms: N_11  and  C_12 
REMARK    4  A    between atoms: C_12  and  C_13 
ROOT
HETATM    1  O   UNL     1     -42.299 -52.807  14.013  1.00  0.00    -0.272 OA
HETATM    2  C   UNL     1     -42.333 -52.756  12.786  1.00  0.00     0.237 C 
HETATM    3  N   UNL     1     -43.483 -52.969  12.059  1.00  0.00    -0.359 N 
HETATM    4  H   UNL     1     -43.399 -53.010  11.049  1.00  0.00     0.162 HD
ENDROOT
BRANCH   2   5
HETATM    5  C   UNL     1     -41.056 -52.629  11.959  1.00  0.00     0.255 C 
BRANCH   5   6
HETATM    6  N   UNL     1     -40.532 -51.274  11.926  1.00  0.00    -0.243 N 
HETATM    7  N   UNL     1     -41.255 -50.260  11.342  1.00  0.00    -0.299 N 
HETATM    8  C   UNL     1     -40.554 -49.173  11.367  1.00  0.00     0.162 A 
ATOM      9  HN  UNL     1     -42.193 -50.351  10.952  1.00  0.00     0.187 HD
HETATM   10  S   UNL     1     -38.989 -49.262  12.122  1.00  0.00    -0.021 SA
HETATM   11  C   UNL     1     -39.287 -50.958  12.425  1.00  0.00     0.306 A 
HETATM   12  O   UNL     1     -38.487 -51.693  12.978  1.00  0.00    -0.258 OA
ENDBRANCH   5   6
ENDBRANCH   2   5
BRANCH   3  13
HETATM   13  C   UNL     1     -44.775 -53.142  12.676  1.00  0.00     0.127 C 
BRANCH  13  14
HETATM   14  C   UNL     1     -45.422 -51.803  12.838  1.00  0.00     0.003 A 
HETATM   15  C   UNL     1     -46.559 -51.618  13.814  1.00  0.00     0.007 A 
HETATM   16  C   UNL     1     -46.827 -51.564  12.338  1.00  0.00     0.007 A 
ENDBRANCH  13  14
ENDBRANCH   3  13
TORSDOF 4
ENDMDL
MODEL 2
REMARK VINA RESULT:      -4.8      2.264      2.799
REMARK  4 active torsions:
REMARK  status: ('A' for Active; 'I' for Inactive)
REMARK    1  A    between atoms: C_2  and  C_3 
REMARK       I    between atoms: C_2  and  N_11 
REMARK    2  A    between atoms: C_3  and  N_4 
REMARK    3  A    between atoms: N_11  and  C_12 
REMARK    4  A    between atoms: C_12  and  C_13 
ROOT
HETATM    1  O   UNL     1     -43.619 -54.164  13.130  1.00  0.00    -0.272 OA
HETATM    2  C   UNL     1     -43.507 -53.044  12.636  1.00  0.00     0.237 C 
HETATM    3  N   UNL     1     -44.586 -52.229  12.376  1.00  0.00    -0.359 N 
HETATM    4  H   UNL     1     -44.412 -51.365  11.874  1.00  0.00     0.162 HD
ENDROOT
BRANCH   2   5
HETATM    5  C   UNL     1     -42.169 -52.539  12.103  1.00  0.00     0.255 C 
BRANCH   5   6
HETATM    6  N   UNL     1     -41.041 -52.942  12.926  1.00  0.00    -0.243 N 
HETATM    7  N   UNL     1     -40.575 -54.236  12.887  1.00  0.00    -0.299 N 
HETATM    8  C   UNL     1     -39.626 -54.369  13.755  1.00  0.00     0.162 A 
ATOM      9  HN  UNL     1     -40.923 -54.972  12.272  1.00  0.00     0.187 HD
HETATM   10  S   UNL     1     -39.184 -52.953  14.664  1.00  0.00    -0.021 SA
HETATM   11  C   UNL     1     -40.428 -52.075  13.805  1.00  0.00     0.306 A 
HETATM   12  O   UNL     1     -40.677 -50.897  13.999  1.00  0.00    -0.258 OA
ENDBRANCH   5   6
ENDBRANCH   2   5
BRANCH   3  13
HETATM   13  C   UNL     1     -45.931 -52.561  12.779  1.00  0.00     0.127 C 
BRANCH  13  14
HETATM   14  C   UNL     1     -46.433 -51.510  13.717  1.00  0.00     0.003 A 
HETATM   15  C   UNL     1     -45.686 -51.205  14.993  1.00  0.00     0.007 A 
HETATM   16  C   UNL     1     -47.020 -51.892  15.055  1.00  0.00     0.007 A 
ENDBRANCH  13  14
ENDBRANCH   3  13
TORSDOF 4
ENDMDL
MODEL 3
REMARK VINA RESULT:      -4.8      1.255      1.805
REMARK  4 active torsions:
REMARK  status: ('A' for Active; 'I' for Inactive)
REMARK    1  A    between atoms: C_2  and  C_3 
REMARK       I    between atoms: C_2  and  N_11 
REMARK    2  A    between atoms: C_3  and  N_4 
REMARK    3  A    between atoms: N_11  and  C_12 
REMARK    4  A    between atoms: C_12  and  C_13 
ROOT
HETATM    1  O   UNL     1     -42.899 -51.245  13.046  1.00  0.00    -0.272 OA
HETATM    2  C   UNL     1     -42.611 -52.246  12.395  1.00  0.00     0.237 C 
HETATM    3  N   UNL     1     -43.515 -53.250  12.126  1.00  0.00    -0.359 N 
HETATM    4  H   UNL     1     -43.165 -54.087  11.670  1.00  0.00     0.162 HD
ENDROOT
BRANCH   2   5
HETATM    5  C   UNL     1     -41.171 -52.541  11.982  1.00  0.00     0.255 C 
BRANCH   5   6
HETATM    6  N   UNL     1     -40.335 -51.353  11.951  1.00  0.00    -0.243 N 
HETATM    7  N   UNL     1     -40.661 -50.292  11.138  1.00  0.00    -0.299 N 
HETATM    8  C   UNL     1     -39.733 -49.395  11.224  1.00  0.00     0.162 A 
ATOM      9  HN  UNL     1     -41.499 -50.223  10.561  1.00  0.00     0.187 HD
HETATM   10  S   UNL     1     -38.413 -49.726  12.308  1.00  0.00    -0.021 SA
HETATM   11  C   UNL     1     -39.170 -51.257  12.681  1.00  0.00     0.306 A 
HETATM   12  O   UNL     1     -38.697 -52.071  13.456  1.00  0.00    -0.258 OA
ENDBRANCH   5   6
ENDBRANCH   2   5
BRANCH   3  13
HETATM   13  C   UNL     1     -44.912 -53.157  12.472  1.00  0.00     0.127 C 
BRANCH  13  14
HETATM   14  C   UNL     1     -45.132 -53.816  13.797  1.00  0.00     0.003 A 
HETATM   15  C   UNL     1     -44.232 -54.940  14.249  1.00  0.00     0.007 A 
HETATM   16  C   UNL     1     -45.657 -55.229  13.873  1.00  0.00     0.007 A 
ENDBRANCH  13  14
ENDBRANCH   3  13
TORSDOF 4
ENDMDL
MODEL 4
REMARK VINA RESULT:      -4.7      3.159      4.560
REMARK  4 active torsions:
REMARK  status: ('A' for Active; 'I' for Inactive)
REMARK    1  A    between atoms: C_2  and  C_3 
REMARK       I    between atoms: C_2  and  N_11 
REMARK    2  A    between atoms: C_3  and  N_4 
REMARK    3  A    between atoms: N_11  and  C_12 
REMARK    4  A    between atoms: C_12  and  C_13 
ROOT
HETATM    1  O   UNL     1     -42.298 -49.037  13.101  1.00  0.00    -0.272 OA
HETATM    2  C   UNL     1     -41.948 -49.280  11.949  1.00  0.00     0.237 C 
HETATM    3  N   UNL     1     -42.480 -48.639  10.853  1.00  0.00    -0.359 N 
HETATM    4  H   UNL     1     -42.208 -48.974   9.935  1.00  0.00     0.162 HD
ENDROOT
BRANCH   2   5
HETATM    5  C   UNL     1     -41.016 -50.446  11.630  1.00  0.00     0.255 C 
BRANCH   5   6
HETATM    6  N   UNL     1     -41.505 -51.719  12.132  1.00  0.00    -0.243 N 
HETATM    7  N   UNL     1     -42.845 -52.026  12.067  1.00  0.00    -0.299 N 
HETATM    8  C   UNL     1     -43.044 -53.168  12.641  1.00  0.00     0.162 A 
ATOM      9  HN  UNL     1     -43.565 -51.446  11.636  1.00  0.00     0.187 HD
HETATM   10  S   UNL     1     -41.646 -53.988  13.273  1.00  0.00    -0.021 SA
HETATM   11  C   UNL     1     -40.673 -52.640  12.731  1.00  0.00     0.306 A 
HETATM   12  O   UNL     1     -39.467 -52.573  12.893  1.00  0.00    -0.258 OA
ENDBRANCH   5   6
ENDBRANCH   2   5
BRANCH   3  13
HETATM   13  C   UNL     1     -43.402 -47.535  10.965  1.00  0.00     0.127 C 
BRANCH  13  14
HETATM   14  C   UNL     1     -44.243 -47.473   9.729  1.00  0.00     0.003 A 
HETATM   15  C   UNL     1     -43.596 -47.494   8.365  1.00  0.00     0.007 A 
HETATM   16  C   UNL     1     -44.245 -46.235   8.865  1.00  0.00     0.007 A 
ENDBRANCH  13  14
ENDBRANCH   3  13
TORSDOF 4
ENDMDL
MODEL 5
REMARK VINA RESULT:      -4.7      2.210      3.076
REMARK  4 active torsions:
REMARK  status: ('A' for Active; 'I' for Inactive)
REMARK    1  A    between atoms: C_2  and  C_3 
REMARK       I    between atoms: C_2  and  N_11 
REMARK    2  A    between atoms: C_3  and  N_4 
REMARK    3  A    between atoms: N_11  and  C_12 
REMARK    4  A    between atoms: C_12  and  C_13 
ROOT
HETATM    1  O   UNL     1     -45.323 -53.392  12.196  1.00  0.00    -0.272 OA
HETATM    2  C   UNL     1     -44.841 -53.743  13.271  1.00  0.00     0.237 C 
HETATM    3  N   UNL     1     -45.496 -53.587  14.472  1.00  0.00    -0.359 N 
HETATM    4  H   UNL     1     -44.984 -53.809  15.319  1.00  0.00     0.162 HD
ENDROOT
BRANCH   2   5
HETATM    5  C   UNL     1     -43.395 -54.218  13.377  1.00  0.00     0.255 C 
BRANCH   5   6
HETATM    6  N   UNL     1     -42.429 -53.175  13.075  1.00  0.00    -0.243 N 
HETATM    7  N   UNL     1     -42.437 -52.551  11.849  1.00  0.00    -0.299 N 
HETATM    8  C   UNL     1     -41.445 -51.723  11.791  1.00  0.00     0.162 A 
ATOM      9  HN  UNL     1     -43.116 -52.715  11.106  1.00  0.00     0.187 HD
HETATM   10  S   UNL     1     -40.442 -51.594  13.207  1.00  0.00    -0.021 SA
HETATM   11  C   UNL     1     -41.447 -52.805  13.968  1.00  0.00     0.306 A 
HETATM   12  O   UNL     1     -41.257 -53.224  15.097  1.00  0.00    -0.258 OA
ENDBRANCH   5   6
ENDBRANCH   2   5
BRANCH   3  13
HETATM   13  C   UNL     1     -46.858 -53.118  14.564  1.00  0.00     0.127 C 
BRANCH  13  14
HETATM   14  C   UNL     1     -46.852 -51.664  14.913  1.00  0.00     0.003 A 
HETATM   15  C   UNL     1     -45.922 -51.140  15.981  1.00  0.00     0.007 A 
HETATM   16  C   UNL     1     -47.401 -51.191  16.237  1.00  0.00     0.007 A 
ENDBRANCH  13  14
ENDBRANCH   3  13
TORSDOF 4
ENDMDL
MODEL 6
REMARK VINA RESULT:      -4.6      1.230      1.678
REMARK  4 active torsions:
REMARK  status: ('A' for Active; 'I' for Inactive)
REMARK    1  A    between atoms: C_2  and  C_3 
REMARK       I    between atoms: C_2  and  N_11 
REMARK    2  A    between atoms: C_3  and  N_4 
REMARK    3  A    between atoms: N_11  and  C_12 
REMARK    4  A    between atoms: C_12  and  C_13 
ROOT
HETATM    1  O   UNL     1     -42.230 -53.014  13.995  1.00  0.00    -0.272 OA
HETATM    2  C   UNL     1     -42.278 -52.825  12.782  1.00  0.00     0.237 C 
HETATM    3  N   UNL     1     -43.441 -52.924  12.053  1.00  0.00    -0.359 N 
HETATM    4  H   UNL     1     -43.371 -52.853  11.044  1.00  0.00     0.162 HD
ENDROOT
BRANCH   2   5
HETATM    5  C   UNL     1     -41.008 -52.641  11.955  1.00  0.00     0.255 C 
BRANCH   5   6
HETATM    6  N   UNL     1     -40.074 -51.699  12.549  1.00  0.00    -0.243 N 
HETATM    7  N   UNL     1     -39.384 -52.028  13.693  1.00  0.00    -0.299 N 
HETATM    8  C   UNL     1     -38.681 -51.009  14.069  1.00  0.00     0.162 A 
ATOM      9  HN  UNL     1     -39.421 -52.929  14.168  1.00  0.00     0.187 HD
HETATM   10  S   UNL     1     -38.756 -49.587  13.069  1.00  0.00    -0.021 SA
HETATM   11  C   UNL     1     -39.878 -50.437  12.032  1.00  0.00     0.306 A 
HETATM   12  O   UNL     1     -40.381 -49.942  11.038  1.00  0.00    -0.258 OA
ENDBRANCH   5   6
ENDBRANCH   2   5
BRANCH   3  13
HETATM   13  C   UNL     1     -44.731 -53.129  12.666  1.00  0.00     0.127 C 
BRANCH  13  14
HETATM   14  C   UNL     1     -45.391 -51.803  12.872  1.00  0.00     0.003 A 
HETATM   15  C   UNL     1     -46.546 -51.667  13.835  1.00  0.00     0.007 A 
HETATM   16  C   UNL     1     -46.788 -51.552  12.357  1.00  0.00     0.007 A 
ENDBRANCH  13  14
ENDBRANCH   3  13
TORSDOF 4
ENDMDL
MODEL 7
REMARK VINA RESULT:      -4.5      1.748      1.953
REMARK  4 active torsions:
REMARK  status: ('A' for Active; 'I' for Inactive)
REMARK    1  A    between atoms: C_2  and  C_3 
REMARK       I    between atoms: C_2  and  N_11 
REMARK    2  A    between atoms: C_3  and  N_4 
REMARK    3  A    between atoms: N_11  and  C_12 
REMARK    4  A    between atoms: C_12  and  C_13 
ROOT
HETATM    1  O   UNL     1     -41.473 -51.214  13.998  1.00  0.00    -0.272 OA
HETATM    2  C   UNL     1     -41.834 -51.180  12.823  1.00  0.00     0.237 C 
HETATM    3  N   UNL     1     -43.042 -51.682  12.397  1.00  0.00    -0.359 N 
HETATM    4  H   UNL     1     -43.215 -51.705  11.397  1.00  0.00     0.162 HD
ENDROOT
BRANCH   2   5
HETATM    5  C   UNL     1     -40.886 -50.737  11.712  1.00  0.00     0.255 C 
BRANCH   5   6
HETATM    6  N   UNL     1     -40.985 -49.318  11.412  1.00  0.00    -0.243 N 
HETATM    7  N   UNL     1     -42.012 -48.841  10.630  1.00  0.00    -0.299 N 
HETATM    8  C   UNL     1     -41.843 -47.573  10.441  1.00  0.00     0.162 A 
ATOM      9  HN  UNL     1     -42.782 -49.398  10.260  1.00  0.00     0.187 HD
HETATM   10  S   UNL     1     -40.466 -46.837  11.210  1.00  0.00    -0.021 SA
HETATM   11  C   UNL     1     -40.044 -48.410  11.845  1.00  0.00     0.306 A 
HETATM   12  O   UNL     1     -39.063 -48.613  12.540  1.00  0.00    -0.258 OA
ENDBRANCH   5   6
ENDBRANCH   2   5
BRANCH   3  13
HETATM   13  C   UNL     1     -44.049 -52.174  13.306  1.00  0.00     0.127 C 
BRANCH  13  14
HETATM   14  C   UNL     1     -45.207 -51.228  13.311  1.00  0.00     0.003 A 
HETATM   15  C   UNL     1     -46.350 -51.427  14.277  1.00  0.00     0.007 A 
HETATM   16  C   UNL     1     -46.561 -51.670  12.810  1.00  0.00     0.007 A 
ENDBRANCH  13  14
ENDBRANCH   3  13
TORSDOF 4
ENDMDL
MODEL 8
REMARK VINA RESULT:      -4.5      2.725      4.850
REMARK  4 active torsions:
REMARK  status: ('A' for Active; 'I' for Inactive)
REMARK    1  A    between atoms: C_2  and  C_3 
REMARK       I    between atoms: C_2  and  N_11 
REMARK    2  A    between atoms: C_3  and  N_4 
REMARK    3  A    between atoms: N_11  and  C_12 
REMARK    4  A    between atoms: C_12  and  C_13 
ROOT
HETATM    1  O   UNL     1     -41.788 -50.511  13.121  1.00  0.00    -0.272 OA
HETATM    2  C   UNL     1     -41.235 -51.006  12.141  1.00  0.00     0.237 C 
HETATM    3  N   UNL     1     -40.740 -50.253  11.101  1.00  0.00    -0.359 N 
HETATM    4  H   UNL     1     -40.392 -50.749  10.286  1.00  0.00     0.162 HD
ENDROOT
BRANCH   2   5
HETATM    5  C   UNL     1     -41.215 -52.516  11.918  1.00  0.00     0.255 C 
BRANCH   5   6
HETATM    6  N   UNL     1     -42.339 -53.198  12.537  1.00  0.00    -0.243 N 
HETATM    7  N   UNL     1     -43.614 -53.028  12.048  1.00  0.00    -0.299 N 
HETATM    8  C   UNL     1     -44.445 -53.667  12.805  1.00  0.00     0.162 A 
ATOM      9  HN  UNL     1     -43.863 -52.485  11.221  1.00  0.00     0.187 HD
HETATM   10  S   UNL     1     -43.771 -54.555  14.141  1.00  0.00    -0.021 SA
HETATM   11  C   UNL     1     -42.190 -53.992  13.653  1.00  0.00     0.306 A 
HETATM   12  O   UNL     1     -41.162 -54.276  14.245  1.00  0.00    -0.258 OA
ENDBRANCH   5   6
ENDBRANCH   2   5
BRANCH   3  13
HETATM   13  C   UNL     1     -40.708 -48.811  11.126  1.00  0.00     0.127 C 
BRANCH  13  14
HETATM   14  C   UNL     1     -41.861 -48.283  10.334  1.00  0.00     0.003 A 
HETATM   15  C   UNL     1     -42.150 -46.801  10.303  1.00  0.00     0.007 A 
HETATM   16  C   UNL     1     -43.081 -47.729  11.031  1.00  0.00     0.007 A 
ENDBRANCH  13  14
ENDBRANCH   3  13
TORSDOF 4
ENDMDL
MODEL 9
REMARK VINA RESULT:      -4.5      2.761      5.904
REMARK  4 active torsions:
REMARK  status: ('A' for Active; 'I' for Inactive)
REMARK    1  A    between atoms: C_2  and  C_3 
REMARK       I    between atoms: C_2  and  N_11 
REMARK    2  A    between atoms: C_3  and  N_4 
REMARK    3  A    between atoms: N_11  and  C_12 
REMARK    4  A    between atoms: C_12  and  C_13 
ROOT
HETATM    1  O   UNL     1     -41.380 -51.520  13.947  1.00  0.00    -0.272 OA
HETATM    2  C   UNL     1     -41.087 -52.273  13.021  1.00  0.00     0.237 C 
HETATM    3  N   UNL     1     -40.418 -51.849  11.895  1.00  0.00    -0.359 N 
HETATM    4  H   UNL     1     -40.309 -52.514  11.136  1.00  0.00     0.162 HD
ENDROOT
BRANCH   2   5
HETATM    5  C   UNL     1     -41.605 -53.708  12.968  1.00  0.00     0.255 C 
BRANCH   5   6
HETATM    6  N   UNL     1     -43.053 -53.794  13.050  1.00  0.00    -0.243 N 
HETATM    7  N   UNL     1     -43.845 -53.070  12.187  1.00  0.00    -0.299 N 
HETATM    8  C   UNL     1     -45.086 -53.249  12.503  1.00  0.00     0.162 A 
ATOM      9  HN  UNL     1     -43.507 -52.487  11.422  1.00  0.00     0.187 HD
HETATM   10  S   UNL     1     -45.414 -54.324  13.832  1.00  0.00    -0.021 SA
HETATM   11  C   UNL     1     -43.690 -54.550  14.009  1.00  0.00     0.306 A 
HETATM   12  O   UNL     1     -43.189 -55.260  14.865  1.00  0.00    -0.258 OA
ENDBRANCH   5   6
ENDBRANCH   2   5
BRANCH   3  13
HETATM   13  C   UNL     1     -39.886 -50.516  11.757  1.00  0.00     0.127 C 
BRANCH  13  14
HETATM   14  C   UNL     1     -38.442 -50.523  12.149  1.00  0.00     0.003 A 
HETATM   15  C   UNL     1     -37.764 -49.248  12.588  1.00  0.00     0.007 A 
HETATM   16  C   UNL     1     -37.405 -49.868  11.268  1.00  0.00     0.007 A 
ENDBRANCH  13  14
ENDBRANCH   3  13
TORSDOF 4
ENDMDL
