MODEL 1
REMARK VINA RESULT:      -7.1      0.000      0.000
REMARK  4 active torsions:
REMARK  status: ('A' for Active; 'I' for Inactive)
REMARK    1  A    between atoms: C_2  and  C_5 
REMARK    2  A    between atoms: C_8  and  N_9 
REMARK       I    between atoms: N_9  and  C_10 
REMARK       I    between atoms: C_10  and  N_12 
REMARK    3  A    between atoms: N_12  and  C_13 
REMARK    4  A    between atoms: C_17  and  C_19 
ROOT
HETATM    1  N   UNL     1     -40.979 -50.945  12.350  1.00  0.00    -0.294 N 
HETATM    2  C   UNL     1     -40.664 -49.947  11.461  1.00  0.00     0.322 C 
HETATM    3  O   UNL     1     -39.495 -49.772  11.130  1.00  0.00    -0.247 OA
HETATM    4  N   UNL     1     -41.695 -49.152  11.065  1.00  0.00    -0.338 N 
HETATM    5  H   UNL     1     -40.177 -51.411  12.750  1.00  0.00     0.172 HD
HETATM    6  H   UNL     1     -42.629 -49.514  11.237  1.00  0.00     0.164 HD
ENDROOT
BRANCH   1   7
HETATM    7  C   UNL     1     -42.261 -51.271  12.816  1.00  0.00     0.123 A 
HETATM    8  C   UNL     1     -42.799 -50.616  13.907  1.00  0.00     0.052 A 
HETATM    9  C   UNL     1     -44.126 -50.884  14.244  1.00  0.00     0.031 A 
HETATM   10  C   UNL     1     -44.852 -51.807  13.494  1.00  0.00     0.033 A 
HETATM   11  N   UNL     1     -44.258 -52.467  12.483  1.00  0.00    -0.303 N 
HETATM   12  N   UNL     1     -42.973 -52.200  12.155  1.00  0.00    -0.285 N 
ATOM     13  HN  UNL     1     -44.779 -53.173  11.962  1.00  0.00     0.186 HD
ATOM     14  HN  UNL     1     -42.537 -52.713  11.389  1.00  0.00     0.188 HD
BRANCH  10  15
HETATM   15  C   UNL     1     -46.323 -52.122  13.737  1.00  0.00    -0.007 C 
HETATM   16  C   UNL     1     -47.150 -51.803  12.480  1.00  0.00     0.021 C 
HETATM   17  C   UNL     1     -46.834 -51.308  14.936  1.00  0.00     0.021 C 
HETATM   18  C   UNL     1     -46.523 -53.626  14.058  1.00  0.00     0.021 C 
ENDBRANCH  10  15
ENDBRANCH   1   7
BRANCH   4  19
HETATM   19  C   UNL     1     -41.580 -47.996  10.188  1.00  0.00     0.090 C 
HETATM   20  C   UNL     1     -41.513 -46.702  11.011  1.00  0.00     0.051 C 
HETATM   21  C   UNL     1     -42.882 -46.174  11.428  1.00  0.00     0.170 C 
HETATM   22  O   UNL     1     -43.778 -46.136  10.320  1.00  0.00    -0.385 OA
HETATM   23  C   UNL     1     -44.009 -47.449   9.798  1.00  0.00     0.127 C 
HETATM   24  C   UNL     1     -42.716 -47.959   9.163  1.00  0.00     0.057 C 
BRANCH  23  25
HETATM   25  C   UNL     1     -45.160 -47.447   8.824  1.00  0.00     0.015 A 
HETATM   26  C   UNL     1     -46.510 -46.851   9.143  1.00  0.00     0.007 A 
HETATM   27  C   UNL     1     -46.368 -48.339   9.008  1.00  0.00     0.007 A 
ENDBRANCH  23  25
ENDBRANCH   4  19
TORSDOF 4
ENDMDL
MODEL 2
REMARK VINA RESULT:      -7.0      2.278      6.203
REMARK  4 active torsions:
REMARK  status: ('A' for Active; 'I' for Inactive)
REMARK    1  A    between atoms: C_2  and  C_5 
REMARK    2  A    between atoms: C_8  and  N_9 
REMARK       I    between atoms: N_9  and  C_10 
REMARK       I    between atoms: C_10  and  N_12 
REMARK    3  A    between atoms: N_12  and  C_13 
REMARK    4  A    between atoms: C_17  and  C_19 
ROOT
HETATM    1  N   UNL     1     -40.350 -49.335  12.770  1.00  0.00    -0.294 N 
HETATM    2  C   UNL     1     -40.446 -50.412  13.616  1.00  0.00     0.322 C 
HETATM    3  O   UNL     1     -39.510 -50.689  14.361  1.00  0.00    -0.247 OA
HETATM    4  N   UNL     1     -41.575 -51.164  13.503  1.00  0.00    -0.338 N 
HETATM    5  H   UNL     1     -39.440 -48.897  12.761  1.00  0.00     0.172 HD
HETATM    6  H   UNL     1     -42.352 -50.729  13.013  1.00  0.00     0.164 HD
ENDROOT
BRANCH   1   7
HETATM    7  C   UNL     1     -41.331 -48.893  11.871  1.00  0.00     0.123 A 
HETATM    8  C   UNL     1     -42.472 -48.263  12.331  1.00  0.00     0.052 A 
HETATM    9  C   UNL     1     -43.348 -47.724  11.389  1.00  0.00     0.031 A 
HETATM   10  C   UNL     1     -43.062 -47.853  10.032  1.00  0.00     0.033 A 
HETATM   11  N   UNL     1     -41.972 -48.536   9.637  1.00  0.00    -0.303 N 
HETATM   12  N   UNL     1     -41.120 -49.051  10.553  1.00  0.00    -0.285 N 
ATOM     13  HN  UNL     1     -41.787 -48.665   8.642  1.00  0.00     0.186 HD
ATOM     14  HN  UNL     1     -40.301 -49.570  10.236  1.00  0.00     0.188 HD
BRANCH  10  15
HETATM   15  C   UNL     1     -43.917 -47.246   8.927  1.00  0.00    -0.007 C 
HETATM   16  C   UNL     1     -45.404 -47.558   9.173  1.00  0.00     0.021 C 
HETATM   17  C   UNL     1     -43.472 -47.802   7.565  1.00  0.00     0.021 C 
HETATM   18  C   UNL     1     -43.764 -45.703   8.889  1.00  0.00     0.021 C 
ENDBRANCH  10  15
ENDBRANCH   1   7
BRANCH   4  19
HETATM   19  C   UNL     1     -41.855 -52.383  14.246  1.00  0.00     0.090 C 
HETATM   20  C   UNL     1     -42.006 -53.573  13.287  1.00  0.00     0.051 C 
HETATM   21  C   UNL     1     -43.401 -53.693  12.681  1.00  0.00     0.170 C 
HETATM   22  O   UNL     1     -44.408 -53.599  13.686  1.00  0.00    -0.385 OA
HETATM   23  C   UNL     1     -44.373 -52.322  14.333  1.00  0.00     0.127 C 
HETATM   24  C   UNL     1     -43.082 -52.219  15.145  1.00  0.00     0.057 C 
BRANCH  23  25
HETATM   25  C   UNL     1     -45.600 -52.116  15.184  1.00  0.00     0.015 A 
HETATM   26  C   UNL     1     -46.905 -52.834  14.939  1.00  0.00     0.007 A 
HETATM   27  C   UNL     1     -46.809 -51.359  14.680  1.00  0.00     0.007 A 
ENDBRANCH  23  25
ENDBRANCH   4  19
TORSDOF 4
ENDMDL
MODEL 3
REMARK VINA RESULT:      -6.8      1.473      1.964
REMARK  4 active torsions:
REMARK  status: ('A' for Active; 'I' for Inactive)
REMARK    1  A    between atoms: C_2  and  C_5 
REMARK    2  A    between atoms: C_8  and  N_9 
REMARK       I    between atoms: N_9  and  C_10 
REMARK       I    between atoms: C_10  and  N_12 
REMARK    3  A    between atoms: N_12  and  C_13 
REMARK    4  A    between atoms: C_17  and  C_19 
ROOT
HETATM    1  N   UNL     1     -40.042 -51.475  11.934  1.00  0.00    -0.294 N 
HETATM    2  C   UNL     1     -39.765 -50.144  11.749  1.00  0.00     0.322 C 
HETATM    3  O   UNL     1     -38.671 -49.805  11.304  1.00  0.00    -0.247 OA
HETATM    4  N   UNL     1     -40.722 -49.269  12.162  1.00  0.00    -0.338 N 
HETATM    5  H   UNL     1     -39.256 -52.088  11.772  1.00  0.00     0.172 HD
HETATM    6  H   UNL     1     -41.646 -49.661  12.317  1.00  0.00     0.164 HD
ENDROOT
BRANCH   1   7
HETATM    7  C   UNL     1     -41.240 -52.015  12.424  1.00  0.00     0.123 A 
HETATM    8  C   UNL     1     -41.487 -52.059  13.783  1.00  0.00     0.052 A 
HETATM    9  C   UNL     1     -42.747 -52.481  14.208  1.00  0.00     0.031 A 
HETATM   10  C   UNL     1     -43.698 -52.861  13.263  1.00  0.00     0.033 A 
HETATM   11  N   UNL     1     -43.382 -52.865  11.955  1.00  0.00    -0.303 N 
HETATM   12  N   UNL     1     -42.162 -52.448  11.547  1.00  0.00    -0.285 N 
ATOM     13  HN  UNL     1     -44.066 -53.184  11.269  1.00  0.00     0.186 HD
ATOM     14  HN  UNL     1     -41.937 -52.462  10.552  1.00  0.00     0.188 HD
BRANCH  10  15
HETATM   15  C   UNL     1     -45.121 -53.274  13.617  1.00  0.00    -0.007 C 
HETATM   16  C   UNL     1     -45.257 -54.806  13.571  1.00  0.00     0.021 C 
HETATM   17  C   UNL     1     -46.107 -52.619  12.637  1.00  0.00     0.021 C 
HETATM   18  C   UNL     1     -45.494 -52.816  15.051  1.00  0.00     0.021 C 
ENDBRANCH  10  15
ENDBRANCH   1   7
BRANCH   4  19
HETATM   19  C   UNL     1     -40.611 -47.819  12.128  1.00  0.00     0.090 C 
HETATM   20  C   UNL     1     -41.390 -47.193  13.293  1.00  0.00     0.051 C 
HETATM   21  C   UNL     1     -42.880 -47.026  13.010  1.00  0.00     0.170 C 
HETATM   22  O   UNL     1     -43.096 -46.410  11.742  1.00  0.00    -0.385 OA
HETATM   23  C   UNL     1     -42.587 -47.223  10.680  1.00  0.00     0.127 C 
HETATM   24  C   UNL     1     -41.061 -47.258  10.777  1.00  0.00     0.057 C 
BRANCH  23  25
HETATM   25  C   UNL     1     -43.061 -46.720   9.340  1.00  0.00     0.015 A 
HETATM   26  C   UNL     1     -44.520 -46.559   8.989  1.00  0.00     0.007 A 
HETATM   27  C   UNL     1     -43.710 -47.634   8.324  1.00  0.00     0.007 A 
ENDBRANCH  23  25
ENDBRANCH   4  19
TORSDOF 4
ENDMDL
MODEL 4
REMARK VINA RESULT:      -6.7      3.735      5.896
REMARK  4 active torsions:
REMARK  status: ('A' for Active; 'I' for Inactive)
REMARK    1  A    between atoms: C_2  and  C_5 
REMARK    2  A    between atoms: C_8  and  N_9 
REMARK       I    between atoms: N_9  and  C_10 
REMARK       I    between atoms: C_10  and  N_12 
REMARK    3  A    between atoms: N_12  and  C_13 
REMARK    4  A    between atoms: C_17  and  C_19 
ROOT
HETATM    1  N   UNL     1     -40.124 -48.910  12.747  1.00  0.00    -0.294 N 
HETATM    2  C   UNL     1     -39.283 -48.018  13.365  1.00  0.00     0.322 C 
HETATM    3  O   UNL     1     -38.397 -48.430  14.110  1.00  0.00    -0.247 OA
HETATM    4  N   UNL     1     -39.554 -46.700  13.163  1.00  0.00    -0.338 N 
HETATM    5  H   UNL     1     -40.001 -49.868  13.043  1.00  0.00     0.172 HD
HETATM    6  H   UNL     1     -40.166 -46.486  12.380  1.00  0.00     0.164 HD
ENDROOT
BRANCH   1   7
HETATM    7  C   UNL     1     -41.171 -48.595  11.870  1.00  0.00     0.123 A 
HETATM    8  C   UNL     1     -42.378 -48.127  12.354  1.00  0.00     0.052 A 
HETATM    9  C   UNL     1     -43.335 -47.702  11.433  1.00  0.00     0.031 A 
HETATM   10  C   UNL     1     -43.058 -47.781  10.069  1.00  0.00     0.033 A 
HETATM   11  N   UNL     1     -41.894 -48.309   9.650  1.00  0.00    -0.303 N 
HETATM   12  N   UNL     1     -40.965 -48.713  10.546  1.00  0.00    -0.285 N 
ATOM     13  HN  UNL     1     -41.711 -48.405   8.651  1.00  0.00     0.186 HD
ATOM     14  HN  UNL     1     -40.090 -49.116  10.211  1.00  0.00     0.188 HD
BRANCH  10  15
HETATM   15  C   UNL     1     -44.006 -47.285   8.985  1.00  0.00    -0.007 C 
HETATM   16  C   UNL     1     -45.455 -47.675   9.326  1.00  0.00     0.021 C 
HETATM   17  C   UNL     1     -43.596 -47.881   7.629  1.00  0.00     0.021 C 
HETATM   18  C   UNL     1     -43.954 -45.740   8.865  1.00  0.00     0.021 C 
ENDBRANCH  10  15
ENDBRANCH   1   7
BRANCH   4  19
HETATM   19  C   UNL     1     -38.841 -45.589  13.773  1.00  0.00     0.090 C 
HETATM   20  C   UNL     1     -39.424 -45.272  15.158  1.00  0.00     0.051 C 
HETATM   21  C   UNL     1     -40.657 -44.375  15.108  1.00  0.00     0.170 C 
HETATM   22  O   UNL     1     -40.434 -43.240  14.276  1.00  0.00    -0.385 OA
HETATM   23  C   UNL     1     -40.185 -43.633  12.922  1.00  0.00     0.127 C 
HETATM   24  C   UNL     1     -38.841 -44.359  12.862  1.00  0.00     0.057 C 
BRANCH  23  25
HETATM   25  C   UNL     1     -40.233 -42.444  11.997  1.00  0.00     0.015 A 
HETATM   26  C   UNL     1     -40.958 -41.164  12.335  1.00  0.00     0.007 A 
HETATM   27  C   UNL     1     -41.491 -42.057  11.252  1.00  0.00     0.007 A 
ENDBRANCH  23  25
ENDBRANCH   4  19
TORSDOF 4
ENDMDL
MODEL 5
REMARK VINA RESULT:      -6.4      2.732      6.441
REMARK  4 active torsions:
REMARK  status: ('A' for Active; 'I' for Inactive)
REMARK    1  A    between atoms: C_2  and  C_5 
REMARK    2  A    between atoms: C_8  and  N_9 
REMARK       I    between atoms: N_9  and  C_10 
REMARK       I    between atoms: C_10  and  N_12 
REMARK    3  A    between atoms: N_12  and  C_13 
REMARK    4  A    between atoms: C_17  and  C_19 
ROOT
HETATM    1  N   UNL     1     -39.518 -51.228  12.203  1.00  0.00    -0.294 N 
HETATM    2  C   UNL     1     -39.993 -52.210  13.037  1.00  0.00     0.322 C 
HETATM    3  O   UNL     1     -39.360 -53.253  13.174  1.00  0.00    -0.247 OA
HETATM    4  N   UNL     1     -41.210 -51.978  13.603  1.00  0.00    -0.338 N 
HETATM    5  H   UNL     1     -38.699 -51.494  11.675  1.00  0.00     0.172 HD
HETATM    6  H   UNL     1     -41.534 -51.015  13.583  1.00  0.00     0.164 HD
ENDROOT
BRANCH   1   7
HETATM    7  C   UNL     1     -40.120 -49.987  11.951  1.00  0.00     0.123 A 
HETATM    8  C   UNL     1     -40.025 -48.959  12.869  1.00  0.00     0.052 A 
HETATM    9  C   UNL     1     -40.525 -47.708  12.509  1.00  0.00     0.031 A 
HETATM   10  C   UNL     1     -41.118 -47.539  11.259  1.00  0.00     0.033 A 
HETATM   11  N   UNL     1     -41.246 -48.591  10.429  1.00  0.00    -0.303 N 
HETATM   12  N   UNL     1     -40.753 -49.801  10.779  1.00  0.00    -0.285 N 
ATOM     13  HN  UNL     1     -41.718 -48.475   9.532  1.00  0.00     0.186 HD
ATOM     14  HN  UNL     1     -40.864 -50.589  10.141  1.00  0.00     0.188 HD
BRANCH  10  15
HETATM   15  C   UNL     1     -41.636 -46.203  10.743  1.00  0.00    -0.007 C 
HETATM   16  C   UNL     1     -42.613 -46.426   9.576  1.00  0.00     0.021 C 
HETATM   17  C   UNL     1     -40.453 -45.331  10.292  1.00  0.00     0.021 C 
HETATM   18  C   UNL     1     -42.401 -45.437  11.853  1.00  0.00     0.021 C 
ENDBRANCH  10  15
ENDBRANCH   1   7
BRANCH   4  19
HETATM   19  C   UNL     1     -41.933 -52.907  14.457  1.00  0.00     0.090 C 
HETATM   20  C   UNL     1     -42.348 -54.154  13.664  1.00  0.00     0.051 C 
HETATM   21  C   UNL     1     -43.639 -53.971  12.872  1.00  0.00     0.170 C 
HETATM   22  O   UNL     1     -44.665 -53.406  13.685  1.00  0.00    -0.385 OA
HETATM   23  C   UNL     1     -44.300 -52.100  14.143  1.00  0.00     0.127 C 
HETATM   24  C   UNL     1     -43.134 -52.232  15.123  1.00  0.00     0.057 C 
BRANCH  23  25
HETATM   25  C   UNL     1     -45.483 -51.394  14.756  1.00  0.00     0.015 A 
HETATM   26  C   UNL     1     -46.689 -52.123  15.297  1.00  0.00     0.007 A 
HETATM   27  C   UNL     1     -46.816 -51.300  14.048  1.00  0.00     0.007 A 
ENDBRANCH  23  25
ENDBRANCH   4  19
TORSDOF 4
ENDMDL
MODEL 6
REMARK VINA RESULT:      -6.3      4.279      8.347
REMARK  4 active torsions:
REMARK  status: ('A' for Active; 'I' for Inactive)
REMARK    1  A    between atoms: C_2  and  C_5 
REMARK    2  A    between atoms: C_8  and  N_9 
REMARK       I    between atoms: N_9  and  C_10 
REMARK       I    between atoms: C_10  and  N_12 
REMARK    3  A    between atoms: N_12  and  C_13 
REMARK    4  A    between atoms: C_17  and  C_19 
ROOT
HETATM    1  N   UNL     1     -43.477 -52.911  11.949  1.00  0.00    -0.294 N 
HETATM    2  C   UNL     1     -43.951 -53.807  12.876  1.00  0.00     0.322 C 
HETATM    3  O   UNL     1     -44.953 -54.471  12.625  1.00  0.00    -0.247 OA
HETATM    4  N   UNL     1     -43.302 -53.831  14.072  1.00  0.00    -0.338 N 
HETATM    5  H   UNL     1     -44.072 -52.799  11.141  1.00  0.00     0.172 HD
HETATM    6  H   UNL     1     -42.383 -53.399  14.088  1.00  0.00     0.164 HD
ENDROOT
BRANCH   1   7
HETATM    7  C   UNL     1     -42.348 -52.092  12.086  1.00  0.00     0.123 A 
HETATM    8  C   UNL     1     -42.418 -50.913  12.803  1.00  0.00     0.052 A 
HETATM    9  C   UNL     1     -41.236 -50.205  13.021  1.00  0.00     0.031 A 
HETATM   10  C   UNL     1     -40.038 -50.691  12.499  1.00  0.00     0.033 A 
HETATM   11  N   UNL     1     -40.037 -51.810  11.750  1.00  0.00    -0.303 N 
HETATM   12  N   UNL     1     -41.184 -52.496  11.547  1.00  0.00    -0.285 N 
ATOM     13  HN  UNL     1     -39.166 -52.140  11.334  1.00  0.00     0.186 HD
ATOM     14  HN  UNL     1     -41.166 -53.339  10.972  1.00  0.00     0.188 HD
BRANCH  10  15
HETATM   15  C   UNL     1     -38.685 -50.032  12.734  1.00  0.00    -0.007 C 
HETATM   16  C   UNL     1     -37.753 -50.990  13.496  1.00  0.00     0.021 C 
HETATM   17  C   UNL     1     -38.877 -48.729  13.525  1.00  0.00     0.021 C 
HETATM   18  C   UNL     1     -37.997 -49.680  11.390  1.00  0.00     0.021 C 
ENDBRANCH  10  15
ENDBRANCH   1   7
BRANCH   4  19
HETATM   19  C   UNL     1     -43.676 -54.646  15.218  1.00  0.00     0.090 C 
HETATM   20  C   UNL     1     -44.031 -53.756  16.417  1.00  0.00     0.051 C 
HETATM   21  C   UNL     1     -42.815 -53.296  17.216  1.00  0.00     0.170 C 
HETATM   22  O   UNL     1     -41.953 -54.391  17.515  1.00  0.00    -0.385 OA
HETATM   23  C   UNL     1     -41.432 -54.979  16.318  1.00  0.00     0.127 C 
HETATM   24  C   UNL     1     -42.579 -55.655  15.565  1.00  0.00     0.057 C 
BRANCH  23  25
HETATM   25  C   UNL     1     -40.312 -55.940  16.632  1.00  0.00     0.015 A 
HETATM   26  C   UNL     1     -39.284 -55.684  17.707  1.00  0.00     0.007 A 
HETATM   27  C   UNL     1     -38.876 -55.644  16.263  1.00  0.00     0.007 A 
ENDBRANCH  23  25
ENDBRANCH   4  19
TORSDOF 4
ENDMDL
MODEL 7
REMARK VINA RESULT:      -6.2      3.871      7.003
REMARK  4 active torsions:
REMARK  status: ('A' for Active; 'I' for Inactive)
REMARK    1  A    between atoms: C_2  and  C_5 
REMARK    2  A    between atoms: C_8  and  N_9 
REMARK       I    between atoms: N_9  and  C_10 
REMARK       I    between atoms: C_10  and  N_12 
REMARK    3  A    between atoms: N_12  and  C_13 
REMARK    4  A    between atoms: C_17  and  C_19 
ROOT
HETATM    1  N   UNL     1     -43.078 -53.160  11.903  1.00  0.00    -0.294 N 
HETATM    2  C   UNL     1     -44.045 -53.591  12.778  1.00  0.00     0.322 C 
HETATM    3  O   UNL     1     -44.869 -54.426  12.415  1.00  0.00    -0.247 OA
HETATM    4  N   UNL     1     -44.068 -52.979  13.994  1.00  0.00    -0.338 N 
HETATM    5  H   UNL     1     -43.187 -53.511  10.963  1.00  0.00     0.172 HD
HETATM    6  H   UNL     1     -43.230 -52.465  14.250  1.00  0.00     0.164 HD
ENDROOT
BRANCH   1   7
HETATM    7  C   UNL     1     -42.071 -52.223  12.172  1.00  0.00     0.123 A 
HETATM    8  C   UNL     1     -40.836 -52.631  12.637  1.00  0.00     0.052 A 
HETATM    9  C   UNL     1     -39.830 -51.673  12.758  1.00  0.00     0.031 A 
HETATM   10  C   UNL     1     -40.103 -50.346  12.431  1.00  0.00     0.033 A 
HETATM   11  N   UNL     1     -41.343 -49.989  12.049  1.00  0.00    -0.303 N 
HETATM   12  N   UNL     1     -42.314 -50.923  11.925  1.00  0.00    -0.285 N 
ATOM     13  HN  UNL     1     -41.552 -49.011  11.851  1.00  0.00     0.186 HD
ATOM     14  HN  UNL     1     -43.250 -50.635  11.639  1.00  0.00     0.188 HD
BRANCH  10  15
HETATM   15  C   UNL     1     -39.060 -49.236  12.466  1.00  0.00    -0.007 C 
HETATM   16  C   UNL     1     -39.659 -47.927  11.923  1.00  0.00     0.021 C 
HETATM   17  C   UNL     1     -37.837 -49.651  11.634  1.00  0.00     0.021 C 
HETATM   18  C   UNL     1     -38.584 -48.965  13.917  1.00  0.00     0.021 C 
ENDBRANCH  10  15
ENDBRANCH   1   7
BRANCH   4  19
HETATM   19  C   UNL     1     -45.046 -53.225  15.043  1.00  0.00     0.090 C 
HETATM   20  C   UNL     1     -46.461 -52.896  14.547  1.00  0.00     0.051 C 
HETATM   21  C   UNL     1     -46.813 -51.416  14.648  1.00  0.00     0.170 C 
HETATM   22  O   UNL     1     -46.493 -50.897  15.936  1.00  0.00    -0.385 OA
HETATM   23  C   UNL     1     -45.087 -50.980  16.191  1.00  0.00     0.127 C 
HETATM   24  C   UNL     1     -44.698 -52.453  16.319  1.00  0.00     0.057 C 
BRANCH  23  25
HETATM   25  C   UNL     1     -44.713 -50.184  17.416  1.00  0.00     0.015 A 
HETATM   26  C   UNL     1     -45.591 -49.102  17.996  1.00  0.00     0.007 A 
HETATM   27  C   UNL     1     -44.297 -48.732  17.331  1.00  0.00     0.007 A 
ENDBRANCH  23  25
ENDBRANCH   4  19
TORSDOF 4
ENDMDL
MODEL 8
REMARK VINA RESULT:      -6.1      3.849      7.016
REMARK  4 active torsions:
REMARK  status: ('A' for Active; 'I' for Inactive)
REMARK    1  A    between atoms: C_2  and  C_5 
REMARK    2  A    between atoms: C_8  and  N_9 
REMARK       I    between atoms: N_9  and  C_10 
REMARK       I    between atoms: C_10  and  N_12 
REMARK    3  A    between atoms: N_12  and  C_13 
REMARK    4  A    between atoms: C_17  and  C_19 
ROOT
HETATM    1  N   UNL     1     -41.724 -54.301  14.535  1.00  0.00    -0.294 N 
HETATM    2  C   UNL     1     -43.068 -54.582  14.504  1.00  0.00     0.322 C 
HETATM    3  O   UNL     1     -43.475 -55.660  14.930  1.00  0.00    -0.247 OA
HETATM    4  N   UNL     1     -43.862 -53.650  13.911  1.00  0.00    -0.338 N 
HETATM    5  H   UNL     1     -41.147 -55.075  14.830  1.00  0.00     0.172 HD
HETATM    6  H   UNL     1     -43.450 -52.729  13.786  1.00  0.00     0.164 HD
ENDROOT
BRANCH   1   7
HETATM    7  C   UNL     1     -41.111 -53.120  14.094  1.00  0.00     0.123 A 
HETATM    8  C   UNL     1     -40.739 -52.142  14.997  1.00  0.00     0.052 A 
HETATM    9  C   UNL     1     -40.013 -51.051  14.521  1.00  0.00     0.031 A 
HETATM   10  C   UNL     1     -39.707 -50.969  13.163  1.00  0.00     0.033 A 
HETATM   11  N   UNL     1     -40.154 -51.915  12.316  1.00  0.00    -0.303 N 
HETATM   12  N   UNL     1     -40.851 -52.975  12.783  1.00  0.00    -0.285 N 
ATOM     13  HN  UNL     1     -39.965 -51.831  11.317  1.00  0.00     0.186 HD
ATOM     14  HN  UNL     1     -41.186 -53.680  12.126  1.00  0.00     0.188 HD
BRANCH  10  15
HETATM   15  C   UNL     1     -38.866 -49.855  12.553  1.00  0.00    -0.007 C 
HETATM   16  C   UNL     1     -38.273 -48.968  13.661  1.00  0.00     0.021 C 
HETATM   17  C   UNL     1     -39.734 -49.016  11.602  1.00  0.00     0.021 C 
HETATM   18  C   UNL     1     -37.683 -50.436  11.736  1.00  0.00     0.021 C 
ENDBRANCH  10  15
ENDBRANCH   1   7
BRANCH   4  19
HETATM   19  C   UNL     1     -45.297 -53.772  13.704  1.00  0.00     0.090 C 
HETATM   20  C   UNL     1     -45.771 -52.779  12.634  1.00  0.00     0.051 C 
HETATM   21  C   UNL     1     -46.029 -51.376  13.176  1.00  0.00     0.170 C 
HETATM   22  O   UNL     1     -46.830 -51.419  14.354  1.00  0.00    -0.385 OA
HETATM   23  C   UNL     1     -46.164 -52.126  15.406  1.00  0.00     0.127 C 
HETATM   24  C   UNL     1     -46.064 -53.601  15.018  1.00  0.00     0.057 C 
BRANCH  23  25
HETATM   25  C   UNL     1     -46.874 -51.930  16.722  1.00  0.00     0.015 A 
HETATM   26  C   UNL     1     -48.073 -51.028  16.885  1.00  0.00     0.007 A 
HETATM   27  C   UNL     1     -46.763 -50.643  17.508  1.00  0.00     0.007 A 
ENDBRANCH  23  25
ENDBRANCH   4  19
TORSDOF 4
ENDMDL
MODEL 9
REMARK VINA RESULT:      -5.9      2.506      3.792
REMARK  4 active torsions:
REMARK  status: ('A' for Active; 'I' for Inactive)
REMARK    1  A    between atoms: C_2  and  C_5 
REMARK    2  A    between atoms: C_8  and  N_9 
REMARK       I    between atoms: N_9  and  C_10 
REMARK       I    between atoms: C_10  and  N_12 
REMARK    3  A    between atoms: N_12  and  C_13 
REMARK    4  A    between atoms: C_17  and  C_19 
ROOT
HETATM    1  N   UNL     1     -40.783 -53.630  14.043  1.00  0.00    -0.294 N 
HETATM    2  C   UNL     1     -39.693 -52.953  13.553  1.00  0.00     0.322 C 
HETATM    3  O   UNL     1     -38.570 -53.435  13.675  1.00  0.00    -0.247 OA
HETATM    4  N   UNL     1     -39.940 -51.723  13.025  1.00  0.00    -0.338 N 
HETATM    5  H   UNL     1     -40.551 -54.459  14.570  1.00  0.00     0.172 HD
HETATM    6  H   UNL     1     -40.909 -51.524  12.793  1.00  0.00     0.164 HD
ENDROOT
BRANCH   1   7
HETATM    7  C   UNL     1     -42.120 -53.215  13.974  1.00  0.00     0.123 A 
HETATM    8  C   UNL     1     -42.910 -53.564  12.895  1.00  0.00     0.052 A 
HETATM    9  C   UNL     1     -44.266 -53.241  12.941  1.00  0.00     0.031 A 
HETATM   10  C   UNL     1     -44.773 -52.565  14.050  1.00  0.00     0.033 A 
HETATM   11  N   UNL     1     -43.946 -52.188  15.043  1.00  0.00    -0.303 N 
HETATM   12  N   UNL     1     -42.633 -52.510  14.997  1.00  0.00    -0.285 N 
ATOM     13  HN  UNL     1     -44.312 -51.656  15.833  1.00  0.00     0.186 HD
ATOM     14  HN  UNL     1     -42.020 -52.212  15.755  1.00  0.00     0.188 HD
BRANCH  10  15
HETATM   15  C   UNL     1     -46.246 -52.223  14.229  1.00  0.00    -0.007 C 
HETATM   16  C   UNL     1     -46.421 -51.208  15.372  1.00  0.00     0.021 C 
HETATM   17  C   UNL     1     -47.041 -53.505  14.525  1.00  0.00     0.021 C 
HETATM   18  C   UNL     1     -46.829 -51.583  12.943  1.00  0.00     0.021 C 
ENDBRANCH  10  15
ENDBRANCH   1   7
BRANCH   4  19
HETATM   19  C   UNL     1     -38.932 -50.806  12.516  1.00  0.00     0.090 C 
HETATM   20  C   UNL     1     -38.304 -50.006  13.666  1.00  0.00     0.051 C 
HETATM   21  C   UNL     1     -39.122 -48.785  14.075  1.00  0.00     0.170 C 
HETATM   22  O   UNL     1     -39.495 -48.011  12.938  1.00  0.00    -0.385 OA
HETATM   23  C   UNL     1     -40.335 -48.763  12.055  1.00  0.00     0.127 C 
HETATM   24  C   UNL     1     -39.508 -49.889  11.434  1.00  0.00     0.057 C 
BRANCH  23  25
HETATM   25  C   UNL     1     -40.956 -47.870  11.011  1.00  0.00     0.015 A 
HETATM   26  C   UNL     1     -41.731 -46.620  11.350  1.00  0.00     0.007 A 
HETATM   27  C   UNL     1     -42.452 -47.813  10.792  1.00  0.00     0.007 A 
ENDBRANCH  23  25
ENDBRANCH   4  19
TORSDOF 4
ENDMDL
