MODEL 1
REMARK VINA RESULT:      -5.9      0.000      0.000
REMARK  3 active torsions:
REMARK  status: ('A' for Active; 'I' for Inactive)
REMARK    1  A    between atoms: C_2  and  C_3 
REMARK    2  A    between atoms: C_9  and  N_10 
REMARK    3  A    between atoms: C_15  and  C_16 
REMARK       I    between atoms: C_16  and  N_18 
ROOT
HETATM    1  C   UNL     1     -45.130 -47.732   8.883  1.00  0.00     0.052 A 
HETATM    2  N   UNL     1     -44.787 -48.262   7.691  1.00  0.00    -0.353 N 
ATOM      3  HN  UNL     1     -45.483 -48.616   7.035  1.00  0.00     0.166 HD
HETATM    4  C   UNL     1     -43.476 -48.292   7.424  1.00  0.00     0.182 A 
HETATM    5  N   UNL     1     -42.497 -47.883   8.246  1.00  0.00    -0.336 N 
ATOM      6  HN  UNL     1     -41.517 -47.974   7.980  1.00  0.00     0.168 HD
HETATM    7  C   UNL     1     -42.847 -47.349   9.432  1.00  0.00     0.146 A 
HETATM    8  C   UNL     1     -44.189 -47.246   9.778  1.00  0.00     0.182 A 
HETATM    9  F   UNL     1     -44.578 -46.754  10.965  1.00  0.00    -0.200 F 
ENDROOT
BRANCH   7  10
HETATM   10  N   UNL     1     -41.810 -46.907  10.224  1.00  0.00    -0.347 N 
HETATM   11  C   UNL     1     -41.606 -45.466  10.452  1.00  0.00     0.151 C 
HETATM   12  C   UNL     1     -40.121 -45.211  10.771  1.00  0.00     0.187 C 
HETATM   13  O   UNL     1     -39.666 -46.002  11.882  1.00  0.00    -0.387 OA
HETATM   14  C   UNL     1     -39.841 -47.408  11.595  1.00  0.00     0.202 C 
HETATM   15  C   UNL     1     -41.330 -47.735  11.373  1.00  0.00     0.201 C 
BRANCH  15  16
HETATM   16  C   UNL     1     -41.506 -49.256  11.263  1.00  0.00     0.240 C 
HETATM   17  O   UNL     1     -42.386 -49.901  11.824  1.00  0.00    -0.271 OA
HETATM   18  N   UNL     1     -40.638 -49.882  10.404  1.00  0.00    -0.368 N 
HETATM   19  H   UNL     1     -39.745 -49.456  10.195  1.00  0.00     0.159 HD
HETATM   20  H   UNL     1     -40.674 -50.893  10.414  1.00  0.00     0.159 HD
ENDBRANCH  15  16
ENDBRANCH   7  10
BRANCH   1  21
HETATM   21  C   UNL     1     -46.586 -47.770   9.253  1.00  0.00     0.056 C 
HETATM   22  C   UNL     1     -47.125 -49.191   9.182  1.00  0.00     0.011 C 
ENDBRANCH   1  21
TORSDOF 3
ENDMDL
MODEL 2
REMARK VINA RESULT:      -5.7      1.348      2.526
REMARK  3 active torsions:
REMARK  status: ('A' for Active; 'I' for Inactive)
REMARK    1  A    between atoms: C_2  and  C_3 
REMARK    2  A    between atoms: C_9  and  N_10 
REMARK    3  A    between atoms: C_15  and  C_16 
REMARK       I    between atoms: C_16  and  N_18 
ROOT
HETATM    1  C   UNL     1     -44.774 -47.356   9.021  1.00  0.00     0.052 A 
HETATM    2  N   UNL     1     -44.341 -47.671   7.783  1.00  0.00    -0.353 N 
ATOM      3  HN  UNL     1     -44.949 -47.619   6.966  1.00  0.00     0.166 HD
HETATM    4  C   UNL     1     -43.062 -48.056   7.696  1.00  0.00     0.182 A 
HETATM    5  N   UNL     1     -42.210 -48.188   8.724  1.00  0.00    -0.336 N 
ATOM      6  HN  UNL     1     -41.258 -48.522   8.577  1.00  0.00     0.168 HD
HETATM    7  C   UNL     1     -42.647 -47.866   9.957  1.00  0.00     0.146 A 
HETATM    8  C   UNL     1     -43.953 -47.422  10.136  1.00  0.00     0.182 A 
HETATM    9  F   UNL     1     -44.439 -47.126  11.351  1.00  0.00    -0.200 F 
ENDROOT
BRANCH   7  10
HETATM   10  N   UNL     1     -41.725 -47.979  10.974  1.00  0.00    -0.347 N 
HETATM   11  C   UNL     1     -41.466 -49.283  11.605  1.00  0.00     0.151 C 
HETATM   12  C   UNL     1     -40.956 -49.057  13.041  1.00  0.00     0.187 C 
HETATM   13  O   UNL     1     -39.799 -48.204  13.072  1.00  0.00    -0.387 OA
HETATM   14  C   UNL     1     -40.113 -46.920  12.486  1.00  0.00     0.202 C 
HETATM   15  C   UNL     1     -40.528 -47.084  11.012  1.00  0.00     0.201 C 
BRANCH  15  16
HETATM   16  C   UNL     1     -40.667 -45.698  10.365  1.00  0.00     0.240 C 
HETATM   17  O   UNL     1     -41.601 -44.927  10.557  1.00  0.00    -0.271 OA
HETATM   18  N   UNL     1     -39.606 -45.311   9.585  1.00  0.00    -0.368 N 
HETATM   19  H   UNL     1     -39.010 -46.012   9.165  1.00  0.00     0.159 HD
HETATM   20  H   UNL     1     -39.741 -44.452   9.068  1.00  0.00     0.159 HD
ENDBRANCH  15  16
ENDBRANCH   7  10
BRANCH   1  21
HETATM   21  C   UNL     1     -46.230 -47.012   9.167  1.00  0.00     0.056 C 
HETATM   22  C   UNL     1     -47.096 -48.256   9.036  1.00  0.00     0.011 C 
ENDBRANCH   1  21
TORSDOF 3
ENDMDL
MODEL 3
REMARK VINA RESULT:      -5.5      5.513      6.856
REMARK  3 active torsions:
REMARK  status: ('A' for Active; 'I' for Inactive)
REMARK    1  A    between atoms: C_2  and  C_3 
REMARK    2  A    between atoms: C_9  and  N_10 
REMARK    3  A    between atoms: C_15  and  C_16 
REMARK       I    between atoms: C_16  and  N_18 
ROOT
HETATM    1  C   UNL     1     -45.589 -52.424  13.972  1.00  0.00     0.052 A 
HETATM    2  N   UNL     1     -45.923 -53.628  13.464  1.00  0.00    -0.353 N 
ATOM      3  HN  UNL     1     -46.877 -53.851  13.182  1.00  0.00     0.166 HD
HETATM    4  C   UNL     1     -44.922 -54.510  13.353  1.00  0.00     0.182 A 
HETATM    5  N   UNL     1     -43.652 -54.308  13.736  1.00  0.00    -0.336 N 
ATOM      6  HN  UNL     1     -42.955 -55.048  13.650  1.00  0.00     0.168 HD
HETATM    7  C   UNL     1     -43.324 -53.102  14.237  1.00  0.00     0.146 A 
HETATM    8  C   UNL     1     -44.294 -52.112  14.355  1.00  0.00     0.182 A 
HETATM    9  F   UNL     1     -44.016 -50.909  14.882  1.00  0.00    -0.200 F 
ENDROOT
BRANCH   7  10
HETATM   10  N   UNL     1     -42.001 -52.929  14.578  1.00  0.00    -0.347 N 
HETATM   11  C   UNL     1     -41.435 -53.622  15.748  1.00  0.00     0.151 C 
HETATM   12  C   UNL     1     -40.239 -52.813  16.284  1.00  0.00     0.187 C 
HETATM   13  O   UNL     1     -39.250 -52.576  15.268  1.00  0.00    -0.387 OA
HETATM   14  C   UNL     1     -39.838 -51.853  14.162  1.00  0.00     0.202 C 
HETATM   15  C   UNL     1     -40.975 -52.672  13.521  1.00  0.00     0.201 C 
BRANCH  15  16
HETATM   16  C   UNL     1     -41.448 -51.971  12.240  1.00  0.00     0.240 C 
HETATM   17  O   UNL     1     -41.847 -50.813  12.183  1.00  0.00    -0.271 OA
HETATM   18  N   UNL     1     -41.323 -52.712  11.091  1.00  0.00    -0.368 N 
HETATM   19  H   UNL     1     -41.310 -53.721  11.145  1.00  0.00     0.159 HD
HETATM   20  H   UNL     1     -41.736 -52.299  10.266  1.00  0.00     0.159 HD
ENDBRANCH  15  16
ENDBRANCH   7  10
BRANCH   1  21
HETATM   21  C   UNL     1     -46.706 -51.444  14.197  1.00  0.00     0.056 C 
HETATM   22  C   UNL     1     -47.197 -51.505  15.636  1.00  0.00     0.011 C 
ENDBRANCH   1  21
TORSDOF 3
ENDMDL
MODEL 4
REMARK VINA RESULT:      -5.4      5.830      7.403
REMARK  3 active torsions:
REMARK  status: ('A' for Active; 'I' for Inactive)
REMARK    1  A    between atoms: C_2  and  C_3 
REMARK    2  A    between atoms: C_9  and  N_10 
REMARK    3  A    between atoms: C_15  and  C_16 
REMARK       I    between atoms: C_16  and  N_18 
ROOT
HETATM    1  C   UNL     1     -44.815 -52.468  13.720  1.00  0.00     0.052 A 
HETATM    2  N   UNL     1     -44.791 -51.266  14.332  1.00  0.00    -0.353 N 
ATOM      3  HN  UNL     1     -45.580 -50.622  14.294  1.00  0.00     0.166 HD
HETATM    4  C   UNL     1     -43.664 -50.974  14.993  1.00  0.00     0.182 A 
HETATM    5  N   UNL     1     -42.569 -51.747  15.059  1.00  0.00    -0.336 N 
ATOM      6  HN  UNL     1     -41.735 -51.434  15.556  1.00  0.00     0.168 HD
HETATM    7  C   UNL     1     -42.603 -52.948  14.451  1.00  0.00     0.146 A 
HETATM    8  C   UNL     1     -43.747 -53.350  13.770  1.00  0.00     0.182 A 
HETATM    9  F   UNL     1     -43.808 -54.523  13.120  1.00  0.00    -0.200 F 
ENDROOT
BRANCH   7  10
HETATM   10  N   UNL     1     -41.471 -53.723  14.580  1.00  0.00    -0.347 N 
HETATM   11  C   UNL     1     -41.466 -54.895  15.471  1.00  0.00     0.151 C 
HETATM   12  C   UNL     1     -40.024 -55.169  15.937  1.00  0.00     0.187 C 
HETATM   13  O   UNL     1     -39.122 -55.331  14.829  1.00  0.00    -0.387 OA
HETATM   14  C   UNL     1     -39.124 -54.140  14.010  1.00  0.00     0.202 C 
HETATM   15  C   UNL     1     -40.528 -53.882  13.431  1.00  0.00     0.201 C 
BRANCH  15  16
HETATM   16  C   UNL     1     -40.457 -52.731  12.418  1.00  0.00     0.240 C 
HETATM   17  O   UNL     1     -39.736 -51.745  12.528  1.00  0.00    -0.271 OA
HETATM   18  N   UNL     1     -41.218 -52.902  11.288  1.00  0.00    -0.368 N 
HETATM   19  H   UNL     1     -42.027 -53.508  11.316  1.00  0.00     0.159 HD
HETATM   20  H   UNL     1     -41.263 -52.100  10.673  1.00  0.00     0.159 HD
ENDBRANCH  15  16
ENDBRANCH   7  10
BRANCH   1  21
HETATM   21  C   UNL     1     -46.028 -52.787  12.891  1.00  0.00     0.056 C 
HETATM   22  C   UNL     1     -46.683 -51.513  12.380  1.00  0.00     0.011 C 
ENDBRANCH   1  21
TORSDOF 3
ENDMDL
MODEL 5
REMARK VINA RESULT:      -5.3      4.960      5.929
REMARK  3 active torsions:
REMARK  status: ('A' for Active; 'I' for Inactive)
REMARK    1  A    between atoms: C_2  and  C_3 
REMARK    2  A    between atoms: C_9  and  N_10 
REMARK    3  A    between atoms: C_15  and  C_16 
REMARK       I    between atoms: C_16  and  N_18 
ROOT
HETATM    1  C   UNL     1     -45.116 -51.968  14.167  1.00  0.00     0.052 A 
HETATM    2  N   UNL     1     -45.106 -53.060  14.959  1.00  0.00    -0.353 N 
ATOM      3  HN  UNL     1     -45.961 -53.556  15.209  1.00  0.00     0.166 HD
HETATM    4  C   UNL     1     -43.903 -53.450  15.396  1.00  0.00     0.182 A 
HETATM    5  N   UNL     1     -42.738 -52.832  15.146  1.00  0.00    -0.336 N 
ATOM      6  HN  UNL     1     -41.866 -53.174  15.548  1.00  0.00     0.168 HD
HETATM    7  C   UNL     1     -42.754 -51.746  14.350  1.00  0.00     0.146 A 
HETATM    8  C   UNL     1     -43.957 -51.290  13.822  1.00  0.00     0.182 A 
HETATM    9  F   UNL     1     -44.021 -50.191  13.053  1.00  0.00    -0.200 F 
ENDROOT
BRANCH   7  10
HETATM   10  N   UNL     1     -41.530 -51.169  14.089  1.00  0.00    -0.347 N 
HETATM   11  C   UNL     1     -40.976 -50.151  14.998  1.00  0.00     0.151 C 
HETATM   12  C   UNL     1     -40.017 -49.240  14.209  1.00  0.00     0.187 C 
HETATM   13  O   UNL     1     -38.984 -49.991  13.548  1.00  0.00    -0.387 OA
HETATM   14  C   UNL     1     -39.572 -50.944  12.633  1.00  0.00     0.202 C 
HETATM   15  C   UNL     1     -40.461 -51.947  13.392  1.00  0.00     0.201 C 
BRANCH  15  16
HETATM   16  C   UNL     1     -40.914 -53.055  12.430  1.00  0.00     0.240 C 
HETATM   17  O   UNL     1     -41.060 -54.233  12.739  1.00  0.00    -0.271 OA
HETATM   18  N   UNL     1     -41.239 -52.631  11.166  1.00  0.00    -0.368 N 
HETATM   19  H   UNL     1     -40.837 -51.775  10.805  1.00  0.00     0.159 HD
HETATM   20  H   UNL     1     -41.427 -53.368  10.499  1.00  0.00     0.159 HD
ENDBRANCH  15  16
ENDBRANCH   7  10
BRANCH   1  21
HETATM   21  C   UNL     1     -46.459 -51.448  13.738  1.00  0.00     0.056 C 
HETATM   22  C   UNL     1     -46.722 -51.774  12.275  1.00  0.00     0.011 C 
ENDBRANCH   1  21
TORSDOF 3
ENDMDL
MODEL 6
REMARK VINA RESULT:      -5.3      5.074      6.486
REMARK  3 active torsions:
REMARK  status: ('A' for Active; 'I' for Inactive)
REMARK    1  A    between atoms: C_2  and  C_3 
REMARK    2  A    between atoms: C_9  and  N_10 
REMARK    3  A    between atoms: C_15  and  C_16 
REMARK       I    between atoms: C_16  and  N_18 
ROOT
HETATM    1  C   UNL     1     -45.796 -51.285  15.103  1.00  0.00     0.052 A 
HETATM    2  N   UNL     1     -46.724 -51.286  14.124  1.00  0.00    -0.353 N 
ATOM      3  HN  UNL     1     -47.696 -51.029  14.298  1.00  0.00     0.166 HD
HETATM    4  C   UNL     1     -46.288 -51.646  12.911  1.00  0.00     0.182 A 
HETATM    5  N   UNL     1     -45.040 -52.033  12.608  1.00  0.00    -0.336 N 
ATOM      6  HN  UNL     1     -44.797 -52.327  11.662  1.00  0.00     0.168 HD
HETATM    7  C   UNL     1     -44.117 -52.024  13.589  1.00  0.00     0.146 A 
HETATM    8  C   UNL     1     -44.473 -51.630  14.874  1.00  0.00     0.182 A 
HETATM    9  F   UNL     1     -43.593 -51.641  15.887  1.00  0.00    -0.200 F 
ENDROOT
BRANCH   7  10
HETATM   10  N   UNL     1     -42.841 -52.391  13.221  1.00  0.00    -0.347 N 
HETATM   11  C   UNL     1     -42.518 -53.803  12.956  1.00  0.00     0.151 C 
HETATM   12  C   UNL     1     -41.017 -54.034  13.214  1.00  0.00     0.187 C 
HETATM   13  O   UNL     1     -40.195 -53.140  12.444  1.00  0.00    -0.387 OA
HETATM   14  C   UNL     1     -40.514 -51.768  12.771  1.00  0.00     0.202 C 
HETATM   15  C   UNL     1     -41.983 -51.456  12.430  1.00  0.00     0.201 C 
BRANCH  15  16
HETATM   16  C   UNL     1     -42.238 -49.952  12.605  1.00  0.00     0.240 C 
HETATM   17  O   UNL     1     -42.044 -49.326  13.641  1.00  0.00    -0.271 OA
HETATM   18  N   UNL     1     -42.640 -49.295  11.469  1.00  0.00    -0.368 N 
HETATM   19  H   UNL     1     -43.101 -49.807  10.729  1.00  0.00     0.159 HD
HETATM   20  H   UNL     1     -42.918 -48.332  11.604  1.00  0.00     0.159 HD
ENDBRANCH  15  16
ENDBRANCH   7  10
BRANCH   1  21
HETATM   21  C   UNL     1     -46.273 -50.977  16.495  1.00  0.00     0.056 C 
HETATM   22  C   UNL     1     -47.763 -51.251  16.628  1.00  0.00     0.011 C 
ENDBRANCH   1  21
TORSDOF 3
ENDMDL
MODEL 7
REMARK VINA RESULT:      -5.2      6.177      7.373
REMARK  3 active torsions:
REMARK  status: ('A' for Active; 'I' for Inactive)
REMARK    1  A    between atoms: C_2  and  C_3 
REMARK    2  A    between atoms: C_9  and  N_10 
REMARK    3  A    between atoms: C_15  and  C_16 
REMARK       I    between atoms: C_16  and  N_18 
ROOT
HETATM    1  C   UNL     1     -46.181 -52.578  14.522  1.00  0.00     0.052 A 
HETATM    2  N   UNL     1     -46.669 -53.828  14.377  1.00  0.00    -0.353 N 
ATOM      3  HN  UNL     1     -47.640 -54.059  14.585  1.00  0.00     0.166 HD
HETATM    4  C   UNL     1     -45.796 -54.744  13.941  1.00  0.00     0.182 A 
HETATM    5  N   UNL     1     -44.497 -54.532  13.682  1.00  0.00    -0.336 N 
ATOM      6  HN  UNL     1     -43.889 -55.295  13.386  1.00  0.00     0.168 HD
HETATM    7  C   UNL     1     -44.018 -53.281  13.824  1.00  0.00     0.146 A 
HETATM    8  C   UNL     1     -44.863 -52.257  14.238  1.00  0.00     0.182 A 
HETATM    9  F   UNL     1     -44.418 -51.005  14.427  1.00  0.00    -0.200 F 
ENDROOT
BRANCH   7  10
HETATM   10  N   UNL     1     -42.689 -53.103  13.508  1.00  0.00    -0.347 N 
HETATM   11  C   UNL     1     -42.295 -52.186  12.425  1.00  0.00     0.151 C 
HETATM   12  C   UNL     1     -40.938 -52.636  11.852  1.00  0.00     0.187 C 
HETATM   13  O   UNL     1     -39.928 -52.731  12.871  1.00  0.00    -0.387 OA
HETATM   14  C   UNL     1     -40.337 -53.676  13.887  1.00  0.00     0.202 C 
HETATM   15  C   UNL     1     -41.639 -53.213  14.566  1.00  0.00     0.201 C 
BRANCH  15  16
HETATM   16  C   UNL     1     -41.942 -54.127  15.762  1.00  0.00     0.240 C 
HETATM   17  O   UNL     1     -42.094 -55.342  15.693  1.00  0.00    -0.271 OA
HETATM   18  N   UNL     1     -41.957 -53.501  16.984  1.00  0.00    -0.368 N 
HETATM   19  H   UNL     1     -42.152 -52.511  17.037  1.00  0.00     0.159 HD
HETATM   20  H   UNL     1     -42.266 -54.074  17.758  1.00  0.00     0.159 HD
ENDBRANCH  15  16
ENDBRANCH   7  10
BRANCH   1  21
HETATM   21  C   UNL     1     -47.109 -51.547  15.100  1.00  0.00     0.056 C 
HETATM   22  C   UNL     1     -47.027 -51.535  16.619  1.00  0.00     0.011 C 
ENDBRANCH   1  21
TORSDOF 3
ENDMDL
MODEL 8
REMARK VINA RESULT:      -5.1      4.299      5.416
REMARK  3 active torsions:
REMARK  status: ('A' for Active; 'I' for Inactive)
REMARK    1  A    between atoms: C_2  and  C_3 
REMARK    2  A    between atoms: C_9  and  N_10 
REMARK    3  A    between atoms: C_15  and  C_16 
REMARK       I    between atoms: C_16  and  N_18 
ROOT
HETATM    1  C   UNL     1     -44.739 -52.253  14.130  1.00  0.00     0.052 A 
HETATM    2  N   UNL     1     -44.915 -53.365  13.387  1.00  0.00    -0.353 N 
ATOM      3  HN  UNL     1     -45.651 -54.042  13.589  1.00  0.00     0.166 HD
HETATM    4  C   UNL     1     -44.061 -53.524  12.369  1.00  0.00     0.182 A 
HETATM    5  N   UNL     1     -43.044 -52.704  12.060  1.00  0.00    -0.336 N 
ATOM      6  HN  UNL     1     -42.415 -52.917  11.287  1.00  0.00     0.168 HD
HETATM    7  C   UNL     1     -42.879 -51.592  12.802  1.00  0.00     0.146 A 
HETATM    8  C   UNL     1     -43.742 -51.329  13.860  1.00  0.00     0.182 A 
HETATM    9  F   UNL     1     -43.590 -50.251  14.646  1.00  0.00    -0.200 F 
ENDROOT
BRANCH   7  10
HETATM   10  N   UNL     1     -41.847 -50.761  12.423  1.00  0.00    -0.347 N 
HETATM   11  C   UNL     1     -42.123 -49.386  11.974  1.00  0.00     0.151 C 
HETATM   12  C   UNL     1     -40.992 -48.926  11.035  1.00  0.00     0.187 C 
HETATM   13  O   UNL     1     -39.699 -49.041  11.654  1.00  0.00    -0.387 OA
HETATM   14  C   UNL     1     -39.453 -50.414  12.035  1.00  0.00     0.202 C 
HETATM   15  C   UNL     1     -40.500 -50.890  13.059  1.00  0.00     0.201 C 
BRANCH  15  16
HETATM   16  C   UNL     1     -40.103 -52.275  13.588  1.00  0.00     0.240 C 
HETATM   17  O   UNL     1     -39.956 -53.274  12.892  1.00  0.00    -0.271 OA
HETATM   18  N   UNL     1     -39.830 -52.329  14.932  1.00  0.00    -0.368 N 
HETATM   19  H   UNL     1     -40.238 -51.643  15.554  1.00  0.00     0.159 HD
HETATM   20  H   UNL     1     -39.680 -53.257  15.305  1.00  0.00     0.159 HD
ENDBRANCH  15  16
ENDBRANCH   7  10
BRANCH   1  21
HETATM   21  C   UNL     1     -45.620 -52.093  15.337  1.00  0.00     0.056 C 
HETATM   22  C   UNL     1     -46.929 -51.413  14.965  1.00  0.00     0.011 C 
ENDBRANCH   1  21
TORSDOF 3
ENDMDL
MODEL 9
REMARK VINA RESULT:      -5.1      2.736      5.312
REMARK  3 active torsions:
REMARK  status: ('A' for Active; 'I' for Inactive)
REMARK    1  A    between atoms: C_2  and  C_3 
REMARK    2  A    between atoms: C_9  and  N_10 
REMARK    3  A    between atoms: C_15  and  C_16 
REMARK       I    between atoms: C_16  and  N_18 
ROOT
HETATM    1  C   UNL     1     -39.611 -49.358  12.122  1.00  0.00     0.052 A 
HETATM    2  N   UNL     1     -40.315 -50.450  12.485  1.00  0.00    -0.353 N 
ATOM      3  HN  UNL     1     -39.885 -51.236  12.972  1.00  0.00     0.166 HD
HETATM    4  C   UNL     1     -41.615 -50.436  12.165  1.00  0.00     0.182 A 
HETATM    5  N   UNL     1     -42.247 -49.462  11.493  1.00  0.00    -0.336 N 
ATOM      6  HN  UNL     1     -43.236 -49.545  11.256  1.00  0.00     0.168 HD
HETATM    7  C   UNL     1     -41.540 -48.372  11.139  1.00  0.00     0.146 A 
HETATM    8  C   UNL     1     -40.190 -48.286  11.462  1.00  0.00     0.182 A 
HETATM    9  F   UNL     1     -39.441 -47.233  11.096  1.00  0.00    -0.200 F 
ENDROOT
BRANCH   7  10
HETATM   10  N   UNL     1     -42.241 -47.382  10.486  1.00  0.00    -0.347 N 
HETATM   11  C   UNL     1     -43.001 -47.688   9.262  1.00  0.00     0.151 C 
HETATM   12  C   UNL     1     -43.121 -46.411   8.411  1.00  0.00     0.187 C 
HETATM   13  O   UNL     1     -43.705 -45.324   9.150  1.00  0.00    -0.387 OA
HETATM   14  C   UNL     1     -42.902 -45.028  10.315  1.00  0.00     0.202 C 
HETATM   15  C   UNL     1     -42.839 -46.247  11.255  1.00  0.00     0.201 C 
BRANCH  15  16
HETATM   16  C   UNL     1     -42.146 -45.845  12.564  1.00  0.00     0.240 C 
HETATM   17  O   UNL     1     -41.163 -45.115  12.641  1.00  0.00    -0.271 OA
HETATM   18  N   UNL     1     -42.754 -46.300  13.708  1.00  0.00    -0.368 N 
HETATM   19  H   UNL     1     -43.336 -47.126  13.672  1.00  0.00     0.159 HD
HETATM   20  H   UNL     1     -42.242 -46.134  14.564  1.00  0.00     0.159 HD
ENDBRANCH  15  16
ENDBRANCH   7  10
BRANCH   1  21
HETATM   21  C   UNL     1     -38.131 -49.384  12.382  1.00  0.00     0.056 C 
HETATM   22  C   UNL     1     -37.379 -49.923  11.175  1.00  0.00     0.011 C 
ENDBRANCH   1  21
TORSDOF 3
ENDMDL
