MODEL 1
REMARK VINA RESULT:      -5.5      0.000      0.000
REMARK  4 active torsions:
REMARK  status: ('A' for Active; 'I' for Inactive)
REMARK    1  A    between atoms: C_4  and  C_5 
REMARK    2  A    between atoms: C_5  and  S_6 
REMARK    3  A    between atoms: S_6  and  N_9 
REMARK    4  A    between atoms: N_9  and  C_10 
ROOT
HETATM    1  S   UNL     1     -38.231 -51.002  12.906  1.00  0.00     0.215 S 
HETATM    2  O   UNL     1     -37.015 -51.693  12.537  1.00  0.00    -0.211 OA
HETATM    3  O   UNL     1     -38.623 -50.829  14.286  1.00  0.00    -0.211 OA
ENDROOT
BRANCH   1   4
HETATM    4  C   UNL     1     -38.206 -49.379  12.125  1.00  0.00     0.224 C 
BRANCH   4   5
HETATM    5  C   UNL     1     -39.623 -49.106  11.794  1.00  0.00     0.093 A 
HETATM    6  C   UNL     1     -40.623 -48.398  12.418  1.00  0.00     0.062 A 
HETATM    7  C   UNL     1     -41.665 -48.356  11.471  1.00  0.00     0.031 A 
HETATM    8  C   UNL     1     -42.953 -47.635  11.575  1.00  0.00     0.070 C 
HETATM    9  N   UNL     1     -41.354 -49.057  10.376  1.00  0.00    -0.266 N 
HETATM   10  O   UNL     1     -40.065 -49.522  10.577  1.00  0.00    -0.241 OA
ATOM     11  HN  UNL     1     -41.944 -49.217   9.559  1.00  0.00     0.194 HD
ENDBRANCH   4   5
ENDBRANCH   1   4
BRANCH   1  12
HETATM   12  N   UNL     1     -39.488 -51.821  12.108  1.00  0.00    -0.215 NA
HETATM   13  H   UNL     1     -39.114 -52.602  11.565  1.00  0.00     0.140 HD
BRANCH  12  14
HETATM   14  C   UNL     1     -40.644 -52.308  12.956  1.00  0.00     0.071 C 
HETATM   15  C   UNL     1     -40.443 -53.762  13.402  1.00  0.00     0.020 C 
HETATM   16  C   UNL     1     -41.300 -54.147  14.603  1.00  0.00     0.002 C 
HETATM   17  C   UNL     1     -42.711 -54.621  14.265  1.00  0.00     0.000 C 
HETATM   18  C   UNL     1     -43.429 -53.926  13.113  1.00  0.00     0.000 C 
HETATM   19  C   UNL     1     -43.229 -52.416  13.041  1.00  0.00     0.002 C 
HETATM   20  C   UNL     1     -41.979 -52.032  12.252  1.00  0.00     0.020 C 
ENDBRANCH  12  14
ENDBRANCH   1  12
TORSDOF 4
ENDMDL
MODEL 2
REMARK VINA RESULT:      -5.4      2.209      2.831
REMARK  4 active torsions:
REMARK  status: ('A' for Active; 'I' for Inactive)
REMARK    1  A    between atoms: C_4  and  C_5 
REMARK    2  A    between atoms: C_5  and  S_6 
REMARK    3  A    between atoms: S_6  and  N_9 
REMARK    4  A    between atoms: N_9  and  C_10 
ROOT
HETATM    1  S   UNL     1     -40.912 -50.219  12.797  1.00  0.00     0.215 S 
HETATM    2  O   UNL     1     -39.812 -50.557  11.920  1.00  0.00    -0.211 OA
HETATM    3  O   UNL     1     -40.923 -50.600  14.191  1.00  0.00    -0.211 OA
ENDROOT
BRANCH   1   4
HETATM    4  C   UNL     1     -41.170 -48.439  12.703  1.00  0.00     0.224 C 
BRANCH   4   5
HETATM    5  C   UNL     1     -42.071 -48.255  11.543  1.00  0.00     0.093 A 
HETATM    6  C   UNL     1     -43.342 -47.750  11.401  1.00  0.00     0.062 A 
HETATM    7  C   UNL     1     -43.530 -47.665  10.007  1.00  0.00     0.031 A 
HETATM    8  C   UNL     1     -44.688 -47.095   9.284  1.00  0.00     0.070 C 
HETATM    9  N   UNL     1     -42.478 -48.157   9.345  1.00  0.00    -0.266 N 
HETATM   10  O   UNL     1     -41.557 -48.521  10.313  1.00  0.00    -0.241 OA
ATOM     11  HN  UNL     1     -42.374 -48.247   8.334  1.00  0.00     0.194 HD
ENDBRANCH   4   5
ENDBRANCH   1   4
BRANCH   1  12
HETATM   12  N   UNL     1     -42.302 -50.872  12.069  1.00  0.00    -0.215 NA
HETATM   13  H   UNL     1     -42.042 -51.461  11.273  1.00  0.00     0.140 HD
BRANCH  12  14
HETATM   14  C   UNL     1     -43.260 -51.631  12.962  1.00  0.00     0.071 C 
HETATM   15  C   UNL     1     -43.628 -52.996  12.366  1.00  0.00     0.020 C 
HETATM   16  C   UNL     1     -44.186 -53.971  13.396  1.00  0.00     0.002 C 
HETATM   17  C   UNL     1     -45.689 -53.861  13.642  1.00  0.00     0.000 C 
HETATM   18  C   UNL     1     -46.304 -52.465  13.625  1.00  0.00     0.000 C 
HETATM   19  C   UNL     1     -45.466 -51.380  14.293  1.00  0.00     0.002 C 
HETATM   20  C   UNL     1     -44.459 -50.749  13.334  1.00  0.00     0.020 C 
ENDBRANCH  12  14
ENDBRANCH   1  12
TORSDOF 4
ENDMDL
MODEL 3
REMARK VINA RESULT:      -5.3      2.549      4.430
REMARK  4 active torsions:
REMARK  status: ('A' for Active; 'I' for Inactive)
REMARK    1  A    between atoms: C_4  and  C_5 
REMARK    2  A    between atoms: C_5  and  S_6 
REMARK    3  A    between atoms: S_6  and  N_9 
REMARK    4  A    between atoms: N_9  and  C_10 
ROOT
HETATM    1  S   UNL     1     -41.875 -50.189  12.519  1.00  0.00     0.215 S 
HETATM    2  O   UNL     1     -41.965 -50.016  13.953  1.00  0.00    -0.211 OA
HETATM    3  O   UNL     1     -42.221 -49.129  11.600  1.00  0.00    -0.211 OA
ENDROOT
BRANCH   1   4
HETATM    4  C   UNL     1     -40.206 -50.743  12.130  1.00  0.00     0.224 C 
BRANCH   4   5
HETATM    5  C   UNL     1     -40.099 -52.074  12.770  1.00  0.00     0.093 A 
HETATM    6  C   UNL     1     -39.746 -52.493  14.031  1.00  0.00     0.062 A 
HETATM    7  C   UNL     1     -40.058 -53.866  14.043  1.00  0.00     0.031 A 
HETATM    8  C   UNL     1     -39.972 -54.804  15.185  1.00  0.00     0.070 C 
HETATM    9  N   UNL     1     -40.498 -54.275  12.848  1.00  0.00    -0.266 N 
HETATM   10  O   UNL     1     -40.531 -53.143  12.050  1.00  0.00    -0.241 OA
ATOM     11  HN  UNL     1     -40.757 -55.224  12.578  1.00  0.00     0.194 HD
ENDBRANCH   4   5
ENDBRANCH   1   4
BRANCH   1  12
HETATM   12  N   UNL     1     -42.848 -51.533  12.153  1.00  0.00    -0.215 NA
HETATM   13  H   UNL     1     -42.275 -52.299  11.792  1.00  0.00     0.140 HD
BRANCH  12  14
HETATM   14  C   UNL     1     -43.747 -52.056  13.254  1.00  0.00     0.071 C 
HETATM   15  C   UNL     1     -43.949 -53.573  13.145  1.00  0.00     0.020 C 
HETATM   16  C   UNL     1     -44.432 -54.210  14.443  1.00  0.00     0.002 C 
HETATM   17  C   UNL     1     -45.945 -54.192  14.648  1.00  0.00     0.000 C 
HETATM   18  C   UNL     1     -46.704 -52.956  14.174  1.00  0.00     0.000 C 
HETATM   19  C   UNL     1     -46.007 -51.626  14.441  1.00  0.00     0.002 C 
HETATM   20  C   UNL     1     -45.044 -51.239  13.320  1.00  0.00     0.020 C 
ENDBRANCH  12  14
ENDBRANCH   1  12
TORSDOF 4
ENDMDL
MODEL 4
REMARK VINA RESULT:      -5.3      4.950      6.161
REMARK  4 active torsions:
REMARK  status: ('A' for Active; 'I' for Inactive)
REMARK    1  A    between atoms: C_4  and  C_5 
REMARK    2  A    between atoms: C_5  and  S_6 
REMARK    3  A    between atoms: S_6  and  N_9 
REMARK    4  A    between atoms: N_9  and  C_10 
ROOT
HETATM    1  S   UNL     1     -45.157 -54.280  15.768  1.00  0.00     0.215 S 
HETATM    2  O   UNL     1     -44.857 -54.442  17.175  1.00  0.00    -0.211 OA
HETATM    3  O   UNL     1     -46.411 -54.719  15.200  1.00  0.00    -0.211 OA
ENDROOT
BRANCH   1   4
HETATM    4  C   UNL     1     -44.931 -52.544  15.347  1.00  0.00     0.224 C 
BRANCH   4   5
HETATM    5  C   UNL     1     -45.570 -52.398  14.019  1.00  0.00     0.093 A 
HETATM    6  C   UNL     1     -46.683 -51.728  13.572  1.00  0.00     0.062 A 
HETATM    7  C   UNL     1     -46.609 -51.824  12.169  1.00  0.00     0.031 A 
HETATM    8  C   UNL     1     -47.502 -51.196  11.170  1.00  0.00     0.070 C 
HETATM    9  N   UNL     1     -45.566 -52.569  11.788  1.00  0.00    -0.266 N 
HETATM   10  O   UNL     1     -44.908 -52.923  12.954  1.00  0.00    -0.241 OA
ATOM     11  HN  UNL     1     -45.307 -52.825  10.835  1.00  0.00     0.194 HD
ENDBRANCH   4   5
ENDBRANCH   1   4
BRANCH   1  12
HETATM   12  N   UNL     1     -43.904 -55.070  14.934  1.00  0.00    -0.215 NA
HETATM   13  H   UNL     1     -44.140 -55.160  13.943  1.00  0.00     0.140 HD
BRANCH  12  14
HETATM   14  C   UNL     1     -42.512 -54.491  15.068  1.00  0.00     0.071 C 
HETATM   15  C   UNL     1     -41.834 -54.328  13.701  1.00  0.00     0.020 C 
HETATM   16  C   UNL     1     -40.667 -53.348  13.721  1.00  0.00     0.002 C 
HETATM   17  C   UNL     1     -39.324 -53.949  14.128  1.00  0.00     0.000 C 
HETATM   18  C   UNL     1     -39.334 -55.017  15.218  1.00  0.00     0.000 C 
HETATM   19  C   UNL     1     -40.293 -54.754  16.375  1.00  0.00     0.002 C 
HETATM   20  C   UNL     1     -41.698 -55.285  16.097  1.00  0.00     0.020 C 
ENDBRANCH  12  14
ENDBRANCH   1  12
TORSDOF 4
ENDMDL
MODEL 5
REMARK VINA RESULT:      -5.3      3.280      4.440
REMARK  4 active torsions:
REMARK  status: ('A' for Active; 'I' for Inactive)
REMARK    1  A    between atoms: C_4  and  C_5 
REMARK    2  A    between atoms: C_5  and  S_6 
REMARK    3  A    between atoms: S_6  and  N_9 
REMARK    4  A    between atoms: N_9  and  C_10 
ROOT
HETATM    1  S   UNL     1     -41.548 -54.316  15.447  1.00  0.00     0.215 S 
HETATM    2  O   UNL     1     -41.602 -55.653  15.997  1.00  0.00    -0.211 OA
HETATM    3  O   UNL     1     -41.549 -53.143  16.291  1.00  0.00    -0.211 OA
ENDROOT
BRANCH   1   4
HETATM    4  C   UNL     1     -40.117 -54.219  14.359  1.00  0.00     0.224 C 
BRANCH   4   5
HETATM    5  C   UNL     1     -40.467 -53.167  13.378  1.00  0.00     0.093 A 
HETATM    6  C   UNL     1     -40.295 -51.803  13.348  1.00  0.00     0.062 A 
HETATM    7  C   UNL     1     -40.660 -51.433  12.039  1.00  0.00     0.031 A 
HETATM    8  C   UNL     1     -40.574 -50.092  11.421  1.00  0.00     0.070 C 
HETATM    9  N   UNL     1     -41.101 -52.486  11.342  1.00  0.00    -0.266 N 
HETATM   10  O   UNL     1     -40.971 -53.578  12.184  1.00  0.00    -0.241 OA
ATOM     11  HN  UNL     1     -41.459 -52.486  10.387  1.00  0.00     0.194 HD
ENDBRANCH   4   5
ENDBRANCH   1   4
BRANCH   1  12
HETATM   12  N   UNL     1     -42.874 -54.197  14.391  1.00  0.00    -0.215 NA
HETATM   13  H   UNL     1     -43.400 -55.074  14.381  1.00  0.00     0.140 HD
BRANCH  12  14
HETATM   14  C   UNL     1     -43.829 -53.042  14.606  1.00  0.00     0.071 C 
HETATM   15  C   UNL     1     -45.064 -53.473  15.409  1.00  0.00     0.020 C 
HETATM   16  C   UNL     1     -45.804 -52.303  16.048  1.00  0.00     0.002 C 
HETATM   17  C   UNL     1     -46.834 -51.622  15.149  1.00  0.00     0.000 C 
HETATM   18  C   UNL     1     -46.493 -51.484  13.669  1.00  0.00     0.000 C 
HETATM   19  C   UNL     1     -45.042 -51.119  13.369  1.00  0.00     0.002 C 
HETATM   20  C   UNL     1     -44.141 -52.348  13.274  1.00  0.00     0.020 C 
ENDBRANCH  12  14
ENDBRANCH   1  12
TORSDOF 4
ENDMDL
MODEL 6
REMARK VINA RESULT:      -5.2      2.933      5.491
REMARK  4 active torsions:
REMARK  status: ('A' for Active; 'I' for Inactive)
REMARK    1  A    between atoms: C_4  and  C_5 
REMARK    2  A    between atoms: C_5  and  S_6 
REMARK    3  A    between atoms: S_6  and  N_9 
REMARK    4  A    between atoms: N_9  and  C_10 
ROOT
HETATM    1  S   UNL     1     -41.381 -52.788  12.971  1.00  0.00     0.215 S 
HETATM    2  O   UNL     1     -41.130 -52.197  14.269  1.00  0.00    -0.211 OA
HETATM    3  O   UNL     1     -40.307 -53.268  12.131  1.00  0.00    -0.211 OA
ENDROOT
BRANCH   1   4
HETATM    4  C   UNL     1     -42.561 -54.130  13.191  1.00  0.00     0.224 C 
BRANCH   4   5
HETATM    5  C   UNL     1     -43.879 -53.459  13.244  1.00  0.00     0.093 A 
HETATM    6  C   UNL     1     -44.597 -52.858  14.251  1.00  0.00     0.062 A 
HETATM    7  C   UNL     1     -45.672 -52.232  13.590  1.00  0.00     0.031 A 
HETATM    8  C   UNL     1     -46.710 -51.357  14.177  1.00  0.00     0.070 C 
HETATM    9  N   UNL     1     -45.656 -52.499  12.279  1.00  0.00    -0.266 N 
HETATM   10  O   UNL     1     -44.522 -53.264  12.062  1.00  0.00    -0.241 OA
ATOM     11  HN  UNL     1     -46.339 -52.200  11.582  1.00  0.00     0.194 HD
ENDBRANCH   4   5
ENDBRANCH   1   4
BRANCH   1  12
HETATM   12  N   UNL     1     -42.247 -51.621  12.091  1.00  0.00    -0.215 NA
HETATM   13  H   UNL     1     -43.253 -51.779  12.188  1.00  0.00     0.140 HD
BRANCH  12  14
HETATM   14  C   UNL     1     -41.938 -50.167  12.379  1.00  0.00     0.071 C 
HETATM   15  C   UNL     1     -43.217 -49.355  12.624  1.00  0.00     0.020 C 
HETATM   16  C   UNL     1     -42.965 -48.044  13.361  1.00  0.00     0.002 C 
HETATM   17  C   UNL     1     -42.588 -46.864  12.468  1.00  0.00     0.000 C 
HETATM   18  C   UNL     1     -41.695 -47.150  11.265  1.00  0.00     0.000 C 
HETATM   19  C   UNL     1     -40.568 -48.147  11.516  1.00  0.00     0.002 C 
HETATM   20  C   UNL     1     -41.011 -49.593  11.300  1.00  0.00     0.020 C 
ENDBRANCH  12  14
ENDBRANCH   1  12
TORSDOF 4
ENDMDL
MODEL 7
REMARK VINA RESULT:      -5.1      5.186      6.646
REMARK  4 active torsions:
REMARK  status: ('A' for Active; 'I' for Inactive)
REMARK    1  A    between atoms: C_4  and  C_5 
REMARK    2  A    between atoms: C_5  and  S_6 
REMARK    3  A    between atoms: S_6  and  N_9 
REMARK    4  A    between atoms: N_9  and  C_10 
ROOT
HETATM    1  S   UNL     1     -44.289 -54.205  17.468  1.00  0.00     0.215 S 
HETATM    2  O   UNL     1     -43.618 -52.930  17.603  1.00  0.00    -0.211 OA
HETATM    3  O   UNL     1     -44.056 -55.293  18.391  1.00  0.00    -0.211 OA
ENDROOT
BRANCH   1   4
HETATM    4  C   UNL     1     -46.062 -53.896  17.406  1.00  0.00     0.224 C 
BRANCH   4   5
HETATM    5  C   UNL     1     -46.311 -53.442  16.019  1.00  0.00     0.093 A 
HETATM    6  C   UNL     1     -46.241 -52.220  15.394  1.00  0.00     0.062 A 
HETATM    7  C   UNL     1     -46.393 -52.517  14.026  1.00  0.00     0.031 A 
HETATM    8  C   UNL     1     -46.301 -51.583  12.882  1.00  0.00     0.070 C 
HETATM    9  N   UNL     1     -46.619 -53.821  13.835  1.00  0.00    -0.266 N 
HETATM   10  O   UNL     1     -46.559 -54.404  15.090  1.00  0.00    -0.241 OA
ATOM     11  HN  UNL     1     -46.800 -54.291  12.947  1.00  0.00     0.194 HD
ENDBRANCH   4   5
ENDBRANCH   1   4
BRANCH   1  12
HETATM   12  N   UNL     1     -43.916 -54.761  15.906  1.00  0.00    -0.215 NA
HETATM   13  H   UNL     1     -44.755 -54.762  15.320  1.00  0.00     0.140 HD
BRANCH  12  14
HETATM   14  C   UNL     1     -42.794 -54.058  15.171  1.00  0.00     0.071 C 
HETATM   15  C   UNL     1     -43.039 -54.033  13.656  1.00  0.00     0.020 C 
HETATM   16  C   UNL     1     -42.223 -52.968  12.933  1.00  0.00     0.002 C 
HETATM   17  C   UNL     1     -40.814 -53.397  12.529  1.00  0.00     0.000 C 
HETATM   18  C   UNL     1     -40.050 -54.300  13.494  1.00  0.00     0.000 C 
HETATM   19  C   UNL     1     -40.215 -53.956  14.971  1.00  0.00     0.002 C 
HETATM   20  C   UNL     1     -41.436 -54.633  15.592  1.00  0.00     0.020 C 
ENDBRANCH  12  14
ENDBRANCH   1  12
TORSDOF 4
ENDMDL
MODEL 8
REMARK VINA RESULT:      -5.1      2.225      3.148
REMARK  4 active torsions:
REMARK  status: ('A' for Active; 'I' for Inactive)
REMARK    1  A    between atoms: C_4  and  C_5 
REMARK    2  A    between atoms: C_5  and  S_6 
REMARK    3  A    between atoms: S_6  and  N_9 
REMARK    4  A    between atoms: N_9  and  C_10 
ROOT
HETATM    1  S   UNL     1     -40.935 -52.079  12.829  1.00  0.00     0.215 S 
HETATM    2  O   UNL     1     -41.671 -52.154  11.585  1.00  0.00    -0.211 OA
HETATM    3  O   UNL     1     -39.629 -52.679  12.981  1.00  0.00    -0.211 OA
ENDROOT
BRANCH   1   4
HETATM    4  C   UNL     1     -40.811 -50.345  13.298  1.00  0.00     0.224 C 
BRANCH   4   5
HETATM    5  C   UNL     1     -41.410 -49.610  12.162  1.00  0.00     0.093 A 
HETATM    6  C   UNL     1     -42.574 -48.895  12.003  1.00  0.00     0.062 A 
HETATM    7  C   UNL     1     -42.435 -48.276  10.746  1.00  0.00     0.031 A 
HETATM    8  C   UNL     1     -43.354 -47.307  10.108  1.00  0.00     0.070 C 
HETATM    9  N   UNL     1     -41.301 -48.649  10.143  1.00  0.00    -0.266 N 
HETATM   10  O   UNL     1     -40.653 -49.483  11.039  1.00  0.00    -0.241 OA
ATOM     11  HN  UNL     1     -40.979 -48.377   9.214  1.00  0.00     0.194 HD
ENDBRANCH   4   5
ENDBRANCH   1   4
BRANCH   1  12
HETATM   12  N   UNL     1     -41.956 -52.751  14.010  1.00  0.00    -0.215 NA
HETATM   13  H   UNL     1     -41.817 -52.280  14.908  1.00  0.00     0.140 HD
BRANCH  12  14
HETATM   14  C   UNL     1     -43.436 -52.805  13.696  1.00  0.00     0.071 C 
HETATM   15  C   UNL     1     -44.190 -51.625  14.324  1.00  0.00     0.020 C 
HETATM   16  C   UNL     1     -45.545 -51.365  13.677  1.00  0.00     0.002 C 
HETATM   17  C   UNL     1     -46.700 -52.188  14.243  1.00  0.00     0.000 C 
HETATM   18  C   UNL     1     -46.405 -53.629  14.646  1.00  0.00     0.000 C 
HETATM   19  C   UNL     1     -45.481 -54.391  13.700  1.00  0.00     0.002 C 
HETATM   20  C   UNL     1     -44.006 -54.187  14.039  1.00  0.00     0.020 C 
ENDBRANCH  12  14
ENDBRANCH   1  12
TORSDOF 4
ENDMDL
MODEL 9
REMARK VINA RESULT:      -4.9      4.015      5.533
REMARK  4 active torsions:
REMARK  status: ('A' for Active; 'I' for Inactive)
REMARK    1  A    between atoms: C_4  and  C_5 
REMARK    2  A    between atoms: C_5  and  S_6 
REMARK    3  A    between atoms: S_6  and  N_9 
REMARK    4  A    between atoms: N_9  and  C_10 
ROOT
HETATM    1  S   UNL     1     -44.982 -53.765  15.170  1.00  0.00     0.215 S 
HETATM    2  O   UNL     1     -44.465 -52.895  16.205  1.00  0.00    -0.211 OA
HETATM    3  O   UNL     1     -46.009 -54.746  15.439  1.00  0.00    -0.211 OA
ENDROOT
BRANCH   1   4
HETATM    4  C   UNL     1     -45.541 -52.732  13.805  1.00  0.00     0.224 C 
BRANCH   4   5
HETATM    5  C   UNL     1     -44.297 -52.336  13.106  1.00  0.00     0.093 A 
HETATM    6  C   UNL     1     -43.384 -51.326  13.294  1.00  0.00     0.062 A 
HETATM    7  C   UNL     1     -42.326 -51.643  12.421  1.00  0.00     0.031 A 
HETATM    8  C   UNL     1     -41.029 -50.945  12.281  1.00  0.00     0.070 C 
HETATM    9  N   UNL     1     -42.607 -52.728  11.692  1.00  0.00    -0.266 N 
HETATM   10  O   UNL     1     -43.845 -53.168  12.130  1.00  0.00    -0.241 OA
ATOM     11  HN  UNL     1     -42.029 -53.147  10.962  1.00  0.00     0.194 HD
ENDBRANCH   4   5
ENDBRANCH   1   4
BRANCH   1  12
HETATM   12  N   UNL     1     -43.634 -54.583  14.538  1.00  0.00    -0.215 NA
HETATM   13  H   UNL     1     -43.438 -54.263  13.586  1.00  0.00     0.140 HD
BRANCH  12  14
HETATM   14  C   UNL     1     -42.357 -54.545  15.351  1.00  0.00     0.071 C 
HETATM   15  C   UNL     1     -41.122 -54.382  14.457  1.00  0.00     0.020 C 
HETATM   16  C   UNL     1     -39.896 -53.877  15.210  1.00  0.00     0.002 C 
HETATM   17  C   UNL     1     -39.059 -54.961  15.883  1.00  0.00     0.000 C 
HETATM   18  C   UNL     1     -39.802 -56.138  16.508  1.00  0.00     0.000 C 
HETATM   19  C   UNL     1     -41.089 -55.774  17.243  1.00  0.00     0.002 C 
HETATM   20  C   UNL     1     -42.300 -55.738  16.314  1.00  0.00     0.020 C 
ENDBRANCH  12  14
ENDBRANCH   1  12
TORSDOF 4
ENDMDL
