MODEL 1
REMARK VINA RESULT:      -6.7      0.000      0.000
REMARK  4 active torsions:
REMARK  status: ('A' for Active; 'I' for Inactive)
REMARK       I    between atoms: C_2  and  N_4 
REMARK    1  A    between atoms: C_7  and  N_10 
REMARK       I    between atoms: N_10  and  C_11 
REMARK       I    between atoms: C_11  and  N_13 
REMARK    2  A    between atoms: N_13  and  C_14 
REMARK    3  A    between atoms: C_14  and  C_15 
REMARK    4  A    between atoms: C_15  and  C_16 
ROOT
HETATM    1  N   UNL     1     -42.347 -51.209  12.231  1.00  0.00    -0.338 N 
HETATM    2  C   UNL     1     -41.592 -50.073  12.087  1.00  0.00     0.316 C 
HETATM    3  O   UNL     1     -40.641 -49.780  12.798  1.00  0.00    -0.247 OA
HETATM    4  N   UNL     1     -42.030 -49.313  11.036  1.00  0.00    -0.343 N 
HETATM    5  H   UNL     1     -43.283 -51.149  11.859  1.00  0.00     0.164 HD
HETATM    6  H   UNL     1     -42.606 -49.767  10.344  1.00  0.00     0.164 HD
ENDROOT
BRANCH   1   7
HETATM    7  C   UNL     1     -42.097 -52.143  13.326  1.00  0.00     0.089 C 
HETATM    8  C   UNL     1     -42.316 -53.589  12.879  1.00  0.00     0.045 C 
HETATM    9  C   UNL     1     -43.793 -53.911  12.690  1.00  0.00     0.127 C 
HETATM   10  N   UNL     1     -44.571 -53.558  13.875  1.00  0.00    -0.352 N 
HETATM   11  C   UNL     1     -45.515 -54.462  14.342  1.00  0.00     0.215 C 
HETATM   12  C   UNL     1     -44.423 -52.177  14.342  1.00  0.00     0.127 C 
HETATM   13  C   UNL     1     -46.402 -54.024  15.477  1.00  0.00     0.117 C 
HETATM   14  O   UNL     1     -45.648 -55.590  13.862  1.00  0.00    -0.274 OA
HETATM   15  C   UNL     1     -42.954 -51.824  14.559  1.00  0.00     0.045 C 
ENDBRANCH   1   7
BRANCH   4  16
HETATM   16  C   UNL     1     -41.291 -48.129  10.638  1.00  0.00     0.129 C 
BRANCH  16  17
HETATM   17  C   UNL     1     -42.191 -46.947  10.269  1.00  0.00     0.061 C 
BRANCH  17  18
HETATM   18  C   UNL     1     -43.405 -47.341   9.500  1.00  0.00    -0.023 A 
HETATM   19  C   UNL     1     -43.486 -47.708   8.138  1.00  0.00     0.115 A 
HETATM   20  N   UNL     1     -44.735 -47.993   7.757  1.00  0.00    -0.310 N 
HETATM   21  N   UNL     1     -45.457 -47.818   8.877  1.00  0.00    -0.308 N 
ATOM     22  HN  UNL     1     -45.063 -48.276   6.833  1.00  0.00     0.186 HD
HETATM   23  C   UNL     1     -46.884 -48.024   8.859  1.00  0.00     0.177 C 
HETATM   24  C   UNL     1     -44.707 -47.431   9.950  1.00  0.00     0.118 A 
ENDBRANCH  17  18
ENDBRANCH  16  17
ENDBRANCH   4  16
TORSDOF 4
ENDMDL
MODEL 2
REMARK VINA RESULT:      -6.1      2.705      4.017
REMARK  4 active torsions:
REMARK  status: ('A' for Active; 'I' for Inactive)
REMARK       I    between atoms: C_2  and  N_4 
REMARK    1  A    between atoms: C_7  and  N_10 
REMARK       I    between atoms: N_10  and  C_11 
REMARK       I    between atoms: C_11  and  N_13 
REMARK    2  A    between atoms: N_13  and  C_14 
REMARK    3  A    between atoms: C_14  and  C_15 
REMARK    4  A    between atoms: C_15  and  C_16 
ROOT
HETATM    1  N   UNL     1     -40.347 -52.731  14.854  1.00  0.00    -0.338 N 
HETATM    2  C   UNL     1     -39.180 -52.300  14.274  1.00  0.00     0.316 C 
HETATM    3  O   UNL     1     -38.525 -52.952  13.473  1.00  0.00    -0.247 OA
HETATM    4  N   UNL     1     -38.847 -51.042  14.696  1.00  0.00    -0.343 N 
HETATM    5  H   UNL     1     -40.569 -52.296  15.737  1.00  0.00     0.164 HD
HETATM    6  H   UNL     1     -39.579 -50.483  15.108  1.00  0.00     0.164 HD
ENDROOT
BRANCH   1   7
HETATM    7  C   UNL     1     -40.865 -54.072  14.595  1.00  0.00     0.089 C 
HETATM    8  C   UNL     1     -41.455 -54.172  13.188  1.00  0.00     0.045 C 
HETATM    9  C   UNL     1     -42.782 -53.432  13.071  1.00  0.00     0.127 C 
HETATM   10  N   UNL     1     -43.717 -53.850  14.113  1.00  0.00    -0.352 N 
HETATM   11  C   UNL     1     -45.035 -54.108  13.756  1.00  0.00     0.215 C 
HETATM   12  C   UNL     1     -43.220 -53.756  15.488  1.00  0.00     0.127 C 
HETATM   13  C   UNL     1     -46.014 -54.401  14.862  1.00  0.00     0.117 C 
HETATM   14  O   UNL     1     -45.419 -54.101  12.585  1.00  0.00    -0.274 OA
HETATM   15  C   UNL     1     -41.897 -54.502  15.645  1.00  0.00     0.045 C 
ENDBRANCH   1   7
BRANCH   4  16
HETATM   16  C   UNL     1     -37.711 -50.355  14.110  1.00  0.00     0.129 C 
BRANCH  16  17
HETATM   17  C   UNL     1     -38.069 -48.995  13.507  1.00  0.00     0.061 C 
BRANCH  17  18
HETATM   18  C   UNL     1     -39.091 -49.072  12.426  1.00  0.00    -0.023 A 
HETATM   19  C   UNL     1     -39.184 -50.027  11.388  1.00  0.00     0.115 A 
HETATM   20  N   UNL     1     -40.219 -49.801  10.574  1.00  0.00    -0.310 N 
HETATM   21  N   UNL     1     -40.798 -48.705  11.093  1.00  0.00    -0.308 N 
ATOM     22  HN  UNL     1     -40.502 -50.334   9.751  1.00  0.00     0.186 HD
HETATM   23  C   UNL     1     -41.966 -48.137  10.466  1.00  0.00     0.177 C 
HETATM   24  C   UNL     1     -40.164 -48.231  12.205  1.00  0.00     0.118 A 
ENDBRANCH  17  18
ENDBRANCH  16  17
ENDBRANCH   4  16
TORSDOF 4
ENDMDL
MODEL 3
REMARK VINA RESULT:      -6.0      1.896      2.009
REMARK  4 active torsions:
REMARK  status: ('A' for Active; 'I' for Inactive)
REMARK       I    between atoms: C_2  and  N_4 
REMARK    1  A    between atoms: C_7  and  N_10 
REMARK       I    between atoms: N_10  and  C_11 
REMARK       I    between atoms: C_11  and  N_13 
REMARK    2  A    between atoms: N_13  and  C_14 
REMARK    3  A    between atoms: C_14  and  C_15 
REMARK    4  A    between atoms: C_15  and  C_16 
ROOT
HETATM    1  N   UNL     1     -41.398 -51.475  12.396  1.00  0.00    -0.338 N 
HETATM    2  C   UNL     1     -40.871 -50.363  11.790  1.00  0.00     0.316 C 
HETATM    3  O   UNL     1     -39.675 -50.118  11.715  1.00  0.00    -0.247 OA
HETATM    4  N   UNL     1     -41.853 -49.567  11.266  1.00  0.00    -0.343 N 
HETATM    5  H   UNL     1     -42.349 -51.375  12.718  1.00  0.00     0.164 HD
HETATM    6  H   UNL     1     -42.758 -49.987  11.115  1.00  0.00     0.164 HD
ENDROOT
BRANCH   1   7
HETATM    7  C   UNL     1     -40.537 -52.439  13.077  1.00  0.00     0.089 C 
HETATM    8  C   UNL     1     -40.990 -53.873  12.803  1.00  0.00     0.045 C 
HETATM    9  C   UNL     1     -42.277 -54.217  13.542  1.00  0.00     0.127 C 
HETATM   10  N   UNL     1     -42.169 -53.916  14.967  1.00  0.00    -0.352 N 
HETATM   11  C   UNL     1     -42.637 -54.853  15.879  1.00  0.00     0.215 C 
HETATM   12  C   UNL     1     -41.760 -52.549  15.299  1.00  0.00     0.127 C 
HETATM   13  C   UNL     1     -42.646 -54.469  17.335  1.00  0.00     0.117 C 
HETATM   14  O   UNL     1     -43.041 -55.967  15.539  1.00  0.00    -0.274 OA
HETATM   15  C   UNL     1     -40.462 -52.176  14.588  1.00  0.00     0.045 C 
ENDBRANCH   1   7
BRANCH   4  16
HETATM   16  C   UNL     1     -41.501 -48.401  10.477  1.00  0.00     0.129 C 
BRANCH  16  17
HETATM   17  C   UNL     1     -42.230 -47.129  10.914  1.00  0.00     0.061 C 
BRANCH  17  18
HETATM   18  C   UNL     1     -43.488 -46.874  10.158  1.00  0.00    -0.023 A 
HETATM   19  C   UNL     1     -43.765 -45.808   9.271  1.00  0.00     0.115 A 
HETATM   20  N   UNL     1     -45.001 -45.868   8.767  1.00  0.00    -0.310 N 
HETATM   21  N   UNL     1     -45.517 -46.978   9.322  1.00  0.00    -0.308 N 
ATOM     22  HN  UNL     1     -45.447 -45.223   8.115  1.00  0.00     0.186 HD
HETATM   23  C   UNL     1     -46.869 -47.376   9.022  1.00  0.00     0.177 C 
HETATM   24  C   UNL     1     -44.650 -47.619  10.160  1.00  0.00     0.118 A 
ENDBRANCH  17  18
ENDBRANCH  16  17
ENDBRANCH   4  16
TORSDOF 4
ENDMDL
MODEL 4
REMARK VINA RESULT:      -5.9      2.755      3.593
REMARK  4 active torsions:
REMARK  status: ('A' for Active; 'I' for Inactive)
REMARK       I    between atoms: C_2  and  N_4 
REMARK    1  A    between atoms: C_7  and  N_10 
REMARK       I    between atoms: N_10  and  C_11 
REMARK       I    between atoms: C_11  and  N_13 
REMARK    2  A    between atoms: N_13  and  C_14 
REMARK    3  A    between atoms: C_14  and  C_15 
REMARK    4  A    between atoms: C_15  and  C_16 
ROOT
HETATM    1  N   UNL     1     -42.976 -50.221  12.503  1.00  0.00    -0.338 N 
HETATM    2  C   UNL     1     -42.880 -48.934  12.037  1.00  0.00     0.316 C 
HETATM    3  O   UNL     1     -43.357 -47.958  12.599  1.00  0.00    -0.247 OA
HETATM    4  N   UNL     1     -42.171 -48.878  10.868  1.00  0.00    -0.343 N 
HETATM    5  H   UNL     1     -42.890 -50.937  11.797  1.00  0.00     0.164 HD
HETATM    6  H   UNL     1     -41.578 -49.663  10.648  1.00  0.00     0.164 HD
ENDROOT
BRANCH   1   7
HETATM    7  C   UNL     1     -43.741 -50.529  13.709  1.00  0.00     0.089 C 
HETATM    8  C   UNL     1     -42.927 -51.393  14.672  1.00  0.00     0.045 C 
HETATM    9  C   UNL     1     -42.783 -52.825  14.171  1.00  0.00     0.127 C 
HETATM   10  N   UNL     1     -44.081 -53.407  13.841  1.00  0.00    -0.352 N 
HETATM   11  C   UNL     1     -44.356 -54.700  14.267  1.00  0.00     0.215 C 
HETATM   12  C   UNL     1     -44.902 -52.637  12.903  1.00  0.00     0.127 C 
HETATM   13  C   UNL     1     -45.639 -55.333  13.799  1.00  0.00     0.117 C 
HETATM   14  O   UNL     1     -43.592 -55.334  14.999  1.00  0.00    -0.274 OA
HETATM   15  C   UNL     1     -45.082 -51.200  13.383  1.00  0.00     0.045 C 
ENDBRANCH   1   7
BRANCH   4  16
HETATM   16  C   UNL     1     -41.851 -47.593  10.273  1.00  0.00     0.129 C 
BRANCH  16  17
HETATM   17  C   UNL     1     -40.698 -46.870  10.973  1.00  0.00     0.061 C 
BRANCH  17  18
HETATM   18  C   UNL     1     -40.844 -45.387  10.985  1.00  0.00    -0.023 A 
HETATM   19  C   UNL     1     -39.862 -44.418  10.676  1.00  0.00     0.115 A 
HETATM   20  N   UNL     1     -40.320 -43.168  10.797  1.00  0.00    -0.310 N 
HETATM   21  N   UNL     1     -41.599 -43.333  11.175  1.00  0.00    -0.308 N 
ATOM     22  HN  UNL     1     -39.817 -42.295  10.639  1.00  0.00     0.186 HD
HETATM   23  C   UNL     1     -42.435 -42.185  11.423  1.00  0.00     0.177 C 
HETATM   24  C   UNL     1     -41.963 -44.643  11.299  1.00  0.00     0.118 A 
ENDBRANCH  17  18
ENDBRANCH  16  17
ENDBRANCH   4  16
TORSDOF 4
ENDMDL
MODEL 5
REMARK VINA RESULT:      -5.8      2.928      3.938
REMARK  4 active torsions:
REMARK  status: ('A' for Active; 'I' for Inactive)
REMARK       I    between atoms: C_2  and  N_4 
REMARK    1  A    between atoms: C_7  and  N_10 
REMARK       I    between atoms: N_10  and  C_11 
REMARK       I    between atoms: C_11  and  N_13 
REMARK    2  A    between atoms: N_13  and  C_14 
REMARK    3  A    between atoms: C_14  and  C_15 
REMARK    4  A    between atoms: C_15  and  C_16 
ROOT
HETATM    1  N   UNL     1     -40.118 -52.016  13.876  1.00  0.00    -0.338 N 
HETATM    2  C   UNL     1     -39.070 -51.195  13.545  1.00  0.00     0.316 C 
HETATM    3  O   UNL     1     -38.420 -51.286  12.513  1.00  0.00    -0.247 OA
HETATM    4  N   UNL     1     -38.850 -50.251  14.511  1.00  0.00    -0.343 N 
HETATM    5  H   UNL     1     -40.308 -52.088  14.864  1.00  0.00     0.164 HD
HETATM    6  H   UNL     1     -39.601 -50.069  15.159  1.00  0.00     0.164 HD
ENDROOT
BRANCH   1   7
HETATM    7  C   UNL     1     -40.496 -53.136  13.017  1.00  0.00     0.089 C 
HETATM    8  C   UNL     1     -41.475 -52.691  11.929  1.00  0.00     0.045 C 
HETATM    9  C   UNL     1     -42.863 -52.409  12.491  1.00  0.00     0.127 C 
HETATM   10  N   UNL     1     -43.358 -53.536  13.278  1.00  0.00    -0.352 N 
HETATM   11  C   UNL     1     -44.670 -53.950  13.089  1.00  0.00     0.215 C 
HETATM   12  C   UNL     1     -42.476 -53.997  14.352  1.00  0.00     0.127 C 
HETATM   13  C   UNL     1     -45.205 -55.019  14.004  1.00  0.00     0.117 C 
HETATM   14  O   UNL     1     -45.397 -53.474  12.213  1.00  0.00    -0.274 OA
HETATM   15  C   UNL     1     -41.078 -54.306  13.822  1.00  0.00     0.045 C 
ENDBRANCH   1   7
BRANCH   4  16
HETATM   16  C   UNL     1     -37.863 -49.209  14.298  1.00  0.00     0.129 C 
BRANCH  16  17
HETATM   17  C   UNL     1     -38.461 -47.800  14.283  1.00  0.00     0.061 C 
BRANCH  17  18
HETATM   18  C   UNL     1     -39.412 -47.569  13.160  1.00  0.00    -0.023 A 
HETATM   19  C   UNL     1     -39.265 -47.953  11.807  1.00  0.00     0.115 A 
HETATM   20  N   UNL     1     -40.302 -47.579  11.052  1.00  0.00    -0.310 N 
HETATM   21  N   UNL     1     -41.121 -46.961  11.920  1.00  0.00    -0.308 N 
ATOM     22  HN  UNL     1     -40.439 -47.727  10.052  1.00  0.00     0.186 HD
HETATM   23  C   UNL     1     -42.367 -46.397  11.464  1.00  0.00     0.177 C 
HETATM   24  C   UNL     1     -40.636 -46.931  13.196  1.00  0.00     0.118 A 
ENDBRANCH  17  18
ENDBRANCH  16  17
ENDBRANCH   4  16
TORSDOF 4
ENDMDL
MODEL 6
REMARK VINA RESULT:      -5.5      3.149      4.001
REMARK  4 active torsions:
REMARK  status: ('A' for Active; 'I' for Inactive)
REMARK       I    between atoms: C_2  and  N_4 
REMARK    1  A    between atoms: C_7  and  N_10 
REMARK       I    between atoms: N_10  and  C_11 
REMARK       I    between atoms: C_11  and  N_13 
REMARK    2  A    between atoms: N_13  and  C_14 
REMARK    3  A    between atoms: C_14  and  C_15 
REMARK    4  A    between atoms: C_15  and  C_16 
ROOT
HETATM    1  N   UNL     1     -40.089 -52.216  14.107  1.00  0.00    -0.338 N 
HETATM    2  C   UNL     1     -39.479 -51.252  13.344  1.00  0.00     0.316 C 
HETATM    3  O   UNL     1     -39.000 -51.448  12.237  1.00  0.00    -0.247 OA
HETATM    4  N   UNL     1     -39.487 -50.037  13.975  1.00  0.00    -0.343 N 
HETATM    5  H   UNL     1     -40.093 -52.035  15.100  1.00  0.00     0.164 HD
HETATM    6  H   UNL     1     -40.149 -49.909  14.724  1.00  0.00     0.164 HD
ENDROOT
BRANCH   1   7
HETATM    7  C   UNL     1     -40.146 -53.605  13.658  1.00  0.00     0.089 C 
HETATM    8  C   UNL     1     -41.567 -54.160  13.761  1.00  0.00     0.045 C 
HETATM    9  C   UNL     1     -41.977 -54.413  15.207  1.00  0.00     0.127 C 
HETATM   10  N   UNL     1     -40.991 -55.236  15.903  1.00  0.00    -0.352 N 
HETATM   11  C   UNL     1     -41.443 -56.282  16.698  1.00  0.00     0.215 C 
HETATM   12  C   UNL     1     -39.611 -54.746  15.861  1.00  0.00     0.127 C 
HETATM   13  C   UNL     1     -40.424 -57.029  17.517  1.00  0.00     0.117 C 
HETATM   14  O   UNL     1     -42.631 -56.607  16.755  1.00  0.00    -0.274 OA
HETATM   15  C   UNL     1     -39.160 -54.497  14.424  1.00  0.00     0.045 C 
ENDBRANCH   1   7
BRANCH   4  16
HETATM   16  C   UNL     1     -38.998 -48.858  13.286  1.00  0.00     0.129 C 
BRANCH  16  17
HETATM   17  C   UNL     1     -40.026 -47.725  13.217  1.00  0.00     0.061 C 
BRANCH  17  18
HETATM   18  C   UNL     1     -40.810 -47.710  11.950  1.00  0.00    -0.023 A 
HETATM   19  C   UNL     1     -40.908 -48.732  10.979  1.00  0.00     0.115 A 
HETATM   20  N   UNL     1     -41.690 -48.390   9.951  1.00  0.00    -0.310 N 
HETATM   21  N   UNL     1     -42.103 -47.150  10.264  1.00  0.00    -0.308 N 
ATOM     22  HN  UNL     1     -41.919 -48.940   9.123  1.00  0.00     0.186 HD
HETATM   23  C   UNL     1     -42.972 -46.428   9.369  1.00  0.00     0.177 C 
HETATM   24  C   UNL     1     -41.608 -46.698  11.453  1.00  0.00     0.118 A 
ENDBRANCH  17  18
ENDBRANCH  16  17
ENDBRANCH   4  16
TORSDOF 4
ENDMDL
MODEL 7
REMARK VINA RESULT:      -5.5      4.122      7.630
REMARK  4 active torsions:
REMARK  status: ('A' for Active; 'I' for Inactive)
REMARK       I    between atoms: C_2  and  N_4 
REMARK    1  A    between atoms: C_7  and  N_10 
REMARK       I    between atoms: N_10  and  C_11 
REMARK       I    between atoms: C_11  and  N_13 
REMARK    2  A    between atoms: N_13  and  C_14 
REMARK    3  A    between atoms: C_14  and  C_15 
REMARK    4  A    between atoms: C_15  and  C_16 
ROOT
HETATM    1  N   UNL     1     -39.482 -50.224  13.753  1.00  0.00    -0.338 N 
HETATM    2  C   UNL     1     -39.457 -51.593  13.659  1.00  0.00     0.316 C 
HETATM    3  O   UNL     1     -38.539 -52.236  13.171  1.00  0.00    -0.247 OA
HETATM    4  N   UNL     1     -40.588 -52.150  14.193  1.00  0.00    -0.343 N 
HETATM    5  H   UNL     1     -40.404 -49.817  13.811  1.00  0.00     0.164 HD
HETATM    6  H   UNL     1     -41.131 -51.580  14.824  1.00  0.00     0.164 HD
ENDROOT
BRANCH   1   7
HETATM    7  C   UNL     1     -38.403 -49.413  13.192  1.00  0.00     0.089 C 
HETATM    8  C   UNL     1     -37.903 -48.385  14.208  1.00  0.00     0.045 C 
HETATM    9  C   UNL     1     -38.901 -47.253  14.413  1.00  0.00     0.127 C 
HETATM   10  N   UNL     1     -39.295 -46.653  13.141  1.00  0.00    -0.352 N 
HETATM   11  C   UNL     1     -39.345 -45.268  13.049  1.00  0.00     0.215 C 
HETATM   12  C   UNL     1     -39.806 -47.583  12.132  1.00  0.00     0.127 C 
HETATM   13  C   UNL     1     -39.886 -44.670  11.777  1.00  0.00     0.117 C 
HETATM   14  O   UNL     1     -38.969 -44.528  13.961  1.00  0.00    -0.274 OA
HETATM   15  C   UNL     1     -38.822 -48.723  11.887  1.00  0.00     0.045 C 
ENDBRANCH   1   7
BRANCH   4  16
HETATM   16  C   UNL     1     -40.705 -53.592  14.303  1.00  0.00     0.129 C 
BRANCH  16  17
HETATM   17  C   UNL     1     -41.516 -54.224  13.169  1.00  0.00     0.061 C 
BRANCH  17  18
HETATM   18  C   UNL     1     -42.976 -53.942  13.254  1.00  0.00    -0.023 A 
HETATM   19  C   UNL     1     -43.925 -54.541  14.114  1.00  0.00     0.115 A 
HETATM   20  N   UNL     1     -45.161 -54.067  13.923  1.00  0.00    -0.310 N 
HETATM   21  N   UNL     1     -45.005 -53.157  12.947  1.00  0.00    -0.308 N 
ATOM     22  HN  UNL     1     -46.019 -54.334  14.406  1.00  0.00     0.186 HD
HETATM   23  C   UNL     1     -46.144 -52.427  12.449  1.00  0.00     0.177 C 
HETATM   24  C   UNL     1     -43.716 -53.041  12.514  1.00  0.00     0.118 A 
ENDBRANCH  17  18
ENDBRANCH  16  17
ENDBRANCH   4  16
TORSDOF 4
ENDMDL
MODEL 8
REMARK VINA RESULT:      -5.4      5.517      7.820
REMARK  4 active torsions:
REMARK  status: ('A' for Active; 'I' for Inactive)
REMARK       I    between atoms: C_2  and  N_4 
REMARK    1  A    between atoms: C_7  and  N_10 
REMARK       I    between atoms: N_10  and  C_11 
REMARK       I    between atoms: C_11  and  N_13 
REMARK    2  A    between atoms: N_13  and  C_14 
REMARK    3  A    between atoms: C_14  and  C_15 
REMARK    4  A    between atoms: C_15  and  C_16 
ROOT
HETATM    1  N   UNL     1     -40.080 -52.011  13.926  1.00  0.00    -0.338 N 
HETATM    2  C   UNL     1     -38.873 -51.364  13.830  1.00  0.00     0.316 C 
HETATM    3  O   UNL     1     -38.078 -51.518  12.913  1.00  0.00    -0.247 OA
HETATM    4  N   UNL     1     -38.677 -50.514  14.884  1.00  0.00    -0.343 N 
HETATM    5  H   UNL     1     -40.445 -52.093  14.863  1.00  0.00     0.164 HD
HETATM    6  H   UNL     1     -39.490 -50.236  15.412  1.00  0.00     0.164 HD
ENDROOT
BRANCH   1   7
HETATM    7  C   UNL     1     -40.476 -53.013  12.939  1.00  0.00     0.089 C 
HETATM    8  C   UNL     1     -41.490 -52.440  11.948  1.00  0.00     0.045 C 
HETATM    9  C   UNL     1     -42.862 -52.248  12.583  1.00  0.00     0.127 C 
HETATM   10  N   UNL     1     -43.326 -53.473  13.229  1.00  0.00    -0.352 N 
HETATM   11  C   UNL     1     -44.641 -53.873  13.026  1.00  0.00     0.215 C 
HETATM   12  C   UNL     1     -42.408 -54.062  14.207  1.00  0.00     0.127 C 
HETATM   13  C   UNL     1     -45.141 -55.058  13.809  1.00  0.00     0.117 C 
HETATM   14  O   UNL     1     -45.396 -53.294  12.242  1.00  0.00    -0.274 OA
HETATM   15  C   UNL     1     -41.026 -54.284  13.600  1.00  0.00     0.045 C 
ENDBRANCH   1   7
BRANCH   4  16
HETATM   16  C   UNL     1     -37.516 -49.644  14.910  1.00  0.00     0.129 C 
BRANCH  16  17
HETATM   17  C   UNL     1     -36.357 -50.203  15.739  1.00  0.00     0.061 C 
BRANCH  17  18
HETATM   18  C   UNL     1     -35.847 -49.251  16.766  1.00  0.00    -0.023 A 
HETATM   19  C   UNL     1     -35.554 -47.878  16.605  1.00  0.00     0.115 A 
HETATM   20  N   UNL     1     -35.099 -47.315  17.729  1.00  0.00    -0.310 N 
HETATM   21  N   UNL     1     -35.109 -48.324  18.617  1.00  0.00    -0.308 N 
ATOM     22  HN  UNL     1     -34.813 -46.348  17.878  1.00  0.00     0.186 HD
HETATM   23  C   UNL     1     -34.664 -48.104  19.970  1.00  0.00     0.177 C 
HETATM   24  C   UNL     1     -35.552 -49.504  18.091  1.00  0.00     0.118 A 
ENDBRANCH  17  18
ENDBRANCH  16  17
ENDBRANCH   4  16
TORSDOF 4
ENDMDL
MODEL 9
REMARK VINA RESULT:      -5.4      2.396      3.030
REMARK  4 active torsions:
REMARK  status: ('A' for Active; 'I' for Inactive)
REMARK       I    between atoms: C_2  and  N_4 
REMARK    1  A    between atoms: C_7  and  N_10 
REMARK       I    between atoms: N_10  and  C_11 
REMARK       I    between atoms: C_11  and  N_13 
REMARK    2  A    between atoms: N_13  and  C_14 
REMARK    3  A    between atoms: C_14  and  C_15 
REMARK    4  A    between atoms: C_15  and  C_16 
ROOT
HETATM    1  N   UNL     1     -42.709 -51.243  12.518  1.00  0.00    -0.338 N 
HETATM    2  C   UNL     1     -41.721 -50.510  11.910  1.00  0.00     0.316 C 
HETATM    3  O   UNL     1     -40.561 -50.878  11.792  1.00  0.00    -0.247 OA
HETATM    4  N   UNL     1     -42.201 -49.317  11.440  1.00  0.00    -0.343 N 
HETATM    5  H   UNL     1     -43.480 -50.701  12.879  1.00  0.00     0.164 HD
HETATM    6  H   UNL     1     -43.199 -49.236  11.318  1.00  0.00     0.164 HD
ENDROOT
BRANCH   1   7
HETATM    7  C   UNL     1     -42.412 -52.528  13.147  1.00  0.00     0.089 C 
HETATM    8  C   UNL     1     -43.365 -53.616  12.653  1.00  0.00     0.045 C 
HETATM    9  C   UNL     1     -44.768 -53.448  13.223  1.00  0.00     0.127 C 
HETATM   10  N   UNL     1     -44.741 -53.332  14.679  1.00  0.00    -0.352 N 
HETATM   11  C   UNL     1     -45.667 -54.056  15.419  1.00  0.00     0.215 C 
HETATM   12  C   UNL     1     -43.863 -52.290  15.216  1.00  0.00     0.127 C 
HETATM   13  C   UNL     1     -45.715 -53.817  16.904  1.00  0.00     0.117 C 
HETATM   14  O   UNL     1     -46.437 -54.870  14.904  1.00  0.00    -0.274 OA
HETATM   15  C   UNL     1     -42.442 -52.438  14.679  1.00  0.00     0.045 C 
ENDBRANCH   1   7
BRANCH   4  16
HETATM   16  C   UNL     1     -41.344 -48.446  10.658  1.00  0.00     0.129 C 
BRANCH  16  17
HETATM   17  C   UNL     1     -40.500 -47.497  11.512  1.00  0.00     0.061 C 
BRANCH  17  18
HETATM   18  C   UNL     1     -40.847 -46.061  11.326  1.00  0.00    -0.023 A 
HETATM   19  C   UNL     1     -39.967 -44.981  11.089  1.00  0.00     0.115 A 
HETATM   20  N   UNL     1     -40.606 -43.812  10.981  1.00  0.00    -0.310 N 
HETATM   21  N   UNL     1     -41.899 -44.141  11.139  1.00  0.00    -0.308 N 
ATOM     22  HN  UNL     1     -40.206 -42.887  10.818  1.00  0.00     0.186 HD
HETATM   23  C   UNL     1     -42.916 -43.120  11.098  1.00  0.00     0.177 C 
HETATM   24  C   UNL     1     -42.098 -45.475  11.344  1.00  0.00     0.118 A 
ENDBRANCH  17  18
ENDBRANCH  16  17
ENDBRANCH   4  16
TORSDOF 4
ENDMDL
