MODEL 1
REMARK VINA RESULT:      -5.9      0.000      0.000
REMARK  4 active torsions:
REMARK  status: ('A' for Active; 'I' for Inactive)
REMARK    1  A    between atoms: C_2  and  C_5 
REMARK    2  A    between atoms: N_11  and  C_12 
REMARK    3  A    between atoms: C_12  and  C_13 
REMARK       I    between atoms: C_13  and  N_15 
REMARK    4  A    between atoms: N_15  and  C_16 
ROOT
HETATM    1  C   UNL     1     -43.975 -54.332  13.995  1.00  0.00     0.065 C 
HETATM    2  C   UNL     1     -43.030 -54.874  14.954  1.00  0.00     0.047 C 
HETATM    3  C   UNL     1     -41.708 -54.711  14.796  1.00  0.00     0.102 C 
HETATM    4 CL   UNL     1     -40.587 -55.325  15.946  1.00  0.00    -0.078 Cl
HETATM    5  C   UNL     1     -41.178 -53.957  13.611  1.00  0.00     0.269 C 
HETATM    6  O   UNL     1     -39.975 -53.873  13.374  1.00  0.00    -0.266 OA
HETATM    7  N   UNL     1     -42.150 -53.346  12.813  1.00  0.00    -0.314 N 
HETATM    8  C   UNL     1     -43.508 -53.574  12.987  1.00  0.00     0.111 C 
ENDROOT
BRANCH   7   9
HETATM    9  C   UNL     1     -41.700 -52.478  11.727  1.00  0.00     0.234 C 
BRANCH   9  10
HETATM   10  C   UNL     1     -40.936 -51.256  12.228  1.00  0.00     0.236 C 
HETATM   11  O   UNL     1     -41.457 -50.437  12.982  1.00  0.00    -0.272 OA
HETATM   12  N   UNL     1     -39.647 -51.148  11.743  1.00  0.00    -0.355 N 
HETATM   13  H   UNL     1     -39.336 -51.799  11.025  1.00  0.00     0.162 HD
BRANCH  12  14
HETATM   14  C   UNL     1     -38.734 -50.163  12.231  1.00  0.00     0.084 A 
HETATM   15  C   UNL     1     -37.528 -49.755  11.434  1.00  0.00     0.027 A 
HETATM   16  C   UNL     1     -37.358 -50.552  12.694  1.00  0.00     0.027 A 
ENDBRANCH  12  14
ENDBRANCH   9  10
ENDBRANCH   7   9
BRANCH   1  17
HETATM   17  C   UNL     1     -45.443 -54.620  14.164  1.00  0.00     0.418 C 
HETATM   18  F   UNL     1     -45.843 -54.577  15.461  1.00  0.00    -0.166 F 
HETATM   19  F   UNL     1     -45.766 -55.853  13.697  1.00  0.00    -0.166 F 
HETATM   20  F   UNL     1     -46.210 -53.727  13.489  1.00  0.00    -0.166 F 
ENDBRANCH   1  17
TORSDOF 4
ENDMDL
MODEL 2
REMARK VINA RESULT:      -5.9      1.663      2.378
REMARK  4 active torsions:
REMARK  status: ('A' for Active; 'I' for Inactive)
REMARK    1  A    between atoms: C_2  and  C_5 
REMARK    2  A    between atoms: N_11  and  C_12 
REMARK    3  A    between atoms: C_12  and  C_13 
REMARK       I    between atoms: C_13  and  N_15 
REMARK    4  A    between atoms: N_15  and  C_16 
ROOT
HETATM    1  C   UNL     1     -43.653 -54.224  13.861  1.00  0.00     0.065 C 
HETATM    2  C   UNL     1     -42.797 -54.830  14.865  1.00  0.00     0.047 C 
HETATM    3  C   UNL     1     -41.463 -54.705  14.809  1.00  0.00     0.102 C 
HETATM    4 CL   UNL     1     -40.449 -55.397  16.013  1.00  0.00    -0.078 Cl
HETATM    5  C   UNL     1     -40.825 -53.929  13.694  1.00  0.00     0.269 C 
HETATM    6  O   UNL     1     -39.606 -53.876  13.548  1.00  0.00    -0.266 OA
HETATM    7  N   UNL     1     -41.716 -53.258  12.852  1.00  0.00    -0.314 N 
HETATM    8  C   UNL     1     -43.090 -53.446  12.919  1.00  0.00     0.111 C 
ENDROOT
BRANCH   7   9
HETATM    9  C   UNL     1     -41.162 -52.367  11.835  1.00  0.00     0.234 C 
BRANCH   9  10
HETATM   10  C   UNL     1     -41.185 -50.903  12.258  1.00  0.00     0.236 C 
HETATM   11  O   UNL     1     -40.530 -50.499  13.217  1.00  0.00    -0.272 OA
HETATM   12  N   UNL     1     -42.014 -50.100  11.497  1.00  0.00    -0.355 N 
HETATM   13  H   UNL     1     -42.617 -50.535  10.803  1.00  0.00     0.162 HD
BRANCH  12  14
HETATM   14  C   UNL     1     -42.034 -48.679  11.645  1.00  0.00     0.084 A 
HETATM   15  C   UNL     1     -43.270 -47.881  11.339  1.00  0.00     0.027 A 
HETATM   16  C   UNL     1     -42.073 -47.781  10.439  1.00  0.00     0.027 A 
ENDBRANCH  12  14
ENDBRANCH   9  10
ENDBRANCH   7   9
BRANCH   1  17
HETATM   17  C   UNL     1     -45.137 -54.469  13.913  1.00  0.00     0.418 C 
HETATM   18  F   UNL     1     -45.470 -55.756  13.641  1.00  0.00    -0.166 F 
HETATM   19  F   UNL     1     -45.802 -53.697  13.016  1.00  0.00    -0.166 F 
HETATM   20  F   UNL     1     -45.649 -54.184  15.137  1.00  0.00    -0.166 F 
ENDBRANCH   1  17
TORSDOF 4
ENDMDL
MODEL 3
REMARK VINA RESULT:      -5.8      3.826      5.000
REMARK  4 active torsions:
REMARK  status: ('A' for Active; 'I' for Inactive)
REMARK    1  A    between atoms: C_2  and  C_5 
REMARK    2  A    between atoms: N_11  and  C_12 
REMARK    3  A    between atoms: C_12  and  C_13 
REMARK       I    between atoms: C_13  and  N_15 
REMARK    4  A    between atoms: N_15  and  C_16 
ROOT
HETATM    1  C   UNL     1     -46.425 -51.983  15.507  1.00  0.00     0.065 C 
HETATM    2  C   UNL     1     -46.880 -51.514  14.210  1.00  0.00     0.047 C 
HETATM    3  C   UNL     1     -46.426 -52.062  13.074  1.00  0.00     0.102 C 
HETATM    4 CL   UNL     1     -46.985 -51.529  11.537  1.00  0.00    -0.078 Cl
HETATM    5  C   UNL     1     -45.427 -53.182  13.123  1.00  0.00     0.269 C 
HETATM    6  O   UNL     1     -44.910 -53.642  12.108  1.00  0.00    -0.266 OA
HETATM    7  N   UNL     1     -45.149 -53.672  14.402  1.00  0.00    -0.314 N 
HETATM    8  C   UNL     1     -45.608 -53.051  15.555  1.00  0.00     0.111 C 
ENDROOT
BRANCH   7   9
HETATM    9  C   UNL     1     -44.298 -54.855  14.514  1.00  0.00     0.234 C 
BRANCH   9  10
HETATM   10  C   UNL     1     -42.953 -54.553  15.167  1.00  0.00     0.236 C 
HETATM   11  O   UNL     1     -42.769 -54.725  16.371  1.00  0.00    -0.272 OA
HETATM   12  N   UNL     1     -41.996 -54.055  14.304  1.00  0.00    -0.355 N 
HETATM   13  H   UNL     1     -42.267 -53.823  13.351  1.00  0.00     0.162 HD
BRANCH  12  14
HETATM   14  C   UNL     1     -40.637 -53.872  14.704  1.00  0.00     0.084 A 
HETATM   15  C   UNL     1     -39.715 -52.965  13.941  1.00  0.00     0.027 A 
HETATM   16  C   UNL     1     -39.512 -54.451  13.893  1.00  0.00     0.027 A 
ENDBRANCH  12  14
ENDBRANCH   9  10
ENDBRANCH   7   9
BRANCH   1  17
HETATM   17  C   UNL     1     -46.892 -51.276  16.751  1.00  0.00     0.418 C 
HETATM   18  F   UNL     1     -46.867 -52.072  17.851  1.00  0.00    -0.166 F 
HETATM   19  F   UNL     1     -48.167 -50.830  16.622  1.00  0.00    -0.166 F 
HETATM   20  F   UNL     1     -46.120 -50.196  17.032  1.00  0.00    -0.166 F 
ENDBRANCH   1  17
TORSDOF 4
ENDMDL
MODEL 4
REMARK VINA RESULT:      -5.7      5.441      7.631
REMARK  4 active torsions:
REMARK  status: ('A' for Active; 'I' for Inactive)
REMARK    1  A    between atoms: C_2  and  C_5 
REMARK    2  A    between atoms: N_11  and  C_12 
REMARK    3  A    between atoms: C_12  and  C_13 
REMARK       I    between atoms: C_13  and  N_15 
REMARK    4  A    between atoms: N_15  and  C_16 
ROOT
HETATM    1  C   UNL     1     -42.756 -46.889   9.827  1.00  0.00     0.065 C 
HETATM    2  C   UNL     1     -41.930 -45.746  10.174  1.00  0.00     0.047 C 
HETATM    3  C   UNL     1     -40.813 -45.891  10.900  1.00  0.00     0.102 C 
HETATM    4 CL   UNL     1     -39.817 -44.543  11.288  1.00  0.00    -0.078 Cl
HETATM    5  C   UNL     1     -40.392 -47.252  11.373  1.00  0.00     0.269 C 
HETATM    6  O   UNL     1     -39.434 -47.416  12.125  1.00  0.00    -0.266 OA
HETATM    7  N   UNL     1     -41.156 -48.314  10.879  1.00  0.00    -0.314 N 
HETATM    8  C   UNL     1     -42.329 -48.118  10.164  1.00  0.00     0.111 C 
ENDROOT
BRANCH   7   9
HETATM    9  C   UNL     1     -40.716 -49.674  11.181  1.00  0.00     0.234 C 
BRANCH   9  10
HETATM   10  C   UNL     1     -41.526 -50.320  12.301  1.00  0.00     0.236 C 
HETATM   11  O   UNL     1     -41.645 -49.783  13.400  1.00  0.00    -0.272 OA
HETATM   12  N   UNL     1     -42.074 -51.546  11.977  1.00  0.00    -0.355 N 
HETATM   13  H   UNL     1     -41.823 -51.978  11.091  1.00  0.00     0.162 HD
BRANCH  12  14
HETATM   14  C   UNL     1     -42.994 -52.216  12.841  1.00  0.00     0.084 A 
HETATM   15  C   UNL     1     -42.872 -53.686  13.121  1.00  0.00     0.027 A 
HETATM   16  C   UNL     1     -44.010 -53.176  12.287  1.00  0.00     0.027 A 
ENDBRANCH  12  14
ENDBRANCH   9  10
ENDBRANCH   7   9
BRANCH   1  17
HETATM   17  C   UNL     1     -44.050 -46.666   9.090  1.00  0.00     0.418 C 
HETATM   18  F   UNL     1     -44.295 -45.354   8.839  1.00  0.00    -0.166 F 
HETATM   19  F   UNL     1     -45.111 -47.133   9.794  1.00  0.00    -0.166 F 
HETATM   20  F   UNL     1     -44.059 -47.301   7.891  1.00  0.00    -0.166 F 
ENDBRANCH   1  17
TORSDOF 4
ENDMDL
MODEL 5
REMARK VINA RESULT:      -5.4      2.709      3.324
REMARK  4 active torsions:
REMARK  status: ('A' for Active; 'I' for Inactive)
REMARK    1  A    between atoms: C_2  and  C_5 
REMARK    2  A    between atoms: N_11  and  C_12 
REMARK    3  A    between atoms: C_12  and  C_13 
REMARK       I    between atoms: C_13  and  N_15 
REMARK    4  A    between atoms: N_15  and  C_16 
ROOT
HETATM    1  C   UNL     1     -41.942 -54.516  15.044  1.00  0.00     0.065 C 
HETATM    2  C   UNL     1     -43.297 -55.035  15.003  1.00  0.00     0.047 C 
HETATM    3  C   UNL     1     -44.144 -54.690  14.022  1.00  0.00     0.102 C 
HETATM    4 CL   UNL     1     -45.741 -55.326  13.954  1.00  0.00    -0.078 Cl
HETATM    5  C   UNL     1     -43.701 -53.751  12.938  1.00  0.00     0.269 C 
HETATM    6  O   UNL     1     -44.474 -53.330  12.081  1.00  0.00    -0.266 OA
HETATM    7  N   UNL     1     -42.345 -53.410  12.967  1.00  0.00    -0.314 N 
HETATM    8  C   UNL     1     -41.512 -53.754  14.022  1.00  0.00     0.111 C 
ENDROOT
BRANCH   7   9
HETATM    9  C   UNL     1     -41.813 -52.617  11.861  1.00  0.00     0.234 C 
BRANCH   9  10
HETATM   10  C   UNL     1     -41.074 -51.369  12.334  1.00  0.00     0.236 C 
HETATM   11  O   UNL     1     -41.605 -50.551  13.081  1.00  0.00    -0.272 OA
HETATM   12  N   UNL     1     -39.793 -51.238  11.831  1.00  0.00    -0.355 N 
HETATM   13  H   UNL     1     -39.476 -51.892  11.120  1.00  0.00     0.162 HD
BRANCH  12  14
HETATM   14  C   UNL     1     -38.899 -50.224  12.293  1.00  0.00     0.084 A 
HETATM   15  C   UNL     1     -37.582 -49.978  11.614  1.00  0.00     0.027 A 
HETATM   16  C   UNL     1     -37.615 -50.587  12.986  1.00  0.00     0.027 A 
ENDBRANCH  12  14
ENDBRANCH   9  10
ENDBRANCH   7   9
BRANCH   1  17
HETATM   17  C   UNL     1     -41.058 -54.857  16.214  1.00  0.00     0.418 C 
HETATM   18  F   UNL     1     -41.755 -55.052  17.363  1.00  0.00    -0.166 F 
HETATM   19  F   UNL     1     -40.162 -53.869  16.466  1.00  0.00    -0.166 F 
HETATM   20  F   UNL     1     -40.346 -55.990  15.991  1.00  0.00    -0.166 F 
ENDBRANCH   1  17
TORSDOF 4
ENDMDL
MODEL 6
REMARK VINA RESULT:      -5.4      2.883      3.715
REMARK  4 active torsions:
REMARK  status: ('A' for Active; 'I' for Inactive)
REMARK    1  A    between atoms: C_2  and  C_5 
REMARK    2  A    between atoms: N_11  and  C_12 
REMARK    3  A    between atoms: C_12  and  C_13 
REMARK       I    between atoms: C_13  and  N_15 
REMARK    4  A    between atoms: N_15  and  C_16 
ROOT
HETATM    1  C   UNL     1     -42.512 -52.465  13.048  1.00  0.00     0.065 C 
HETATM    2  C   UNL     1     -41.569 -53.071  13.972  1.00  0.00     0.047 C 
HETATM    3  C   UNL     1     -40.265 -52.762  13.935  1.00  0.00     0.102 C 
HETATM    4 CL   UNL     1     -39.150 -53.454  15.046  1.00  0.00    -0.078 Cl
HETATM    5  C   UNL     1     -39.751 -51.774  12.927  1.00  0.00     0.269 C 
HETATM    6  O   UNL     1     -38.553 -51.541  12.792  1.00  0.00    -0.266 OA
HETATM    7  N   UNL     1     -40.737 -51.131  12.173  1.00  0.00    -0.314 N 
HETATM    8  C   UNL     1     -42.072 -51.509  12.212  1.00  0.00     0.111 C 
ENDROOT
BRANCH   7   9
HETATM    9  C   UNL     1     -40.321 -50.055  11.276  1.00  0.00     0.234 C 
BRANCH   9  10
HETATM   10  C   UNL     1     -41.268 -48.860  11.309  1.00  0.00     0.236 C 
HETATM   11  O   UNL     1     -41.412 -48.181  12.324  1.00  0.00    -0.272 OA
HETATM   12  N   UNL     1     -41.952 -48.638  10.129  1.00  0.00    -0.355 N 
HETATM   13  H   UNL     1     -41.871 -49.320   9.379  1.00  0.00     0.162 HD
BRANCH  12  14
HETATM   14  C   UNL     1     -42.753 -47.473   9.927  1.00  0.00     0.084 A 
HETATM   15  C   UNL     1     -44.248 -47.520  10.068  1.00  0.00     0.027 A 
HETATM   16  C   UNL     1     -43.630 -47.344   8.712  1.00  0.00     0.027 A 
ENDBRANCH  12  14
ENDBRANCH   9  10
ENDBRANCH   7   9
BRANCH   1  17
HETATM   17  C   UNL     1     -43.950 -52.912  13.066  1.00  0.00     0.418 C 
HETATM   18  F   UNL     1     -44.303 -53.508  14.233  1.00  0.00    -0.166 F 
HETATM   19  F   UNL     1     -44.205 -53.807  12.078  1.00  0.00    -0.166 F 
HETATM   20  F   UNL     1     -44.800 -51.870  12.885  1.00  0.00    -0.166 F 
ENDBRANCH   1  17
TORSDOF 4
ENDMDL
MODEL 7
REMARK VINA RESULT:      -5.2      3.571      4.662
REMARK  4 active torsions:
REMARK  status: ('A' for Active; 'I' for Inactive)
REMARK    1  A    between atoms: C_2  and  C_5 
REMARK    2  A    between atoms: N_11  and  C_12 
REMARK    3  A    between atoms: C_12  and  C_13 
REMARK       I    between atoms: C_13  and  N_15 
REMARK    4  A    between atoms: N_15  and  C_16 
ROOT
HETATM    1  C   UNL     1     -40.645 -52.634  13.236  1.00  0.00     0.065 C 
HETATM    2  C   UNL     1     -39.703 -52.326  14.298  1.00  0.00     0.047 C 
HETATM    3  C   UNL     1     -38.924 -51.236  14.242  1.00  0.00     0.102 C 
HETATM    4 CL   UNL     1     -37.829 -50.853  15.511  1.00  0.00    -0.078 Cl
HETATM    5  C   UNL     1     -39.012 -50.305  13.067  1.00  0.00     0.269 C 
HETATM    6  O   UNL     1     -38.246 -49.354  12.927  1.00  0.00    -0.266 OA
HETATM    7  N   UNL     1     -40.038 -50.590  12.161  1.00  0.00    -0.314 N 
HETATM    8  C   UNL     1     -40.796 -51.751  12.233  1.00  0.00     0.111 C 
ENDROOT
BRANCH   7   9
HETATM    9  C   UNL     1     -40.274 -49.644  11.072  1.00  0.00     0.234 C 
BRANCH   9  10
HETATM   10  C   UNL     1     -41.492 -48.759  11.315  1.00  0.00     0.236 C 
HETATM   11  O   UNL     1     -41.763 -48.330  12.435  1.00  0.00    -0.272 OA
HETATM   12  N   UNL     1     -42.257 -48.517  10.190  1.00  0.00    -0.355 N 
HETATM   13  H   UNL     1     -42.035 -49.012   9.329  1.00  0.00     0.162 HD
BRANCH  12  14
HETATM   14  C   UNL     1     -43.336 -47.580  10.196  1.00  0.00     0.084 A 
HETATM   15  C   UNL     1     -44.221 -47.403   8.995  1.00  0.00     0.027 A 
HETATM   16  C   UNL     1     -43.261 -46.316   9.384  1.00  0.00     0.027 A 
ENDBRANCH  12  14
ENDBRANCH   9  10
ENDBRANCH   7   9
BRANCH   1  17
HETATM   17  C   UNL     1     -41.431 -53.916  13.298  1.00  0.00     0.418 C 
HETATM   18  F   UNL     1     -41.436 -54.473  14.536  1.00  0.00    -0.166 F 
HETATM   19  F   UNL     1     -40.927 -54.850  12.453  1.00  0.00    -0.166 F 
HETATM   20  F   UNL     1     -42.728 -53.725  12.951  1.00  0.00    -0.166 F 
ENDBRANCH   1  17
TORSDOF 4
ENDMDL
MODEL 8
REMARK VINA RESULT:      -5.2     16.513     17.711
REMARK  4 active torsions:
REMARK  status: ('A' for Active; 'I' for Inactive)
REMARK    1  A    between atoms: C_2  and  C_5 
REMARK    2  A    between atoms: N_11  and  C_12 
REMARK    3  A    between atoms: C_12  and  C_13 
REMARK       I    between atoms: C_13  and  N_15 
REMARK    4  A    between atoms: N_15  and  C_16 
ROOT
HETATM    1  C   UNL     1     -51.979 -52.293  -0.748  1.00  0.00     0.065 C 
HETATM    2  C   UNL     1     -51.796 -50.877  -0.482  1.00  0.00     0.047 C 
HETATM    3  C   UNL     1     -50.571 -50.342  -0.374  1.00  0.00     0.102 C 
HETATM    4 CL   UNL     1     -50.351 -48.661  -0.088  1.00  0.00    -0.078 Cl
HETATM    5  C   UNL     1     -49.354 -51.208  -0.529  1.00  0.00     0.269 C 
HETATM    6  O   UNL     1     -48.218 -50.780  -0.337  1.00  0.00    -0.266 OA
HETATM    7  N   UNL     1     -49.609 -52.524  -0.925  1.00  0.00    -0.314 N 
HETATM    8  C   UNL     1     -50.892 -53.049  -0.985  1.00  0.00     0.111 C 
ENDROOT
BRANCH   7   9
HETATM    9  C   UNL     1     -48.466 -53.381  -1.234  1.00  0.00     0.234 C 
BRANCH   9  10
HETATM   10  C   UNL     1     -48.594 -54.066  -2.591  1.00  0.00     0.236 C 
HETATM   11  O   UNL     1     -48.625 -53.421  -3.637  1.00  0.00    -0.272 OA
HETATM   12  N   UNL     1     -48.698 -55.443  -2.530  1.00  0.00    -0.355 N 
HETATM   13  H   UNL     1     -48.792 -55.888  -1.620  1.00  0.00     0.162 HD
BRANCH  12  14
HETATM   14  C   UNL     1     -48.660 -56.258  -3.703  1.00  0.00     0.084 A 
HETATM   15  C   UNL     1     -49.807 -57.157  -4.064  1.00  0.00     0.027 A 
HETATM   16  C   UNL     1     -48.510 -57.750  -3.598  1.00  0.00     0.027 A 
ENDBRANCH  12  14
ENDBRANCH   9  10
ENDBRANCH   7   9
BRANCH   1  17
HETATM   17  C   UNL     1     -53.371 -52.865  -0.768  1.00  0.00     0.418 C 
HETATM   18  F   UNL     1     -53.428 -54.132  -0.285  1.00  0.00    -0.166 F 
HETATM   19  F   UNL     1     -53.876 -52.905  -2.027  1.00  0.00    -0.166 F 
HETATM   20  F   UNL     1     -54.227 -52.123  -0.021  1.00  0.00    -0.166 F 
ENDBRANCH   1  17
TORSDOF 4
ENDMDL
MODEL 9
REMARK VINA RESULT:      -5.1     16.476     17.404
REMARK  4 active torsions:
REMARK  status: ('A' for Active; 'I' for Inactive)
REMARK    1  A    between atoms: C_2  and  C_5 
REMARK    2  A    between atoms: N_11  and  C_12 
REMARK    3  A    between atoms: C_12  and  C_13 
REMARK       I    between atoms: C_13  and  N_15 
REMARK    4  A    between atoms: N_15  and  C_16 
ROOT
HETATM    1  C   UNL     1     -51.755 -52.754  -0.883  1.00  0.00     0.065 C 
HETATM    2  C   UNL     1     -51.441 -51.420  -0.401  1.00  0.00     0.047 C 
HETATM    3  C   UNL     1     -50.176 -50.978  -0.356  1.00  0.00     0.102 C 
HETATM    4 CL   UNL     1     -49.803 -49.388   0.186  1.00  0.00    -0.078 Cl
HETATM    5  C   UNL     1     -49.050 -51.863  -0.806  1.00  0.00     0.269 C 
HETATM    6  O   UNL     1     -47.872 -51.535  -0.685  1.00  0.00    -0.266 OA
HETATM    7  N   UNL     1     -49.443 -53.072  -1.388  1.00  0.00    -0.314 N 
HETATM    8  C   UNL     1     -50.760 -53.510  -1.379  1.00  0.00     0.111 C 
ENDROOT
BRANCH   7   9
HETATM    9  C   UNL     1     -48.408 -53.917  -1.979  1.00  0.00     0.234 C 
BRANCH   9  10
HETATM   10  C   UNL     1     -48.024 -53.480  -3.388  1.00  0.00     0.236 C 
HETATM   11  O   UNL     1     -48.773 -53.664  -4.346  1.00  0.00    -0.272 OA
HETATM   12  N   UNL     1     -46.775 -52.896  -3.487  1.00  0.00    -0.355 N 
HETATM   13  H   UNL     1     -46.168 -52.896  -2.671  1.00  0.00     0.162 HD
BRANCH  12  14
HETATM   14  C   UNL     1     -46.320 -52.280  -4.693  1.00  0.00     0.084 A 
HETATM   15  C   UNL     1     -45.381 -52.992  -5.625  1.00  0.00     0.027 A 
HETATM   16  C   UNL     1     -44.897 -51.815  -4.830  1.00  0.00     0.027 A 
ENDBRANCH  12  14
ENDBRANCH   9  10
ENDBRANCH   7   9
BRANCH   1  17
HETATM   17  C   UNL     1     -53.179 -53.240  -0.828  1.00  0.00     0.418 C 
HETATM   18  F   UNL     1     -53.304 -54.436  -0.198  1.00  0.00    -0.166 F 
HETATM   19  F   UNL     1     -53.699 -53.399  -2.071  1.00  0.00    -0.166 F 
HETATM   20  F   UNL     1     -53.981 -52.366  -0.171  1.00  0.00    -0.166 F 
ENDBRANCH   1  17
TORSDOF 4
ENDMDL
