MODEL 1
REMARK VINA RESULT:      -4.6      0.000      0.000
REMARK  2 active torsions:
REMARK  status: ('A' for Active; 'I' for Inactive)
REMARK    1  A    between atoms: N_10  and  C_11 
REMARK    2  A    between atoms: C_11  and  C_12 
ROOT
HETATM    1  C   UNL     3     -43.625 -47.397   8.234  1.00  0.00     0.070 C 
HETATM    2  C   UNL     3     -42.939 -47.576   9.541  1.00  0.00     0.024 A 
HETATM    3  C   UNL     3     -43.142 -46.853  10.701  1.00  0.00     0.052 A 
HETATM    4  C   UNL     3     -42.223 -47.369  11.594  1.00  0.00     0.026 A 
HETATM    5  C   UNL     3     -42.015 -46.903  13.003  1.00  0.00     0.070 C 
HETATM    6  N   UNL     3     -41.522 -48.341  10.969  1.00  0.00    -0.295 N 
HETATM    7  N   UNL     3     -41.969 -48.478   9.729  1.00  0.00    -0.303 N 
ATOM      8  HN  UNL     3     -41.635 -49.153   9.040  1.00  0.00     0.186 HD
ENDROOT
BRANCH   6   9
HETATM    9  C   UNL     3     -40.395 -49.119  11.479  1.00  0.00     0.184 C 
BRANCH   9  10
HETATM   10  C   UNL     3     -40.903 -50.426  12.119  1.00  0.00     0.240 C 
HETATM   11  C   UNL     3     -40.054 -50.910  13.299  1.00  0.00     0.039 C 
HETATM   12  C   UNL     3     -40.229 -52.432  13.276  1.00  0.00     0.032 C 
HETATM   13  C   UNL     3     -41.157 -52.678  12.095  1.00  0.00     0.270 C 
HETATM   14  N   UNL     3     -40.906 -51.560  11.190  1.00  0.00     0.089 N 
HETATM   15  H   UNL     3     -41.672 -51.474  10.483  1.00  0.00     0.316 HD
ENDBRANCH   9  10
ENDBRANCH   6   9
TORSDOF 2
ENDMDL
MODEL 2
REMARK VINA RESULT:      -4.6      1.988      2.172
REMARK  2 active torsions:
REMARK  status: ('A' for Active; 'I' for Inactive)
REMARK    1  A    between atoms: N_10  and  C_11 
REMARK    2  A    between atoms: C_11  and  C_12 
ROOT
HETATM    1  C   UNL     3     -43.642 -47.802   8.046  1.00  0.00     0.070 C 
HETATM    2  C   UNL     3     -43.065 -47.609   9.402  1.00  0.00     0.024 A 
HETATM    3  C   UNL     3     -43.751 -47.417  10.586  1.00  0.00     0.052 A 
HETATM    4  C   UNL     3     -42.761 -47.231  11.532  1.00  0.00     0.026 A 
HETATM    5  C   UNL     3     -42.983 -46.953  12.988  1.00  0.00     0.070 C 
HETATM    6  N   UNL     3     -41.561 -47.310  10.913  1.00  0.00    -0.295 N 
HETATM    7  N   UNL     3     -41.747 -47.557   9.624  1.00  0.00    -0.303 N 
ATOM      8  HN  UNL     3     -41.015 -47.686   8.926  1.00  0.00     0.186 HD
ENDROOT
BRANCH   6   9
HETATM    9  C   UNL     3     -40.232 -47.103  11.481  1.00  0.00     0.184 C 
BRANCH   9  10
HETATM   10  C   UNL     3     -39.685 -48.432  12.040  1.00  0.00     0.240 C 
HETATM   11  C   UNL     3     -38.764 -48.265  13.253  1.00  0.00     0.039 C 
HETATM   12  C   UNL     3     -37.816 -49.464  13.162  1.00  0.00     0.032 C 
HETATM   13  C   UNL     3     -38.279 -50.206  11.916  1.00  0.00     0.270 C 
HETATM   14  N   UNL     3     -38.870 -49.173  11.071  1.00  0.00     0.089 N 
HETATM   15  H   UNL     3     -39.461 -49.599  10.320  1.00  0.00     0.316 HD
ENDBRANCH   9  10
ENDBRANCH   6   9
TORSDOF 2
ENDMDL
MODEL 3
REMARK VINA RESULT:      -4.6      5.462      5.934
REMARK  2 active torsions:
REMARK  status: ('A' for Active; 'I' for Inactive)
REMARK    1  A    between atoms: N_10  and  C_11 
REMARK    2  A    between atoms: C_11  and  C_12 
ROOT
HETATM    1  C   UNL     3     -47.184 -51.589  11.373  1.00  0.00     0.070 C 
HETATM    2  C   UNL     3     -46.610 -52.058  12.661  1.00  0.00     0.024 A 
HETATM    3  C   UNL     3     -46.610 -51.392  13.872  1.00  0.00     0.052 A 
HETATM    4  C   UNL     3     -45.907 -52.222  14.723  1.00  0.00     0.026 A 
HETATM    5  C   UNL     3     -45.596 -51.941  16.162  1.00  0.00     0.070 C 
HETATM    6  N   UNL     3     -45.518 -53.314  14.027  1.00  0.00    -0.295 N 
HETATM    7  N   UNL     3     -45.961 -53.222  12.781  1.00  0.00    -0.303 N 
ATOM      8  HN  UNL     3     -45.831 -53.915  12.044  1.00  0.00     0.186 HD
ENDROOT
BRANCH   6   9
HETATM    9  C   UNL     3     -44.688 -54.430  14.476  1.00  0.00     0.184 C 
BRANCH   9  10
HETATM   10  C   UNL     3     -43.207 -54.002  14.516  1.00  0.00     0.240 C 
HETATM   11  C   UNL     3     -42.570 -53.837  13.133  1.00  0.00     0.039 C 
HETATM   12  C   UNL     3     -41.092 -54.158  13.370  1.00  0.00     0.032 C 
HETATM   13  C   UNL     3     -41.017 -54.471  14.857  1.00  0.00     0.270 C 
HETATM   14  N   UNL     3     -42.345 -54.974  15.195  1.00  0.00     0.089 N 
HETATM   15  H   UNL     3     -42.496 -54.962  16.230  1.00  0.00     0.316 HD
ENDBRANCH   9  10
ENDBRANCH   6   9
TORSDOF 2
ENDMDL
MODEL 4
REMARK VINA RESULT:      -4.6      2.071      3.858
REMARK  2 active torsions:
REMARK  status: ('A' for Active; 'I' for Inactive)
REMARK    1  A    between atoms: N_10  and  C_11 
REMARK    2  A    between atoms: C_11  and  C_12 
ROOT
HETATM    1  C   UNL     3     -41.365 -48.160  10.634  1.00  0.00     0.070 C 
HETATM    2  C   UNL     3     -40.843 -49.335  11.379  1.00  0.00     0.024 A 
HETATM    3  C   UNL     3     -39.683 -49.406  12.128  1.00  0.00     0.052 A 
HETATM    4  C   UNL     3     -39.627 -50.719  12.554  1.00  0.00     0.026 A 
HETATM    5  C   UNL     3     -38.537 -51.324  13.384  1.00  0.00     0.070 C 
HETATM    6  N   UNL     3     -40.707 -51.371  12.067  1.00  0.00    -0.295 N 
HETATM    7  N   UNL     3     -41.453 -50.525  11.369  1.00  0.00    -0.303 N 
ATOM      8  HN  UNL     3     -42.336 -50.744  10.907  1.00  0.00     0.186 HD
ENDROOT
BRANCH   6   9
HETATM    9  C   UNL     3     -41.042 -52.788  12.184  1.00  0.00     0.184 C 
BRANCH   9  10
HETATM   10  C   UNL     3     -42.410 -52.951  12.876  1.00  0.00     0.240 C 
HETATM   11  C   UNL     3     -42.472 -54.121  13.862  1.00  0.00     0.039 C 
HETATM   12  C   UNL     3     -43.943 -54.547  13.834  1.00  0.00     0.032 C 
HETATM   13  C   UNL     3     -44.585 -53.587  12.844  1.00  0.00     0.270 C 
HETATM   14  N   UNL     3     -43.504 -53.216  11.936  1.00  0.00     0.089 N 
HETATM   15  H   UNL     3     -43.754 -52.360  11.388  1.00  0.00     0.316 HD
ENDBRANCH   9  10
ENDBRANCH   6   9
TORSDOF 2
ENDMDL
MODEL 5
REMARK VINA RESULT:      -4.5      3.287      5.090
REMARK  2 active torsions:
REMARK  status: ('A' for Active; 'I' for Inactive)
REMARK    1  A    between atoms: N_10  and  C_11 
REMARK    2  A    between atoms: C_11  and  C_12 
ROOT
HETATM    1  C   UNL     3     -42.850 -43.214  13.799  1.00  0.00     0.070 C 
HETATM    2  C   UNL     3     -42.241 -44.245  12.917  1.00  0.00     0.024 A 
HETATM    3  C   UNL     3     -41.057 -44.150  12.210  1.00  0.00     0.052 A 
HETATM    4  C   UNL     3     -40.978 -45.339  11.509  1.00  0.00     0.026 A 
HETATM    5  C   UNL     3     -39.885 -45.724  10.560  1.00  0.00     0.070 C 
HETATM    6  N   UNL     3     -42.072 -46.078  11.801  1.00  0.00    -0.295 N 
HETATM    7  N   UNL     3     -42.828 -45.420  12.669  1.00  0.00    -0.303 N 
ATOM      8  HN  UNL     3     -43.703 -45.753  13.077  1.00  0.00     0.186 HD
ENDROOT
BRANCH   6   9
HETATM    9  C   UNL     3     -42.469 -47.370  11.247  1.00  0.00     0.184 C 
BRANCH   9  10
HETATM   10  C   UNL     3     -43.123 -47.172   9.865  1.00  0.00     0.240 C 
HETATM   11  C   UNL     3     -44.649 -47.306   9.875  1.00  0.00     0.039 C 
HETATM   12  C   UNL     3     -44.982 -47.811   8.468  1.00  0.00     0.032 C 
HETATM   13  C   UNL     3     -43.626 -47.917   7.784  1.00  0.00     0.270 C 
HETATM   14  N   UNL     3     -42.683 -48.157   8.872  1.00  0.00     0.089 N 
HETATM   15  H   UNL     3     -41.701 -47.976   8.561  1.00  0.00     0.316 HD
ENDBRANCH   9  10
ENDBRANCH   6   9
TORSDOF 2
ENDMDL
MODEL 6
REMARK VINA RESULT:      -4.4      4.544      5.884
REMARK  2 active torsions:
REMARK  status: ('A' for Active; 'I' for Inactive)
REMARK    1  A    between atoms: N_10  and  C_11 
REMARK    2  A    between atoms: C_11  and  C_12 
ROOT
HETATM    1  C   UNL     3     -46.168 -51.673  16.824  1.00  0.00     0.070 C 
HETATM    2  C   UNL     3     -46.013 -51.851  15.356  1.00  0.00     0.024 A 
HETATM    3  C   UNL     3     -46.869 -51.416  14.363  1.00  0.00     0.052 A 
HETATM    4  C   UNL     3     -46.306 -51.884  13.192  1.00  0.00     0.026 A 
HETATM    5  C   UNL     3     -46.869 -51.703  11.815  1.00  0.00     0.070 C 
HETATM    6  N   UNL     3     -45.178 -52.562  13.504  1.00  0.00    -0.295 N 
HETATM    7  N   UNL     3     -44.992 -52.525  14.816  1.00  0.00    -0.303 N 
ATOM      8  HN  UNL     3     -44.209 -52.937  15.323  1.00  0.00     0.186 HD
ENDROOT
BRANCH   6   9
HETATM    9  C   UNL     3     -44.286 -53.300  12.613  1.00  0.00     0.184 C 
BRANCH   9  10
HETATM   10  C   UNL     3     -42.818 -53.059  13.018  1.00  0.00     0.240 C 
HETATM   11  C   UNL     3     -42.159 -51.879  12.295  1.00  0.00     0.039 C 
HETATM   12  C   UNL     3     -40.678 -52.263  12.244  1.00  0.00     0.032 C 
HETATM   13  C   UNL     3     -40.622 -53.615  12.939  1.00  0.00     0.270 C 
HETATM   14  N   UNL     3     -41.943 -54.196  12.719  1.00  0.00     0.089 N 
HETATM   15  H   UNL     3     -42.113 -54.994  13.375  1.00  0.00     0.316 HD
ENDBRANCH   9  10
ENDBRANCH   6   9
TORSDOF 2
ENDMDL
MODEL 7
REMARK VINA RESULT:      -4.4      4.317      4.757
REMARK  2 active torsions:
REMARK  status: ('A' for Active; 'I' for Inactive)
REMARK    1  A    between atoms: N_10  and  C_11 
REMARK    2  A    between atoms: C_11  and  C_12 
ROOT
HETATM    1  C   UNL     3     -47.282 -51.689  11.454  1.00  0.00     0.070 C 
HETATM    2  C   UNL     3     -46.358 -51.582  12.614  1.00  0.00     0.024 A 
HETATM    3  C   UNL     3     -46.698 -51.418  13.944  1.00  0.00     0.052 A 
HETATM    4  C   UNL     3     -45.485 -51.317  14.599  1.00  0.00     0.026 A 
HETATM    5  C   UNL     3     -45.301 -51.098  16.070  1.00  0.00     0.070 C 
HETATM    6  N   UNL     3     -44.497 -51.415  13.682  1.00  0.00    -0.295 N 
HETATM    7  N   UNL     3     -45.028 -51.594  12.481  1.00  0.00    -0.303 N 
ATOM      8  HN  UNL     3     -44.513 -51.720  11.609  1.00  0.00     0.186 HD
ENDROOT
BRANCH   6   9
HETATM    9  C   UNL     3     -43.055 -51.289  13.884  1.00  0.00     0.184 C 
BRANCH   9  10
HETATM   10  C   UNL     3     -42.396 -52.682  13.857  1.00  0.00     0.240 C 
HETATM   11  C   UNL     3     -41.154 -52.799  14.747  1.00  0.00     0.039 C 
HETATM   12  C   UNL     3     -40.301 -53.861  14.048  1.00  0.00     0.032 C 
HETATM   13  C   UNL     3     -41.126 -54.255  12.832  1.00  0.00     0.270 C 
HETATM   14  N   UNL     3     -41.919 -53.069  12.525  1.00  0.00     0.089 N 
HETATM   15  H   UNL     3     -42.715 -53.306  11.888  1.00  0.00     0.316 HD
ENDBRANCH   9  10
ENDBRANCH   6   9
TORSDOF 2
ENDMDL
MODEL 8
REMARK VINA RESULT:      -4.4      5.757      6.835
REMARK  2 active torsions:
REMARK  status: ('A' for Active; 'I' for Inactive)
REMARK    1  A    between atoms: N_10  and  C_11 
REMARK    2  A    between atoms: C_11  and  C_12 
ROOT
HETATM    1  C   UNL     3     -47.496 -51.324  17.282  1.00  0.00     0.070 C 
HETATM    2  C   UNL     3     -46.861 -51.864  16.051  1.00  0.00     0.024 A 
HETATM    3  C   UNL     3     -47.031 -51.417  14.754  1.00  0.00     0.052 A 
HETATM    4  C   UNL     3     -46.277 -52.286  13.988  1.00  0.00     0.026 A 
HETATM    5  C   UNL     3     -46.148 -52.250  12.496  1.00  0.00     0.070 C 
HETATM    6  N   UNL     3     -45.706 -53.193  14.812  1.00  0.00    -0.295 N 
HETATM    7  N   UNL     3     -46.046 -52.924  16.065  1.00  0.00    -0.303 N 
ATOM      8  HN  UNL     3     -45.741 -53.436  16.894  1.00  0.00     0.186 HD
ENDROOT
BRANCH   6   9
HETATM    9  C   UNL     3     -44.887 -54.350  14.461  1.00  0.00     0.184 C 
BRANCH   9  10
HETATM   10  C   UNL     3     -43.394 -53.968  14.489  1.00  0.00     0.240 C 
HETATM   11  C   UNL     3     -42.758 -53.843  13.101  1.00  0.00     0.039 C 
HETATM   12  C   UNL     3     -41.289 -54.206  13.337  1.00  0.00     0.032 C 
HETATM   13  C   UNL     3     -41.217 -54.501  14.828  1.00  0.00     0.270 C 
HETATM   14  N   UNL     3     -42.559 -54.957  15.178  1.00  0.00     0.089 N 
HETATM   15  H   UNL     3     -42.704 -54.927  16.214  1.00  0.00     0.316 HD
ENDBRANCH   9  10
ENDBRANCH   6   9
TORSDOF 2
ENDMDL
MODEL 9
REMARK VINA RESULT:      -4.3      2.621      5.885
REMARK  2 active torsions:
REMARK  status: ('A' for Active; 'I' for Inactive)
REMARK    1  A    between atoms: N_10  and  C_11 
REMARK    2  A    between atoms: C_11  and  C_12 
ROOT
HETATM    1  C   UNL     3     -45.332 -54.716  13.756  1.00  0.00     0.070 C 
HETATM    2  C   UNL     3     -43.889 -54.370  13.663  1.00  0.00     0.024 A 
HETATM    3  C   UNL     3     -42.928 -54.507  14.646  1.00  0.00     0.052 A 
HETATM    4  C   UNL     3     -41.779 -53.992  14.079  1.00  0.00     0.026 A 
HETATM    5  C   UNL     3     -40.444 -53.881  14.753  1.00  0.00     0.070 C 
HETATM    6  N   UNL     3     -42.072 -53.574  12.827  1.00  0.00    -0.295 N 
HETATM    7  N   UNL     3     -43.349 -53.820  12.570  1.00  0.00    -0.303 N 
ATOM      8  HN  UNL     3     -43.833 -53.626  11.693  1.00  0.00     0.186 HD
ENDROOT
BRANCH   6   9
HETATM    9  C   UNL     3     -41.204 -52.891  11.871  1.00  0.00     0.184 C 
BRANCH   9  10
HETATM   10  C   UNL     3     -41.103 -51.394  12.226  1.00  0.00     0.240 C 
HETATM   11  C   UNL     3     -42.445 -50.750  12.589  1.00  0.00     0.039 C 
HETATM   12  C   UNL     3     -42.272 -49.286  12.174  1.00  0.00     0.032 C 
HETATM   13  C   UNL     3     -40.857 -49.225  11.618  1.00  0.00     0.270 C 
HETATM   14  N   UNL     3     -40.598 -50.573  11.121  1.00  0.00     0.089 N 
HETATM   15  H   UNL     3     -39.574 -50.723  10.969  1.00  0.00     0.316 HD
ENDBRANCH   9  10
ENDBRANCH   6   9
TORSDOF 2
ENDMDL
