MODEL 1
REMARK VINA RESULT:      -6.0      0.000      0.000
REMARK  7 active torsions:
REMARK  status: ('A' for Active; 'I' for Inactive)
REMARK    1  A    between atoms: O_2  and  C_3 
REMARK    2  A    between atoms: C_3  and  C_4 
REMARK    3  A    between atoms: C_4  and  N_5 
REMARK    4  A    between atoms: C_6  and  N_7 
REMARK       I    between atoms: N_7  and  C_8 
REMARK    5  A    between atoms: C_11  and  N_12 
REMARK    6  A    between atoms: N_12  and  C_13 
REMARK    7  A    between atoms: C_13  and  C_14 
ROOT
HETATM    1  N   UNL     1     -42.015 -48.453  11.608  1.00  0.00    -0.281 N 
HETATM    2  C   UNL     1     -42.062 -49.771  12.077  1.00  0.00     0.141 C 
HETATM    3  C   UNL     1     -40.940 -50.532  12.168  1.00  0.00     0.122 C 
HETATM    4  C   UNL     1     -39.666 -49.874  11.725  1.00  0.00     0.274 C 
HETATM    5  O   UNL     1     -38.558 -50.304  12.041  1.00  0.00    -0.266 OA
HETATM    6  N   UNL     1     -39.783 -48.744  10.984  1.00  0.00    -0.274 N 
HETATM    7  C   UNL     1     -40.848 -47.911  11.085  1.00  0.00     0.331 C 
HETATM    8  O   UNL     1     -40.730 -46.741  10.727  1.00  0.00    -0.246 OA
HETATM    9  H   UNL     1     -38.918 -48.298  10.724  1.00  0.00     0.173 HD
ENDROOT
BRANCH   3  10
HETATM   10  N   UNL     1     -40.829 -51.758  12.865  1.00  0.00    -0.281 NA
HETATM   11  H   UNL     1     -39.851 -51.874  13.139  1.00  0.00     0.128 HD
BRANCH  10  12
HETATM   12  C   UNL     1     -41.249 -53.017  12.223  1.00  0.00     0.131 C 
BRANCH  12  13
HETATM   13  C   UNL     1     -42.343 -53.709  13.011  1.00  0.00    -0.045 A 
HETATM   14  C   UNL     1     -43.654 -53.781  12.516  1.00  0.00     0.008 A 
HETATM   15  C   UNL     1     -44.664 -54.402  13.256  1.00  0.00     0.001 A 
HETATM   16  C   UNL     1     -44.379 -54.955  14.503  1.00  0.00     0.000 A 
HETATM   17  C   UNL     1     -43.081 -54.893  15.006  1.00  0.00     0.001 A 
HETATM   18  C   UNL     1     -42.071 -54.278  14.264  1.00  0.00     0.008 A 
ENDBRANCH  12  13
ENDBRANCH  10  12
ENDBRANCH   3  10
BRANCH   2  19
HETATM   19  N   UNL     1     -43.249 -50.242  12.597  1.00  0.00    -0.312 N 
HETATM   20  C   UNL     1     -43.554 -50.361  13.939  1.00  0.00     0.219 C 
HETATM   21  O   UNL     1     -42.765 -50.239  14.870  1.00  0.00    -0.274 OA
HETATM   22  C   UNL     1     -44.976 -50.807  14.164  1.00  0.00     0.117 C 
HETATM   23  H   UNL     1     -43.892 -50.680  11.951  1.00  0.00     0.170 HD
ENDBRANCH   2  19
BRANCH   1  24
HETATM   24  C   UNL     1     -43.179 -47.555  11.618  1.00  0.00     0.162 C 
BRANCH  24  25
HETATM   25  C   UNL     1     -44.114 -47.715  10.412  1.00  0.00     0.187 C 
BRANCH  25  26
HETATM   26  O   UNL     1     -43.634 -46.874   9.356  1.00  0.00    -0.394 OA
HETATM   27  C   UNL     1     -43.586 -47.569   8.116  1.00  0.00     0.201 C 
ENDBRANCH  25  26
ENDBRANCH  24  25
ENDBRANCH   1  24
TORSDOF 7
ENDMDL
MODEL 2
REMARK VINA RESULT:      -6.0      2.142      6.420
REMARK  7 active torsions:
REMARK  status: ('A' for Active; 'I' for Inactive)
REMARK    1  A    between atoms: O_2  and  C_3 
REMARK    2  A    between atoms: C_3  and  C_4 
REMARK    3  A    between atoms: C_4  and  N_5 
REMARK    4  A    between atoms: C_6  and  N_7 
REMARK       I    between atoms: N_7  and  C_8 
REMARK    5  A    between atoms: C_11  and  N_12 
REMARK    6  A    between atoms: N_12  and  C_13 
REMARK    7  A    between atoms: C_13  and  C_14 
ROOT
HETATM    1  N   UNL     1     -42.379 -53.150  13.594  1.00  0.00    -0.281 N 
HETATM    2  C   UNL     1     -42.893 -52.023  12.945  1.00  0.00     0.141 C 
HETATM    3  C   UNL     1     -42.090 -50.996  12.561  1.00  0.00     0.122 C 
HETATM    4  C   UNL     1     -40.634 -51.148  12.890  1.00  0.00     0.274 C 
HETATM    5  O   UNL     1     -39.760 -50.479  12.340  1.00  0.00    -0.266 OA
HETATM    6  N   UNL     1     -40.305 -52.096  13.803  1.00  0.00    -0.274 N 
HETATM    7  C   UNL     1     -41.052 -53.211  14.000  1.00  0.00     0.331 C 
HETATM    8  O   UNL     1     -40.530 -54.201  14.507  1.00  0.00    -0.246 OA
HETATM    9  H   UNL     1     -39.320 -52.207  13.986  1.00  0.00     0.173 HD
ENDROOT
BRANCH   3  10
HETATM   10  N   UNL     1     -42.451 -49.951  11.679  1.00  0.00    -0.281 NA
HETATM   11  H   UNL     1     -41.621 -49.702  11.135  1.00  0.00     0.128 HD
BRANCH  10  12
HETATM   12  C   UNL     1     -43.013 -48.694  12.206  1.00  0.00     0.131 C 
BRANCH  12  13
HETATM   13  C   UNL     1     -43.287 -47.696  11.099  1.00  0.00    -0.045 A 
HETATM   14  C   UNL     1     -42.427 -46.611  10.876  1.00  0.00     0.008 A 
HETATM   15  C   UNL     1     -42.696 -45.682   9.867  1.00  0.00     0.001 A 
HETATM   16  C   UNL     1     -43.831 -45.822   9.071  1.00  0.00     0.000 A 
HETATM   17  C   UNL     1     -44.693 -46.896   9.279  1.00  0.00     0.001 A 
HETATM   18  C   UNL     1     -44.421 -47.827  10.284  1.00  0.00     0.008 A 
ENDBRANCH  12  13
ENDBRANCH  10  12
ENDBRANCH   3  10
BRANCH   2  19
HETATM   19  N   UNL     1     -44.216 -52.033  12.556  1.00  0.00    -0.312 N 
HETATM   20  C   UNL     1     -45.270 -51.476  13.254  1.00  0.00     0.219 C 
HETATM   21  O   UNL     1     -45.226 -51.048  14.402  1.00  0.00    -0.274 OA
HETATM   22  C   UNL     1     -46.570 -51.568  12.496  1.00  0.00     0.117 C 
HETATM   23  H   UNL     1     -44.461 -52.627  11.775  1.00  0.00     0.170 HD
ENDBRANCH   2  19
BRANCH   1  24
HETATM   24  C   UNL     1     -43.189 -54.337  13.905  1.00  0.00     0.162 C 
BRANCH  24  25
HETATM   25  C   UNL     1     -43.861 -54.302  15.285  1.00  0.00     0.187 C 
BRANCH  25  26
HETATM   26  O   UNL     1     -45.240 -54.655  15.123  1.00  0.00    -0.394 OA
HETATM   27  C   UNL     1     -45.490 -55.200  13.833  1.00  0.00     0.201 C 
ENDBRANCH  25  26
ENDBRANCH  24  25
ENDBRANCH   1  24
TORSDOF 7
ENDMDL
MODEL 3
REMARK VINA RESULT:      -5.9      2.063      6.344
REMARK  7 active torsions:
REMARK  status: ('A' for Active; 'I' for Inactive)
REMARK    1  A    between atoms: O_2  and  C_3 
REMARK    2  A    between atoms: C_3  and  C_4 
REMARK    3  A    between atoms: C_4  and  N_5 
REMARK    4  A    between atoms: C_6  and  N_7 
REMARK       I    between atoms: N_7  and  C_8 
REMARK    5  A    between atoms: C_11  and  N_12 
REMARK    6  A    between atoms: N_12  and  C_13 
REMARK    7  A    between atoms: C_13  and  C_14 
ROOT
HETATM    1  N   UNL     1     -41.796 -52.926  13.015  1.00  0.00    -0.281 N 
HETATM    2  C   UNL     1     -42.481 -51.768  12.633  1.00  0.00     0.141 C 
HETATM    3  C   UNL     1     -41.820 -50.652  12.226  1.00  0.00     0.122 C 
HETATM    4  C   UNL     1     -40.322 -50.744  12.228  1.00  0.00     0.274 C 
HETATM    5  O   UNL     1     -39.613 -49.959  11.600  1.00  0.00    -0.266 OA
HETATM    6  N   UNL     1     -39.770 -51.767  12.927  1.00  0.00    -0.274 N 
HETATM    7  C   UNL     1     -40.411 -52.944  13.129  1.00  0.00     0.331 C 
HETATM    8  O   UNL     1     -39.753 -53.949  13.389  1.00  0.00    -0.246 OA
HETATM    9  H   UNL     1     -38.764 -51.832  12.888  1.00  0.00     0.173 HD
ENDROOT
BRANCH   3  10
HETATM   10  N   UNL     1     -42.402 -49.539  11.576  1.00  0.00    -0.281 NA
HETATM   11  H   UNL     1     -41.772 -49.254  10.823  1.00  0.00     0.128 HD
BRANCH  10  12
HETATM   12  C   UNL     1     -42.737 -48.324  12.340  1.00  0.00     0.131 C 
BRANCH  12  13
HETATM   13  C   UNL     1     -41.713 -47.227  12.126  1.00  0.00    -0.045 A 
HETATM   14  C   UNL     1     -41.386 -46.788  10.834  1.00  0.00     0.008 A 
HETATM   15  C   UNL     1     -40.426 -45.791  10.641  1.00  0.00     0.001 A 
HETATM   16  C   UNL     1     -39.776 -45.223  11.735  1.00  0.00     0.000 A 
HETATM   17  C   UNL     1     -40.093 -45.647  13.023  1.00  0.00     0.001 A 
HETATM   18  C   UNL     1     -41.056 -46.640  13.217  1.00  0.00     0.008 A 
ENDBRANCH  12  13
ENDBRANCH  10  12
ENDBRANCH   3  10
BRANCH   2  19
HETATM   19  N   UNL     1     -43.855 -51.822  12.524  1.00  0.00    -0.312 N 
HETATM   20  C   UNL     1     -44.760 -51.346  13.454  1.00  0.00     0.219 C 
HETATM   21  O   UNL     1     -44.493 -50.968  14.590  1.00  0.00    -0.274 OA
HETATM   22  C   UNL     1     -46.184 -51.463  12.976  1.00  0.00     0.117 C 
HETATM   23  H   UNL     1     -44.236 -52.390  11.780  1.00  0.00     0.170 HD
ENDBRANCH   2  19
BRANCH   1  24
HETATM   24  C   UNL     1     -42.472 -54.192  13.332  1.00  0.00     0.162 C 
BRANCH  24  25
HETATM   25  C   UNL     1     -42.829 -54.366  14.815  1.00  0.00     0.187 C 
BRANCH  25  26
HETATM   26  O   UNL     1     -43.911 -55.299  14.910  1.00  0.00    -0.394 OA
HETATM   27  C   UNL     1     -44.944 -54.997  13.979  1.00  0.00     0.201 C 
ENDBRANCH  25  26
ENDBRANCH  24  25
ENDBRANCH   1  24
TORSDOF 7
ENDMDL
MODEL 4
REMARK VINA RESULT:      -5.8      3.260      6.392
REMARK  7 active torsions:
REMARK  status: ('A' for Active; 'I' for Inactive)
REMARK    1  A    between atoms: O_2  and  C_3 
REMARK    2  A    between atoms: C_3  and  C_4 
REMARK    3  A    between atoms: C_4  and  N_5 
REMARK    4  A    between atoms: C_6  and  N_7 
REMARK       I    between atoms: N_7  and  C_8 
REMARK    5  A    between atoms: C_11  and  N_12 
REMARK    6  A    between atoms: N_12  and  C_13 
REMARK    7  A    between atoms: C_13  and  C_14 
ROOT
HETATM    1  N   UNL     1     -41.621 -54.510  14.809  1.00  0.00    -0.281 N 
HETATM    2  C   UNL     1     -42.646 -53.686  14.332  1.00  0.00     0.141 C 
HETATM    3  C   UNL     1     -42.393 -52.660  13.476  1.00  0.00     0.122 C 
HETATM    4  C   UNL     1     -40.954 -52.468  13.095  1.00  0.00     0.274 C 
HETATM    5  O   UNL     1     -40.615 -51.812  12.111  1.00  0.00    -0.266 OA
HETATM    6  N   UNL     1     -40.026 -53.089  13.865  1.00  0.00    -0.274 N 
HETATM    7  C   UNL     1     -40.286 -54.234  14.543  1.00  0.00     0.331 C 
HETATM    8  O   UNL     1     -39.352 -54.960  14.875  1.00  0.00    -0.246 OA
HETATM    9  H   UNL     1     -39.068 -52.976  13.574  1.00  0.00     0.173 HD
ENDROOT
BRANCH   3  10
HETATM   10  N   UNL     1     -43.362 -51.945  12.735  1.00  0.00    -0.281 NA
HETATM   11  H   UNL     1     -42.980 -51.779  11.801  1.00  0.00     0.128 HD
BRANCH  10  12
HETATM   12  C   UNL     1     -43.871 -50.653  13.228  1.00  0.00     0.131 C 
BRANCH  12  13
HETATM   13  C   UNL     1     -44.880 -50.839  14.344  1.00  0.00    -0.045 A 
HETATM   14  C   UNL     1     -46.187 -51.270  14.072  1.00  0.00     0.008 A 
HETATM   15  C   UNL     1     -47.119 -51.420  15.102  1.00  0.00     0.001 A 
HETATM   16  C   UNL     1     -46.760 -51.134  16.418  1.00  0.00     0.000 A 
HETATM   17  C   UNL     1     -45.465 -50.707  16.704  1.00  0.00     0.001 A 
HETATM   18  C   UNL     1     -44.532 -50.563  15.674  1.00  0.00     0.008 A 
ENDBRANCH  12  13
ENDBRANCH  10  12
ENDBRANCH   3  10
BRANCH   2  19
HETATM   19  N   UNL     1     -43.951 -54.025  14.620  1.00  0.00    -0.312 N 
HETATM   20  C   UNL     1     -44.868 -54.549  13.728  1.00  0.00     0.219 C 
HETATM   21  O   UNL     1     -44.725 -54.626  12.513  1.00  0.00    -0.274 OA
HETATM   22  C   UNL     1     -46.171 -54.909  14.394  1.00  0.00     0.117 C 
HETATM   23  H   UNL     1     -44.318 -53.726  15.513  1.00  0.00     0.170 HD
ENDBRANCH   2  19
BRANCH   1  24
HETATM   24  C   UNL     1     -41.868 -55.707  15.627  1.00  0.00     0.162 C 
BRANCH  24  25
HETATM   25  C   UNL     1     -42.096 -55.420  17.117  1.00  0.00     0.187 C 
BRANCH  25  26
HETATM   26  O   UNL     1     -43.506 -55.332  17.348  1.00  0.00    -0.394 OA
HETATM   27  C   UNL     1     -43.793 -54.963  18.692  1.00  0.00     0.201 C 
ENDBRANCH  25  26
ENDBRANCH  24  25
ENDBRANCH   1  24
TORSDOF 7
ENDMDL
MODEL 5
REMARK VINA RESULT:      -5.8      2.044      3.447
REMARK  7 active torsions:
REMARK  status: ('A' for Active; 'I' for Inactive)
REMARK    1  A    between atoms: O_2  and  C_3 
REMARK    2  A    between atoms: C_3  and  C_4 
REMARK    3  A    between atoms: C_4  and  N_5 
REMARK    4  A    between atoms: C_6  and  N_7 
REMARK       I    between atoms: N_7  and  C_8 
REMARK    5  A    between atoms: C_11  and  N_12 
REMARK    6  A    between atoms: N_12  and  C_13 
REMARK    7  A    between atoms: C_13  and  C_14 
ROOT
HETATM    1  N   UNL     1     -40.401 -47.031  11.485  1.00  0.00    -0.281 N 
HETATM    2  C   UNL     1     -41.038 -48.216  11.101  1.00  0.00     0.141 C 
HETATM    3  C   UNL     1     -41.135 -49.276  11.946  1.00  0.00     0.122 C 
HETATM    4  C   UNL     1     -40.509 -49.095  13.297  1.00  0.00     0.274 C 
HETATM    5  O   UNL     1     -40.786 -49.815  14.254  1.00  0.00    -0.266 OA
HETATM    6  N   UNL     1     -39.640 -48.063  13.438  1.00  0.00    -0.274 N 
HETATM    7  C   UNL     1     -39.719 -46.933  12.692  1.00  0.00     0.331 C 
HETATM    8  O   UNL     1     -39.205 -45.899  13.113  1.00  0.00    -0.246 OA
HETATM    9  H   UNL     1     -39.255 -47.936  14.361  1.00  0.00     0.173 HD
ENDROOT
BRANCH   3  10
HETATM   10  N   UNL     1     -41.973 -50.402  11.764  1.00  0.00    -0.281 NA
HETATM   11  H   UNL     1     -42.671 -50.395  12.511  1.00  0.00     0.128 HD
BRANCH  10  12
HETATM   12  C   UNL     1     -41.397 -51.758  11.726  1.00  0.00     0.131 C 
BRANCH  12  13
HETATM   13  C   UNL     1     -42.198 -52.731  12.568  1.00  0.00    -0.045 A 
HETATM   14  C   UNL     1     -41.590 -53.468  13.594  1.00  0.00     0.008 A 
HETATM   15  C   UNL     1     -42.329 -54.379  14.354  1.00  0.00     0.001 A 
HETATM   16  C   UNL     1     -43.685 -54.569  14.094  1.00  0.00     0.000 A 
HETATM   17  C   UNL     1     -44.303 -53.842  13.080  1.00  0.00     0.001 A 
HETATM   18  C   UNL     1     -43.565 -52.927  12.324  1.00  0.00     0.008 A 
ENDBRANCH  12  13
ENDBRANCH  10  12
ENDBRANCH   3  10
BRANCH   2  19
HETATM   19  N   UNL     1     -41.709 -48.241   9.897  1.00  0.00    -0.312 N 
HETATM   20  C   UNL     1     -42.989 -47.772   9.673  1.00  0.00     0.219 C 
HETATM   21  O   UNL     1     -43.790 -47.428  10.536  1.00  0.00    -0.274 OA
HETATM   22  C   UNL     1     -43.381 -47.850   8.220  1.00  0.00     0.117 C 
HETATM   23  H   UNL     1     -41.295 -48.783   9.151  1.00  0.00     0.170 HD
ENDBRANCH   2  19
BRANCH   1  24
HETATM   24  C   UNL     1     -40.390 -45.818  10.654  1.00  0.00     0.162 C 
BRANCH  24  25
HETATM   25  C   UNL     1     -41.477 -44.795  11.012  1.00  0.00     0.187 C 
BRANCH  25  26
HETATM   26  O   UNL     1     -41.026 -43.499  10.602  1.00  0.00    -0.394 OA
HETATM   27  C   UNL     1     -40.427 -42.790  11.680  1.00  0.00     0.201 C 
ENDBRANCH  25  26
ENDBRANCH  24  25
ENDBRANCH   1  24
TORSDOF 7
ENDMDL
MODEL 6
REMARK VINA RESULT:      -5.7      3.465      5.253
REMARK  7 active torsions:
REMARK  status: ('A' for Active; 'I' for Inactive)
REMARK    1  A    between atoms: O_2  and  C_3 
REMARK    2  A    between atoms: C_3  and  C_4 
REMARK    3  A    between atoms: C_4  and  N_5 
REMARK    4  A    between atoms: C_6  and  N_7 
REMARK       I    between atoms: N_7  and  C_8 
REMARK    5  A    between atoms: C_11  and  N_12 
REMARK    6  A    between atoms: N_12  and  C_13 
REMARK    7  A    between atoms: C_13  and  C_14 
ROOT
HETATM    1  N   UNL     1     -42.372 -45.278  10.793  1.00  0.00    -0.281 N 
HETATM    2  C   UNL     1     -41.766 -46.512  11.052  1.00  0.00     0.141 C 
HETATM    3  C   UNL     1     -42.011 -47.601  10.278  1.00  0.00     0.122 C 
HETATM    4  C   UNL     1     -42.975 -47.394   9.146  1.00  0.00     0.274 C 
HETATM    5  O   UNL     1     -43.049 -48.168   8.194  1.00  0.00    -0.266 OA
HETATM    6  N   UNL     1     -43.748 -46.281   9.194  1.00  0.00    -0.274 N 
HETATM    7  C   UNL     1     -43.355 -45.144   9.820  1.00  0.00     0.331 C 
HETATM    8  O   UNL     1     -43.869 -44.074   9.500  1.00  0.00    -0.246 OA
HETATM    9  H   UNL     1     -44.365 -46.141   8.409  1.00  0.00     0.173 HD
ENDROOT
BRANCH   3  10
HETATM   10  N   UNL     1     -41.265 -48.803  10.284  1.00  0.00    -0.281 NA
HETATM   11  H   UNL     1     -41.500 -49.320   9.434  1.00  0.00     0.128 HD
BRANCH  10  12
HETATM   12  C   UNL     1     -41.387 -49.747  11.410  1.00  0.00     0.131 C 
BRANCH  12  13
HETATM   13  C   UNL     1     -40.030 -50.146  11.954  1.00  0.00    -0.045 A 
HETATM   14  C   UNL     1     -38.849 -49.626  11.402  1.00  0.00     0.008 A 
HETATM   15  C   UNL     1     -37.600 -50.013  11.895  1.00  0.00     0.001 A 
HETATM   16  C   UNL     1     -37.513 -50.930  12.941  1.00  0.00     0.000 A 
HETATM   17  C   UNL     1     -38.677 -51.452  13.500  1.00  0.00     0.001 A 
HETATM   18  C   UNL     1     -39.926 -51.061  13.012  1.00  0.00     0.008 A 
ENDBRANCH  12  13
ENDBRANCH  10  12
ENDBRANCH   3  10
BRANCH   2  19
HETATM   19  N   UNL     1     -40.786 -46.572  12.021  1.00  0.00    -0.312 N 
HETATM   20  C   UNL     1     -40.988 -46.840  13.361  1.00  0.00     0.219 C 
HETATM   21  O   UNL     1     -42.074 -46.887  13.930  1.00  0.00    -0.274 OA
HETATM   22  C   UNL     1     -39.693 -46.940  14.125  1.00  0.00     0.117 C 
HETATM   23  H   UNL     1     -39.865 -46.245  11.765  1.00  0.00     0.170 HD
ENDBRANCH   2  19
BRANCH   1  24
HETATM   24  C   UNL     1     -42.034 -44.046  11.522  1.00  0.00     0.162 C 
BRANCH  24  25
HETATM   25  C   UNL     1     -40.755 -43.353  11.034  1.00  0.00     0.187 C 
BRANCH  25  26
HETATM   26  O   UNL     1     -39.657 -43.826  11.824  1.00  0.00    -0.394 OA
HETATM   27  C   UNL     1     -39.657 -43.239  13.120  1.00  0.00     0.201 C 
ENDBRANCH  25  26
ENDBRANCH  24  25
ENDBRANCH   1  24
TORSDOF 7
ENDMDL
MODEL 7
REMARK VINA RESULT:      -5.7      2.358      5.740
REMARK  7 active torsions:
REMARK  status: ('A' for Active; 'I' for Inactive)
REMARK    1  A    between atoms: O_2  and  C_3 
REMARK    2  A    between atoms: C_3  and  C_4 
REMARK    3  A    between atoms: C_4  and  N_5 
REMARK    4  A    between atoms: C_6  and  N_7 
REMARK       I    between atoms: N_7  and  C_8 
REMARK    5  A    between atoms: C_11  and  N_12 
REMARK    6  A    between atoms: N_12  and  C_13 
REMARK    7  A    between atoms: C_13  and  C_14 
ROOT
HETATM    1  N   UNL     1     -42.998 -52.911  13.310  1.00  0.00    -0.281 N 
HETATM    2  C   UNL     1     -42.025 -52.027  12.830  1.00  0.00     0.141 C 
HETATM    3  C   UNL     1     -40.701 -52.327  12.891  1.00  0.00     0.122 C 
HETATM    4  C   UNL     1     -40.358 -53.648  13.513  1.00  0.00     0.274 C 
HETATM    5  O   UNL     1     -39.265 -54.189  13.353  1.00  0.00    -0.266 OA
HETATM    6  N   UNL     1     -41.330 -54.256  14.239  1.00  0.00    -0.274 N 
HETATM    7  C   UNL     1     -42.650 -54.068  13.996  1.00  0.00     0.331 C 
HETATM    8  O   UNL     1     -43.457 -54.914  14.375  1.00  0.00    -0.246 OA
HETATM    9  H   UNL     1     -41.093 -55.158  14.621  1.00  0.00     0.173 HD
ENDROOT
BRANCH   3  10
HETATM   10  N   UNL     1     -39.668 -51.643  12.208  1.00  0.00    -0.281 NA
HETATM   11  H   UNL     1     -39.126 -52.337  11.688  1.00  0.00     0.128 HD
BRANCH  10  12
HETATM   12  C   UNL     1     -38.704 -50.815  12.955  1.00  0.00     0.131 C 
BRANCH  12  13
HETATM   13  C   UNL     1     -39.130 -49.361  12.997  1.00  0.00    -0.045 A 
HETATM   14  C   UNL     1     -39.276 -48.618  11.815  1.00  0.00     0.008 A 
HETATM   15  C   UNL     1     -39.649 -47.271  11.860  1.00  0.00     0.001 A 
HETATM   16  C   UNL     1     -39.874 -46.648  13.086  1.00  0.00     0.000 A 
HETATM   17  C   UNL     1     -39.735 -47.374  14.266  1.00  0.00     0.001 A 
HETATM   18  C   UNL     1     -39.368 -48.721  14.221  1.00  0.00     0.008 A 
ENDBRANCH  12  13
ENDBRANCH  10  12
ENDBRANCH   3  10
BRANCH   2  19
HETATM   19  N   UNL     1     -42.438 -50.904  12.145  1.00  0.00    -0.312 N 
HETATM   20  C   UNL     1     -42.702 -49.667  12.702  1.00  0.00     0.219 C 
HETATM   21  O   UNL     1     -42.786 -49.422  13.901  1.00  0.00    -0.274 OA
HETATM   22  C   UNL     1     -43.026 -48.628  11.659  1.00  0.00     0.117 C 
HETATM   23  H   UNL     1     -42.718 -51.029  11.182  1.00  0.00     0.170 HD
ENDBRANCH   2  19
BRANCH   1  24
HETATM   24  C   UNL     1     -44.441 -52.686  13.143  1.00  0.00     0.162 C 
BRANCH  24  25
HETATM   25  C   UNL     1     -45.117 -51.996  14.335  1.00  0.00     0.187 C 
BRANCH  25  26
HETATM   26  O   UNL     1     -46.267 -51.291  13.854  1.00  0.00    -0.394 OA
HETATM   27  C   UNL     1     -46.568 -51.640  12.508  1.00  0.00     0.201 C 
ENDBRANCH  25  26
ENDBRANCH  24  25
ENDBRANCH   1  24
TORSDOF 7
ENDMDL
MODEL 8
REMARK VINA RESULT:      -5.6      2.128      4.282
REMARK  7 active torsions:
REMARK  status: ('A' for Active; 'I' for Inactive)
REMARK    1  A    between atoms: O_2  and  C_3 
REMARK    2  A    between atoms: C_3  and  C_4 
REMARK    3  A    between atoms: C_4  and  N_5 
REMARK    4  A    between atoms: C_6  and  N_7 
REMARK       I    between atoms: N_7  and  C_8 
REMARK    5  A    between atoms: C_11  and  N_12 
REMARK    6  A    between atoms: N_12  and  C_13 
REMARK    7  A    between atoms: C_13  and  C_14 
ROOT
HETATM    1  N   UNL     1     -41.042 -46.286  10.786  1.00  0.00    -0.281 N 
HETATM    2  C   UNL     1     -40.976 -47.626  11.183  1.00  0.00     0.141 C 
HETATM    3  C   UNL     1     -42.098 -48.377  11.338  1.00  0.00     0.122 C 
HETATM    4  C   UNL     1     -43.396 -47.675  11.067  1.00  0.00     0.274 C 
HETATM    5  O   UNL     1     -44.443 -48.284  10.855  1.00  0.00    -0.266 OA
HETATM    6  N   UNL     1     -43.365 -46.320  11.026  1.00  0.00    -0.274 N 
HETATM    7  C   UNL     1     -42.258 -45.625  10.665  1.00  0.00     0.331 C 
HETATM    8  O   UNL     1     -42.380 -44.474  10.251  1.00  0.00    -0.246 OA
HETATM    9  H   UNL     1     -44.239 -45.867  10.809  1.00  0.00     0.173 HD
ENDROOT
BRANCH   3  10
HETATM   10  N   UNL     1     -42.137 -49.785  11.472  1.00  0.00    -0.281 NA
HETATM   11  H   UNL     1     -42.931 -50.128  10.928  1.00  0.00     0.128 HD
BRANCH  10  12
HETATM   12  C   UNL     1     -42.230 -50.401  12.808  1.00  0.00     0.131 C 
BRANCH  12  13
HETATM   13  C   UNL     1     -43.397 -51.363  12.900  1.00  0.00    -0.045 A 
HETATM   14  C   UNL     1     -43.248 -52.714  12.549  1.00  0.00     0.008 A 
HETATM   15  C   UNL     1     -44.333 -53.593  12.616  1.00  0.00     0.001 A 
HETATM   16  C   UNL     1     -45.582 -53.132  13.029  1.00  0.00     0.000 A 
HETATM   17  C   UNL     1     -45.744 -51.795  13.383  1.00  0.00     0.001 A 
HETATM   18  C   UNL     1     -44.658 -50.918  13.322  1.00  0.00     0.008 A 
ENDBRANCH  12  13
ENDBRANCH  10  12
ENDBRANCH   3  10
BRANCH   2  19
HETATM   19  N   UNL     1     -39.738 -48.227  11.268  1.00  0.00    -0.312 N 
HETATM   20  C   UNL     1     -39.106 -48.618  12.433  1.00  0.00     0.219 C 
HETATM   21  O   UNL     1     -39.459 -48.334  13.573  1.00  0.00    -0.274 OA
HETATM   22  C   UNL     1     -37.812 -49.343  12.166  1.00  0.00     0.117 C 
HETATM   23  H   UNL     1     -39.177 -48.246  10.428  1.00  0.00     0.170 HD
ENDBRANCH   2  19
BRANCH   1  24
HETATM   24  C   UNL     1     -39.852 -45.479  10.479  1.00  0.00     0.162 C 
BRANCH  24  25
HETATM   25  C   UNL     1     -39.492 -44.446  11.555  1.00  0.00     0.187 C 
BRANCH  25  26
HETATM   26  O   UNL     1     -39.926 -44.948  12.824  1.00  0.00    -0.394 OA
HETATM   27  C   UNL     1     -38.848 -45.030  13.749  1.00  0.00     0.201 C 
ENDBRANCH  25  26
ENDBRANCH  24  25
ENDBRANCH   1  24
TORSDOF 7
ENDMDL
MODEL 9
REMARK VINA RESULT:      -5.5      3.732      6.255
REMARK  7 active torsions:
REMARK  status: ('A' for Active; 'I' for Inactive)
REMARK    1  A    between atoms: O_2  and  C_3 
REMARK    2  A    between atoms: C_3  and  C_4 
REMARK    3  A    between atoms: C_4  and  N_5 
REMARK    4  A    between atoms: C_6  and  N_7 
REMARK       I    between atoms: N_7  and  C_8 
REMARK    5  A    between atoms: C_11  and  N_12 
REMARK    6  A    between atoms: N_12  and  C_13 
REMARK    7  A    between atoms: C_13  and  C_14 
ROOT
HETATM    1  N   UNL     1     -44.231 -53.613  14.060  1.00  0.00    -0.281 N 
HETATM    2  C   UNL     1     -42.930 -53.531  14.567  1.00  0.00     0.141 C 
HETATM    3  C   UNL     1     -41.908 -53.029  13.824  1.00  0.00     0.122 C 
HETATM    4  C   UNL     1     -42.266 -52.588  12.435  1.00  0.00     0.274 C 
HETATM    5  O   UNL     1     -41.547 -51.839  11.776  1.00  0.00    -0.266 OA
HETATM    6  N   UNL     1     -43.452 -53.021  11.939  1.00  0.00    -0.274 N 
HETATM    7  C   UNL     1     -44.512 -53.317  12.732  1.00  0.00     0.331 C 
HETATM    8  O   UNL     1     -45.643 -53.302  12.252  1.00  0.00    -0.246 OA
HETATM    9  H   UNL     1     -43.691 -52.687  11.019  1.00  0.00     0.173 HD
ENDROOT
BRANCH   3  10
HETATM   10  N   UNL     1     -40.635 -52.658  14.316  1.00  0.00    -0.281 NA
HETATM   11  H   UNL     1     -40.376 -51.774  13.873  1.00  0.00     0.128 HD
BRANCH  10  12
HETATM   12  C   UNL     1     -39.486 -53.569  14.165  1.00  0.00     0.131 C 
BRANCH  12  13
HETATM   13  C   UNL     1     -39.052 -54.147  15.497  1.00  0.00    -0.045 A 
HETATM   14  C   UNL     1     -38.716 -55.504  15.619  1.00  0.00     0.008 A 
HETATM   15  C   UNL     1     -38.336 -56.037  16.854  1.00  0.00     0.001 A 
HETATM   16  C   UNL     1     -38.292 -55.223  17.984  1.00  0.00     0.000 A 
HETATM   17  C   UNL     1     -38.620 -53.874  17.877  1.00  0.00     0.001 A 
HETATM   18  C   UNL     1     -38.994 -53.340  16.641  1.00  0.00     0.008 A 
ENDBRANCH  12  13
ENDBRANCH  10  12
ENDBRANCH   3  10
BRANCH   2  19
HETATM   19  N   UNL     1     -42.723 -53.824  15.899  1.00  0.00    -0.312 N 
HETATM   20  C   UNL     1     -42.518 -55.083  16.428  1.00  0.00     0.219 C 
HETATM   21  O   UNL     1     -42.666 -56.146  15.834  1.00  0.00    -0.274 OA
HETATM   22  C   UNL     1     -42.214 -55.040  17.904  1.00  0.00     0.117 C 
HETATM   23  H   UNL     1     -42.885 -53.080  16.564  1.00  0.00     0.170 HD
ENDBRANCH   2  19
BRANCH   1  24
HETATM   24  C   UNL     1     -45.386 -54.023  14.873  1.00  0.00     0.162 C 
BRANCH  24  25
HETATM   25  C   UNL     1     -46.016 -52.890  15.695  1.00  0.00     0.187 C 
BRANCH  25  26
HETATM   26  O   UNL     1     -45.434 -52.908  17.004  1.00  0.00    -0.394 OA
HETATM   27  C   UNL     1     -45.873 -54.034  17.754  1.00  0.00     0.201 C 
ENDBRANCH  25  26
ENDBRANCH  24  25
ENDBRANCH   1  24
TORSDOF 7
ENDMDL
