MODEL 1
REMARK VINA RESULT:      -6.4      0.000      0.000
REMARK  5 active torsions:
REMARK  status: ('A' for Active; 'I' for Inactive)
REMARK    1  A    between atoms: C_6  and  N_7 
REMARK    2  A    between atoms: N_7  and  C_8 
REMARK    3  A    between atoms: C_8  and  C_9 
REMARK    4  A    between atoms: C_9  and  O_11 
REMARK    5  A    between atoms: C_9  and  C_12 
ROOT
HETATM    1  C   UNL     1     -42.590 -51.666  12.647  1.00  0.00     0.312 C 
ENDROOT
BRANCH   1   2
HETATM    2  N   UNL     1     -43.483 -52.740  12.162  1.00  0.00     0.091 N 
HETATM    3  H   UNL     1     -43.742 -52.493  11.206  1.00  0.00     0.316 HD
BRANCH   2   4
HETATM    4  C   UNL     1     -44.731 -52.839  12.950  1.00  0.00     0.224 C 
HETATM    5  C   UNL     1     -45.466 -51.484  13.038  1.00  0.00     0.036 C 
HETATM    6  C   UNL     1     -46.714 -51.540  13.913  1.00  0.00     0.002 C 
HETATM    7  C   UNL     1     -46.409 -52.089  15.299  1.00  0.00     0.005 C 
HETATM    8  C   UNL     1     -45.705 -53.453  15.250  1.00  0.00    -0.013 C 
HETATM    9  C   UNL     1     -46.674 -54.553  14.797  1.00  0.00     0.010 C 
HETATM   10  C   UNL     1     -44.419 -53.359  14.386  1.00  0.00     0.018 C 
HETATM   11  C   UNL     1     -43.649 -54.688  14.404  1.00  0.00     0.012 C 
ENDBRANCH   2   4
ENDBRANCH   1   2
BRANCH   1  12
HETATM   12  C   UNL     1     -41.125 -51.769  12.111  1.00  0.00     0.110 C 
HETATM   13  C   UNL     1     -40.200 -52.435  13.144  1.00  0.00     0.053 C 
BRANCH  12  14
HETATM   14  O   UNL     1     -41.144 -52.610  10.941  1.00  0.00    -0.383 OA
HETATM   15  H   UNL     1     -41.208 -52.009  10.180  1.00  0.00     0.211 HD
ENDBRANCH  12  14
BRANCH  12  16
HETATM   16  C   UNL     1     -40.625 -50.393  11.757  1.00  0.00     0.011 A 
HETATM   17  C   UNL     1     -39.276 -49.966  11.650  1.00  0.00     0.119 A 
HETATM   18  N   UNL     1     -39.163 -48.669  11.357  1.00  0.00    -0.310 N 
HETATM   19  N   UNL     1     -40.439 -48.255  11.268  1.00  0.00    -0.307 N 
ATOM     20  HN  UNL     1     -38.311 -48.122  11.232  1.00  0.00     0.186 HD
HETATM   21  C   UNL     1     -40.734 -46.873  10.980  1.00  0.00     0.177 C 
HETATM   22  C   UNL     1     -41.346 -49.247  11.493  1.00  0.00     0.121 A 
ENDBRANCH  12  16
ENDBRANCH   1  12
TORSDOF 5
ENDMDL
MODEL 2
REMARK VINA RESULT:      -6.2      2.383      3.801
REMARK  5 active torsions:
REMARK  status: ('A' for Active; 'I' for Inactive)
REMARK    1  A    between atoms: C_6  and  N_7 
REMARK    2  A    between atoms: N_7  and  C_8 
REMARK    3  A    between atoms: C_8  and  C_9 
REMARK    4  A    between atoms: C_9  and  O_11 
REMARK    5  A    between atoms: C_9  and  C_12 
ROOT
HETATM    1  C   UNL     1     -41.929 -49.880  12.128  1.00  0.00     0.312 C 
ENDROOT
BRANCH   1   2
HETATM    2  N   UNL     1     -41.997 -51.339  11.896  1.00  0.00     0.091 N 
HETATM    3  H   UNL     1     -42.942 -51.538  11.568  1.00  0.00     0.316 HD
BRANCH   2   4
HETATM    4  C   UNL     1     -41.780 -52.121  13.133  1.00  0.00     0.224 C 
HETATM    5  C   UNL     1     -40.281 -52.249  13.478  1.00  0.00     0.036 C 
HETATM    6  C   UNL     1     -40.024 -53.119  14.703  1.00  0.00     0.002 C 
HETATM    7  C   UNL     1     -40.673 -54.489  14.570  1.00  0.00     0.005 C 
HETATM    8  C   UNL     1     -42.174 -54.401  14.258  1.00  0.00    -0.013 C 
HETATM    9  C   UNL     1     -42.961 -53.914  15.482  1.00  0.00     0.010 C 
HETATM   10  C   UNL     1     -42.405 -53.542  12.985  1.00  0.00     0.018 C 
HETATM   11  C   UNL     1     -43.891 -53.521  12.600  1.00  0.00     0.012 C 
ENDBRANCH   2   4
ENDBRANCH   1   2
BRANCH   1  12
HETATM   12  C   UNL     1     -40.844 -49.151  11.272  1.00  0.00     0.110 C 
HETATM   13  C   UNL     1     -39.626 -48.767  12.128  1.00  0.00     0.053 C 
BRANCH  12  14
HETATM   14  O   UNL     1     -40.390 -50.072  10.262  1.00  0.00    -0.383 OA
HETATM   15  H   UNL     1     -41.086 -50.745  10.180  1.00  0.00     0.211 HD
ENDBRANCH  12  14
BRANCH  12  16
HETATM   16  C   UNL     1     -41.450 -47.930  10.632  1.00  0.00     0.011 A 
HETATM   17  C   UNL     1     -40.943 -46.605  10.646  1.00  0.00     0.119 A 
HETATM   18  N   UNL     1     -41.737 -45.737  10.017  1.00  0.00    -0.310 N 
HETATM   19  N   UNL     1     -42.758 -46.499   9.589  1.00  0.00    -0.307 N 
ATOM     20  HN  UNL     1     -41.602 -44.734   9.892  1.00  0.00     0.186 HD
HETATM   21  C   UNL     1     -43.856 -45.902   8.868  1.00  0.00     0.177 C 
HETATM   22  C   UNL     1     -42.630 -47.814   9.925  1.00  0.00     0.121 A 
ENDBRANCH  12  16
ENDBRANCH   1  12
TORSDOF 5
ENDMDL
MODEL 3
REMARK VINA RESULT:      -6.1      1.846      2.492
REMARK  5 active torsions:
REMARK  status: ('A' for Active; 'I' for Inactive)
REMARK    1  A    between atoms: C_6  and  N_7 
REMARK    2  A    between atoms: N_7  and  C_8 
REMARK    3  A    between atoms: C_8  and  C_9 
REMARK    4  A    between atoms: C_9  and  O_11 
REMARK    5  A    between atoms: C_9  and  C_12 
ROOT
HETATM    1  C   UNL     1     -41.744 -54.308  13.438  1.00  0.00     0.312 C 
ENDROOT
BRANCH   1   2
HETATM    2  N   UNL     1     -42.733 -54.082  14.514  1.00  0.00     0.091 N 
HETATM    3  H   UNL     1     -43.212 -54.971  14.660  1.00  0.00     0.316 HD
BRANCH   2   4
HETATM    4  C   UNL     1     -43.756 -53.080  14.144  1.00  0.00     0.224 C 
HETATM    5  C   UNL     1     -43.578 -51.760  14.925  1.00  0.00     0.036 C 
HETATM    6  C   UNL     1     -44.668 -50.738  14.622  1.00  0.00     0.002 C 
HETATM    7  C   UNL     1     -46.060 -51.315  14.834  1.00  0.00     0.005 C 
HETATM    8  C   UNL     1     -46.285 -52.614  14.047  1.00  0.00    -0.013 C 
HETATM    9  C   UNL     1     -46.402 -52.330  12.544  1.00  0.00     0.010 C 
HETATM   10  C   UNL     1     -45.184 -53.650  14.402  1.00  0.00     0.018 C 
HETATM   11  C   UNL     1     -45.446 -54.990  13.698  1.00  0.00     0.012 C 
ENDBRANCH   2   4
ENDBRANCH   1   2
BRANCH   1  12
HETATM   12  C   UNL     1     -40.361 -53.628  13.696  1.00  0.00     0.110 C 
HETATM   13  C   UNL     1     -40.147 -53.351  15.193  1.00  0.00     0.053 C 
BRANCH  12  14
HETATM   14  O   UNL     1     -39.335 -54.547  13.274  1.00  0.00    -0.383 OA
HETATM   15  H   UNL     1     -39.446 -55.343  13.821  1.00  0.00     0.211 HD
ENDBRANCH  12  14
BRANCH  12  16
HETATM   16  C   UNL     1     -40.276 -52.351  12.901  1.00  0.00     0.011 A 
HETATM   17  C   UNL     1     -41.102 -51.950  11.819  1.00  0.00     0.119 A 
HETATM   18  N   UNL     1     -40.743 -50.775  11.299  1.00  0.00    -0.310 N 
HETATM   19  N   UNL     1     -39.688 -50.410  12.047  1.00  0.00    -0.307 N 
ATOM     20  HN  UNL     1     -41.168 -50.274  10.519  1.00  0.00     0.186 HD
HETATM   21  C   UNL     1     -38.996 -49.175  11.769  1.00  0.00     0.177 C 
HETATM   22  C   UNL     1     -39.374 -51.313  13.018  1.00  0.00     0.121 A 
ENDBRANCH  12  16
ENDBRANCH   1  12
TORSDOF 5
ENDMDL
MODEL 4
REMARK VINA RESULT:      -6.1      2.091      2.818
REMARK  5 active torsions:
REMARK  status: ('A' for Active; 'I' for Inactive)
REMARK    1  A    between atoms: C_6  and  N_7 
REMARK    2  A    between atoms: N_7  and  C_8 
REMARK    3  A    between atoms: C_8  and  C_9 
REMARK    4  A    between atoms: C_9  and  O_11 
REMARK    5  A    between atoms: C_9  and  C_12 
ROOT
HETATM    1  C   UNL     1     -41.489 -50.331  12.448  1.00  0.00     0.312 C 
ENDROOT
BRANCH   1   2
HETATM    2  N   UNL     1     -42.056 -51.559  11.852  1.00  0.00     0.091 N 
HETATM    3  H   UNL     1     -42.438 -51.293  10.944  1.00  0.00     0.316 HD
BRANCH   2   4
HETATM    4  C   UNL     1     -43.165 -52.120  12.655  1.00  0.00     0.224 C 
HETATM    5  C   UNL     1     -44.029 -51.013  13.296  1.00  0.00     0.036 C 
HETATM    6  C   UNL     1     -45.131 -51.563  14.195  1.00  0.00     0.002 C 
HETATM    7  C   UNL     1     -44.579 -52.508  15.252  1.00  0.00     0.005 C 
HETATM    8  C   UNL     1     -43.739 -53.642  14.648  1.00  0.00    -0.013 C 
HETATM    9  C   UNL     1     -44.631 -54.650  13.910  1.00  0.00     0.010 C 
HETATM   10  C   UNL     1     -42.602 -53.054  13.768  1.00  0.00     0.018 C 
HETATM   11  C   UNL     1     -41.693 -54.169  13.233  1.00  0.00     0.012 C 
ENDBRANCH   2   4
ENDBRANCH   1   2
BRANCH   1  12
HETATM   12  C   UNL     1     -40.919 -49.322  11.400  1.00  0.00     0.110 C 
HETATM   13  C   UNL     1     -39.699 -48.569  11.957  1.00  0.00     0.053 C 
BRANCH  12  14
HETATM   14  O   UNL     1     -40.475 -50.079  10.257  1.00  0.00    -0.383 OA
HETATM   15  H   UNL     1     -40.104 -49.432   9.634  1.00  0.00     0.211 HD
ENDBRANCH  12  14
BRANCH  12  16
HETATM   16  C   UNL     1     -42.002 -48.355  10.997  1.00  0.00     0.011 A 
HETATM   17  C   UNL     1     -42.999 -47.781  11.826  1.00  0.00     0.119 A 
HETATM   18  N   UNL     1     -43.840 -46.990  11.158  1.00  0.00    -0.310 N 
HETATM   19  N   UNL     1     -43.383 -47.044   9.894  1.00  0.00    -0.307 N 
ATOM     20  HN  UNL     1     -44.638 -46.467  11.519  1.00  0.00     0.186 HD
HETATM   21  C   UNL     1     -44.061 -46.318   8.848  1.00  0.00     0.177 C 
HETATM   22  C   UNL     1     -42.287 -47.840   9.748  1.00  0.00     0.121 A 
ENDBRANCH  12  16
ENDBRANCH   1  12
TORSDOF 5
ENDMDL
MODEL 5
REMARK VINA RESULT:      -6.0      0.726      1.860
REMARK  5 active torsions:
REMARK  status: ('A' for Active; 'I' for Inactive)
REMARK    1  A    between atoms: C_6  and  N_7 
REMARK    2  A    between atoms: N_7  and  C_8 
REMARK    3  A    between atoms: C_8  and  C_9 
REMARK    4  A    between atoms: C_9  and  O_11 
REMARK    5  A    between atoms: C_9  and  C_12 
ROOT
HETATM    1  C   UNL     1     -42.631 -51.227  12.716  1.00  0.00     0.312 C 
ENDROOT
BRANCH   1   2
HETATM    2  N   UNL     1     -43.607 -52.312  12.479  1.00  0.00     0.091 N 
HETATM    3  H   UNL     1     -44.220 -51.994  11.728  1.00  0.00     0.316 HD
BRANCH   2   4
HETATM    4  C   UNL     1     -44.454 -52.582  13.662  1.00  0.00     0.224 C 
HETATM    5  C   UNL     1     -43.980 -53.831  14.436  1.00  0.00     0.036 C 
HETATM    6  C   UNL     1     -44.884 -54.179  15.614  1.00  0.00     0.002 C 
HETATM    7  C   UNL     1     -46.338 -54.319  15.189  1.00  0.00     0.005 C 
HETATM    8  C   UNL     1     -46.854 -53.081  14.441  1.00  0.00    -0.013 C 
HETATM    9  C   UNL     1     -47.029 -51.895  15.400  1.00  0.00     0.010 C 
HETATM   10  C   UNL     1     -45.939 -52.771  13.226  1.00  0.00     0.018 C 
HETATM   11  C   UNL     1     -46.492 -51.594  12.409  1.00  0.00     0.012 C 
ENDBRANCH   2   4
ENDBRANCH   1   2
BRANCH   1  12
HETATM   12  C   UNL     1     -41.191 -51.545  12.201  1.00  0.00     0.110 C 
HETATM   13  C   UNL     1     -40.389 -52.340  13.245  1.00  0.00     0.053 C 
BRANCH  12  14
HETATM   14  O   UNL     1     -41.316 -52.373  11.028  1.00  0.00    -0.383 OA
HETATM   15  H   UNL     1     -41.886 -53.116  11.285  1.00  0.00     0.211 HD
ENDBRANCH  12  14
BRANCH  12  16
HETATM   16  C   UNL     1     -40.487 -50.258  11.858  1.00  0.00     0.011 A 
HETATM   17  C   UNL     1     -39.093 -50.053  11.691  1.00  0.00     0.119 A 
HETATM   18  N   UNL     1     -38.781 -48.783  11.428  1.00  0.00    -0.310 N 
HETATM   19  N   UNL     1     -39.974 -48.163  11.417  1.00  0.00    -0.307 N 
ATOM     20  HN  UNL     1     -37.858 -48.378  11.273  1.00  0.00     0.186 HD
HETATM   21  C   UNL     1     -40.050 -46.742  11.182  1.00  0.00     0.177 C 
HETATM   22  C   UNL     1     -41.021 -49.000  11.662  1.00  0.00     0.121 A 
ENDBRANCH  12  16
ENDBRANCH   1  12
TORSDOF 5
ENDMDL
MODEL 6
REMARK VINA RESULT:      -6.0      1.918      2.938
REMARK  5 active torsions:
REMARK  status: ('A' for Active; 'I' for Inactive)
REMARK    1  A    between atoms: C_6  and  N_7 
REMARK    2  A    between atoms: N_7  and  C_8 
REMARK    3  A    between atoms: C_8  and  C_9 
REMARK    4  A    between atoms: C_9  and  O_11 
REMARK    5  A    between atoms: C_9  and  C_12 
ROOT
HETATM    1  C   UNL     1     -41.323 -54.213  14.281  1.00  0.00     0.312 C 
ENDROOT
BRANCH   1   2
HETATM    2  N   UNL     1     -42.104 -53.460  15.284  1.00  0.00     0.091 N 
HETATM    3  H   UNL     1     -42.099 -54.019  16.138  1.00  0.00     0.316 HD
BRANCH   2   4
HETATM    4  C   UNL     1     -43.516 -53.274  14.883  1.00  0.00     0.224 C 
HETATM    5  C   UNL     1     -44.047 -54.476  14.073  1.00  0.00     0.036 C 
HETATM    6  C   UNL     1     -45.474 -54.276  13.577  1.00  0.00     0.002 C 
HETATM    7  C   UNL     1     -45.625 -52.980  12.794  1.00  0.00     0.005 C 
HETATM    8  C   UNL     1     -45.135 -51.756  13.582  1.00  0.00    -0.013 C 
HETATM    9  C   UNL     1     -46.098 -51.421  14.728  1.00  0.00     0.010 C 
HETATM   10  C   UNL     1     -43.667 -51.970  14.042  1.00  0.00     0.018 C 
HETATM   11  C   UNL     1     -43.127 -50.718  14.748  1.00  0.00     0.012 C 
ENDBRANCH   2   4
ENDBRANCH   1   2
BRANCH   1  12
HETATM   12  C   UNL     1     -39.933 -53.579  13.952  1.00  0.00     0.110 C 
HETATM   13  C   UNL     1     -39.191 -53.169  15.235  1.00  0.00     0.053 C 
BRANCH  12  14
HETATM   14  O   UNL     1     -39.137 -54.583  13.293  1.00  0.00    -0.383 OA
HETATM   15  H   UNL     1     -39.543 -54.718  12.421  1.00  0.00     0.211 HD
ENDBRANCH  12  14
BRANCH  12  16
HETATM   16  C   UNL     1     -40.127 -52.391  13.047  1.00  0.00     0.011 A 
HETATM   17  C   UNL     1     -40.909 -52.324  11.864  1.00  0.00     0.119 A 
HETATM   18  N   UNL     1     -40.844 -51.135  11.264  1.00  0.00    -0.310 N 
HETATM   19  N   UNL     1     -40.025 -50.426  12.061  1.00  0.00    -0.307 N 
ATOM     20  HN  UNL     1     -41.305 -50.835  10.405  1.00  0.00     0.186 HD
HETATM   21  C   UNL     1     -39.687 -49.065  11.724  1.00  0.00     0.177 C 
HETATM   22  C   UNL     1     -39.577 -51.129  13.139  1.00  0.00     0.121 A 
ENDBRANCH  12  16
ENDBRANCH   1  12
TORSDOF 5
ENDMDL
MODEL 7
REMARK VINA RESULT:      -5.8      1.419      2.362
REMARK  5 active torsions:
REMARK  status: ('A' for Active; 'I' for Inactive)
REMARK    1  A    between atoms: C_6  and  N_7 
REMARK    2  A    between atoms: N_7  and  C_8 
REMARK    3  A    between atoms: C_8  and  C_9 
REMARK    4  A    between atoms: C_9  and  O_11 
REMARK    5  A    between atoms: C_9  and  C_12 
ROOT
HETATM    1  C   UNL     1     -43.131 -50.328  13.236  1.00  0.00     0.312 C 
ENDROOT
BRANCH   1   2
HETATM    2  N   UNL     1     -44.175 -51.219  12.687  1.00  0.00     0.091 N 
HETATM    3  H   UNL     1     -45.026 -50.660  12.616  1.00  0.00     0.316 HD
BRANCH   2   4
HETATM    4  C   UNL     1     -44.468 -52.366  13.575  1.00  0.00     0.224 C 
HETATM    5  C   UNL     1     -43.805 -53.666  13.072  1.00  0.00     0.036 C 
HETATM    6  C   UNL     1     -44.157 -54.881  13.924  1.00  0.00     0.002 C 
HETATM    7  C   UNL     1     -45.662 -55.054  14.069  1.00  0.00     0.005 C 
HETATM    8  C   UNL     1     -46.351 -53.788  14.598  1.00  0.00    -0.013 C 
HETATM    9  C   UNL     1     -46.022 -53.563  16.080  1.00  0.00     0.010 C 
HETATM   10  C   UNL     1     -46.008 -52.575  13.692  1.00  0.00     0.018 C 
HETATM   11  C   UNL     1     -46.765 -51.319  14.147  1.00  0.00     0.012 C 
ENDBRANCH   2   4
ENDBRANCH   1   2
BRANCH   1  12
HETATM   12  C   UNL     1     -41.802 -50.326  12.414  1.00  0.00     0.110 C 
HETATM   13  C   UNL     1     -40.579 -50.491  13.331  1.00  0.00     0.053 C 
BRANCH  12  14
HETATM   14  O   UNL     1     -41.833 -51.460  11.526  1.00  0.00    -0.383 OA
HETATM   15  H   UNL     1     -42.392 -51.197  10.775  1.00  0.00     0.211 HD
ENDBRANCH  12  14
BRANCH  12  16
HETATM   16  C   UNL     1     -41.705 -49.047  11.624  1.00  0.00     0.011 A 
HETATM   17  C   UNL     1     -40.527 -48.352  11.246  1.00  0.00     0.119 A 
HETATM   18  N   UNL     1     -40.779 -47.223  10.582  1.00  0.00    -0.310 N 
HETATM   19  N   UNL     1     -42.122 -47.188  10.522  1.00  0.00    -0.307 N 
ATOM     20  HN  UNL     1     -40.113 -46.548  10.208  1.00  0.00     0.186 HD
HETATM   21  C   UNL     1     -42.790 -46.080   9.883  1.00  0.00     0.177 C 
HETATM   22  C   UNL     1     -42.719 -48.255  11.124  1.00  0.00     0.121 A 
ENDBRANCH  12  16
ENDBRANCH   1  12
TORSDOF 5
ENDMDL
MODEL 8
REMARK VINA RESULT:      -5.6      1.639      2.269
REMARK  5 active torsions:
REMARK  status: ('A' for Active; 'I' for Inactive)
REMARK    1  A    between atoms: C_6  and  N_7 
REMARK    2  A    between atoms: N_7  and  C_8 
REMARK    3  A    between atoms: C_8  and  C_9 
REMARK    4  A    between atoms: C_9  and  O_11 
REMARK    5  A    between atoms: C_9  and  C_12 
ROOT
HETATM    1  C   UNL     1     -41.867 -52.556  13.423  1.00  0.00     0.312 C 
ENDROOT
BRANCH   1   2
HETATM    2  N   UNL     1     -42.445 -52.574  14.784  1.00  0.00     0.091 N 
HETATM    3  H   UNL     1     -42.088 -53.414  15.241  1.00  0.00     0.316 HD
BRANCH   2   4
HETATM    4  C   UNL     1     -43.921 -52.666  14.772  1.00  0.00     0.224 C 
HETATM    5  C   UNL     1     -44.426 -53.700  13.743  1.00  0.00     0.036 C 
HETATM    6  C   UNL     1     -45.947 -53.757  13.653  1.00  0.00     0.002 C 
HETATM    7  C   UNL     1     -46.550 -52.385  13.391  1.00  0.00     0.005 C 
HETATM    8  C   UNL     1     -46.095 -51.336  14.416  1.00  0.00    -0.013 C 
HETATM    9  C   UNL     1     -46.740 -51.592  15.784  1.00  0.00     0.010 C 
HETATM   10  C   UNL     1     -44.544 -51.271  14.460  1.00  0.00     0.018 C 
HETATM   11  C   UNL     1     -44.069 -50.161  15.409  1.00  0.00     0.012 C 
ENDBRANCH   2   4
ENDBRANCH   1   2
BRANCH   1  12
HETATM   12  C   UNL     1     -40.659 -51.577  13.260  1.00  0.00     0.110 C 
HETATM   13  C   UNL     1     -40.257 -50.959  14.610  1.00  0.00     0.053 C 
BRANCH  12  14
HETATM   14  O   UNL     1     -39.536 -52.342  12.782  1.00  0.00    -0.383 OA
HETATM   15  H   UNL     1     -39.000 -52.550  13.566  1.00  0.00     0.211 HD
ENDBRANCH  12  14
BRANCH  12  16
HETATM   16  C   UNL     1     -41.018 -50.501  12.268  1.00  0.00     0.011 A 
HETATM   17  C   UNL     1     -40.244 -50.046  11.170  1.00  0.00     0.119 A 
HETATM   18  N   UNL     1     -40.826 -49.049  10.501  1.00  0.00    -0.310 N 
HETATM   19  N   UNL     1     -41.982 -48.861  11.162  1.00  0.00    -0.307 N 
ATOM     20  HN  UNL     1     -40.477 -48.548   9.684  1.00  0.00     0.186 HD
HETATM   21  C   UNL     1     -42.896 -47.828  10.741  1.00  0.00     0.177 C 
HETATM   22  C   UNL     1     -42.145 -49.705  12.219  1.00  0.00     0.121 A 
ENDBRANCH  12  16
ENDBRANCH   1  12
TORSDOF 5
ENDMDL
MODEL 9
REMARK VINA RESULT:      -5.6      2.918      6.835
REMARK  5 active torsions:
REMARK  status: ('A' for Active; 'I' for Inactive)
REMARK    1  A    between atoms: C_6  and  N_7 
REMARK    2  A    between atoms: N_7  and  C_8 
REMARK    3  A    between atoms: C_8  and  C_9 
REMARK    4  A    between atoms: C_9  and  O_11 
REMARK    5  A    between atoms: C_9  and  C_12 
ROOT
HETATM    1  C   UNL     1     -39.906 -51.428  12.516  1.00  0.00     0.312 C 
ENDROOT
BRANCH   1   2
HETATM    2  N   UNL     1     -40.082 -50.516  11.366  1.00  0.00     0.091 N 
HETATM    3  H   UNL     1     -39.424 -50.822  10.648  1.00  0.00     0.316 HD
BRANCH   2   4
HETATM    4  C   UNL     1     -39.756 -49.112  11.700  1.00  0.00     0.224 C 
HETATM    5  C   UNL     1     -39.077 -48.991  13.081  1.00  0.00     0.036 C 
HETATM    6  C   UNL     1     -38.804 -47.547  13.486  1.00  0.00     0.002 C 
HETATM    7  C   UNL     1     -40.060 -46.692  13.417  1.00  0.00     0.005 C 
HETATM    8  C   UNL     1     -40.746 -46.763  12.045  1.00  0.00    -0.013 C 
HETATM    9  C   UNL     1     -39.927 -46.016  10.984  1.00  0.00     0.010 C 
HETATM   10  C   UNL     1     -41.048 -48.240  11.675  1.00  0.00     0.018 C 
HETATM   11  C   UNL     1     -41.821 -48.326  10.351  1.00  0.00     0.012 C 
ENDBRANCH   2   4
ENDBRANCH   1   2
BRANCH   1  12
HETATM   12  C   UNL     1     -40.826 -52.691  12.470  1.00  0.00     0.110 C 
HETATM   13  C   UNL     1     -42.312 -52.299  12.503  1.00  0.00     0.053 C 
BRANCH  12  14
HETATM   14  O   UNL     1     -40.584 -53.365  11.220  1.00  0.00    -0.383 OA
HETATM   15  H   UNL     1     -41.122 -52.901  10.556  1.00  0.00     0.211 HD
ENDBRANCH  12  14
BRANCH  12  16
HETATM   16  C   UNL     1     -40.489 -53.597  13.625  1.00  0.00     0.011 A 
HETATM   17  C   UNL     1     -41.378 -54.128  14.594  1.00  0.00     0.119 A 
HETATM   18  N   UNL     1     -40.761 -54.869  15.516  1.00  0.00    -0.310 N 
HETATM   19  N   UNL     1     -39.470 -54.824  15.142  1.00  0.00    -0.307 N 
ATOM     20  HN  UNL     1     -41.170 -55.353  16.315  1.00  0.00     0.186 HD
HETATM   21  C   UNL     1     -38.466 -55.504  15.922  1.00  0.00     0.177 C 
HETATM   22  C   UNL     1     -39.258 -54.084  14.018  1.00  0.00     0.121 A 
ENDBRANCH  12  16
ENDBRANCH   1  12
TORSDOF 5
ENDMDL
