MODEL 1
REMARK VINA RESULT:      -6.5      0.000      0.000
REMARK  6 active torsions:
REMARK  status: ('A' for Active; 'I' for Inactive)
REMARK    1  A    between atoms: N_7  and  C_8 
REMARK    2  A    between atoms: C_8  and  C_9 
REMARK    3  A    between atoms: C_9  and  O_10 
REMARK    4  A    between atoms: C_9  and  C_11 
REMARK    5  A    between atoms: C_11  and  O_12 
REMARK    6  A    between atoms: O_12  and  C_13 
ROOT
HETATM    1  C   UNL     1     -41.104 -50.724  11.533  1.00  0.00     0.162 C 
ENDROOT
BRANCH   1   2
HETATM    2  C   UNL     1     -41.835 -49.624  12.315  1.00  0.00     0.186 C 
BRANCH   2   3
HETATM    3  N   UNL     1     -42.032 -48.380  11.580  1.00  0.00    -0.255 N 
HETATM    4  C   UNL     1     -41.486 -47.195  12.057  1.00  0.00     0.262 A 
HETATM    5  C   UNL     1     -41.596 -46.025  11.162  1.00  0.00     0.078 A 
HETATM    6  O   UNL     1     -40.922 -47.065  13.141  1.00  0.00    -0.267 OA
HETATM    7  C   UNL     1     -42.243 -46.114   9.997  1.00  0.00     0.031 A 
HETATM    8  C   UNL     1     -42.849 -47.420   9.670  1.00  0.00     0.022 A 
HETATM    9  C   UNL     1     -43.654 -47.520   8.401  1.00  0.00     0.069 C 
HETATM   10  N   UNL     1     -42.742 -48.481  10.405  1.00  0.00    -0.300 N 
ATOM     11  HN  UNL     1     -43.169 -49.362  10.122  1.00  0.00     0.187 HD
ENDBRANCH   2   3
ENDBRANCH   1   2
BRANCH   1  12
HETATM   12  O   UNL     1     -40.353 -50.095  10.476  1.00  0.00    -0.392 OA
HETATM   13  H   UNL     1     -40.935 -50.018   9.700  1.00  0.00     0.210 HD
ENDBRANCH   1  12
BRANCH   1  14
HETATM   14  C   UNL     1     -40.175 -51.534  12.450  1.00  0.00     0.209 C 
BRANCH  14  15
HETATM   15  O   UNL     1     -40.386 -52.930  12.253  1.00  0.00    -0.348 OA
BRANCH  15  16
HETATM   16  C   UNL     1     -41.064 -53.607  13.267  1.00  0.00     0.081 A 
HETATM   17  C   UNL     1     -40.208 -54.031  14.300  1.00  0.00     0.038 A 
HETATM   18  C   UNL     1     -40.689 -54.731  15.402  1.00  0.00     0.005 A 
HETATM   19  C   UNL     1     -42.045 -55.031  15.515  1.00  0.00     0.030 A 
HETATM   20  C   UNL     1     -42.898 -54.601  14.491  1.00  0.00     0.045 A 
HETATM   21  N   UNL     1     -44.261 -54.759  14.380  1.00  0.00    -0.365 N 
HETATM   22  C   UNL     1     -42.454 -53.894  13.363  1.00  0.00     0.025 A 
HETATM   23  C   UNL     1     -44.715 -54.185  13.230  1.00  0.00     0.089 A 
HETATM   24  H   UNL     1     -44.838 -55.234  15.062  1.00  0.00     0.165 HD
HETATM   25  C   UNL     1     -43.627 -53.650  12.579  1.00  0.00     0.033 A 
ENDBRANCH  15  16
ENDBRANCH  14  15
ENDBRANCH   1  14
TORSDOF 6
ENDMDL
MODEL 2
REMARK VINA RESULT:      -6.5      3.445      4.813
REMARK  6 active torsions:
REMARK  status: ('A' for Active; 'I' for Inactive)
REMARK    1  A    between atoms: N_7  and  C_8 
REMARK    2  A    between atoms: C_8  and  C_9 
REMARK    3  A    between atoms: C_9  and  O_10 
REMARK    4  A    between atoms: C_9  and  C_11 
REMARK    5  A    between atoms: C_11  and  O_12 
REMARK    6  A    between atoms: O_12  and  C_13 
ROOT
HETATM    1  C   UNL     1     -41.813 -52.789  11.934  1.00  0.00     0.162 C 
ENDROOT
BRANCH   1   2
HETATM    2  C   UNL     1     -41.565 -51.372  12.471  1.00  0.00     0.186 C 
BRANCH   2   3
HETATM    3  N   UNL     1     -40.177 -51.083  12.814  1.00  0.00    -0.255 N 
HETATM    4  C   UNL     1     -39.726 -51.272  14.114  1.00  0.00     0.262 A 
HETATM    5  C   UNL     1     -38.272 -51.113  14.324  1.00  0.00     0.078 A 
HETATM    6  O   UNL     1     -40.438 -51.568  15.070  1.00  0.00    -0.267 OA
HETATM    7  C   UNL     1     -37.472 -50.746  13.321  1.00  0.00     0.031 A 
HETATM    8  C   UNL     1     -38.115 -50.493  12.016  1.00  0.00     0.022 A 
HETATM    9  C   UNL     1     -37.243 -49.998  10.891  1.00  0.00     0.069 C 
HETATM   10  N   UNL     1     -39.377 -50.660  11.777  1.00  0.00    -0.300 N 
ATOM     11  HN  UNL     1     -39.765 -50.483  10.850  1.00  0.00     0.187 HD
ENDBRANCH   2   3
ENDBRANCH   1   2
BRANCH   1  12
HETATM   12  O   UNL     1     -40.553 -53.319  11.477  1.00  0.00    -0.392 OA
HETATM   13  H   UNL     1     -40.711 -53.784  10.638  1.00  0.00     0.210 HD
ENDBRANCH   1  12
BRANCH   1  14
HETATM   14  C   UNL     1     -42.423 -53.693  13.015  1.00  0.00     0.209 C 
BRANCH  14  15
HETATM   15  O   UNL     1     -43.788 -53.970  12.711  1.00  0.00    -0.348 OA
BRANCH  15  16
HETATM   16  C   UNL     1     -44.743 -53.253  13.432  1.00  0.00     0.081 A 
HETATM   17  C   UNL     1     -45.478 -52.367  12.622  1.00  0.00     0.038 A 
HETATM   18  C   UNL     1     -46.475 -51.554  13.153  1.00  0.00     0.005 A 
HETATM   19  C   UNL     1     -46.778 -51.600  14.512  1.00  0.00     0.030 A 
HETATM   20  C   UNL     1     -46.053 -52.488  15.316  1.00  0.00     0.045 A 
HETATM   21  N   UNL     1     -46.174 -52.725  16.667  1.00  0.00    -0.365 N 
HETATM   22  C   UNL     1     -45.039 -53.323  14.822  1.00  0.00     0.025 A 
HETATM   23  C   UNL     1     -45.282 -53.676  17.064  1.00  0.00     0.089 A 
HETATM   24  H   UNL     1     -46.835 -52.255  17.271  1.00  0.00     0.165 HD
HETATM   25  C   UNL     1     -44.566 -54.060  15.955  1.00  0.00     0.033 A 
ENDBRANCH  15  16
ENDBRANCH  14  15
ENDBRANCH   1  14
TORSDOF 6
ENDMDL
MODEL 3
REMARK VINA RESULT:      -6.5      2.026      6.987
REMARK  6 active torsions:
REMARK  status: ('A' for Active; 'I' for Inactive)
REMARK    1  A    between atoms: N_7  and  C_8 
REMARK    2  A    between atoms: C_8  and  C_9 
REMARK    3  A    between atoms: C_9  and  O_10 
REMARK    4  A    between atoms: C_9  and  C_11 
REMARK    5  A    between atoms: C_11  and  O_12 
REMARK    6  A    between atoms: O_12  and  C_13 
ROOT
HETATM    1  C   UNL     1     -40.840 -51.622  12.029  1.00  0.00     0.162 C 
ENDROOT
BRANCH   1   2
HETATM    2  C   UNL     1     -41.713 -51.574  13.291  1.00  0.00     0.186 C 
BRANCH   2   3
HETATM    3  N   UNL     1     -42.934 -52.369  13.220  1.00  0.00    -0.255 N 
HETATM    4  C   UNL     1     -42.909 -53.718  13.550  1.00  0.00     0.262 A 
HETATM    5  C   UNL     1     -44.221 -54.395  13.608  1.00  0.00     0.078 A 
HETATM    6  O   UNL     1     -41.894 -54.362  13.800  1.00  0.00    -0.267 OA
HETATM    7  C   UNL     1     -45.342 -53.740  13.297  1.00  0.00     0.031 A 
HETATM    8  C   UNL     1     -45.196 -52.332  12.877  1.00  0.00     0.022 A 
HETATM    9  C   UNL     1     -46.439 -51.600  12.441  1.00  0.00     0.069 C 
HETATM   10  N   UNL     1     -44.073 -51.689  12.851  1.00  0.00    -0.300 N 
ATOM     11  HN  UNL     1     -44.033 -50.711  12.566  1.00  0.00     0.187 HD
ENDBRANCH   2   3
ENDBRANCH   1   2
BRANCH   1  12
HETATM   12  O   UNL     1     -41.453 -52.535  11.098  1.00  0.00    -0.392 OA
HETATM   13  H   UNL     1     -40.848 -52.644  10.343  1.00  0.00     0.210 HD
ENDBRANCH   1  12
BRANCH   1  14
HETATM   14  C   UNL     1     -40.692 -50.226  11.403  1.00  0.00     0.209 C 
BRANCH  14  15
HETATM   15  O   UNL     1     -41.909 -49.497  11.538  1.00  0.00    -0.348 OA
BRANCH  15  16
HETATM   16  C   UNL     1     -41.896 -48.176  11.090  1.00  0.00     0.081 A 
HETATM   17  C   UNL     1     -40.689 -47.516  11.389  1.00  0.00     0.038 A 
HETATM   18  C   UNL     1     -40.479 -46.187  11.033  1.00  0.00     0.005 A 
HETATM   19  C   UNL     1     -41.466 -45.469  10.360  1.00  0.00     0.030 A 
HETATM   20  C   UNL     1     -42.663 -46.129  10.054  1.00  0.00     0.045 A 
HETATM   21  N   UNL     1     -43.769 -45.647   9.391  1.00  0.00    -0.365 N 
HETATM   22  C   UNL     1     -42.916 -47.466  10.397  1.00  0.00     0.025 A 
HETATM   23  C   UNL     1     -44.723 -46.615   9.292  1.00  0.00     0.089 A 
HETATM   24  H   UNL     1     -43.853 -44.705   9.032  1.00  0.00     0.165 HD
HETATM   25  C   UNL     1     -44.232 -47.743   9.906  1.00  0.00     0.033 A 
ENDBRANCH  15  16
ENDBRANCH  14  15
ENDBRANCH   1  14
TORSDOF 6
ENDMDL
MODEL 4
REMARK VINA RESULT:      -6.4      2.383      3.313
REMARK  6 active torsions:
REMARK  status: ('A' for Active; 'I' for Inactive)
REMARK    1  A    between atoms: N_7  and  C_8 
REMARK    2  A    between atoms: C_8  and  C_9 
REMARK    3  A    between atoms: C_9  and  O_10 
REMARK    4  A    between atoms: C_9  and  C_11 
REMARK    5  A    between atoms: C_11  and  O_12 
REMARK    6  A    between atoms: O_12  and  C_13 
ROOT
HETATM    1  C   UNL     1     -41.140 -50.859  11.678  1.00  0.00     0.162 C 
ENDROOT
BRANCH   1   2
HETATM    2  C   UNL     1     -41.834 -49.851  12.605  1.00  0.00     0.186 C 
BRANCH   2   3
HETATM    3  N   UNL     1     -42.910 -50.407  13.417  1.00  0.00    -0.255 N 
HETATM    4  C   UNL     1     -42.724 -50.609  14.778  1.00  0.00     0.262 A 
HETATM    5  C   UNL     1     -43.921 -51.017  15.542  1.00  0.00     0.078 A 
HETATM    6  O   UNL     1     -41.659 -50.462  15.373  1.00  0.00    -0.267 OA
HETATM    7  C   UNL     1     -45.085 -51.233  14.925  1.00  0.00     0.031 A 
HETATM    8  C   UNL     1     -45.102 -51.063  13.458  1.00  0.00     0.022 A 
HETATM    9  C   UNL     1     -46.383 -51.383  12.732  1.00  0.00     0.069 C 
HETATM   10  N   UNL     1     -44.089 -50.668  12.755  1.00  0.00    -0.300 N 
ATOM     11  HN  UNL     1     -44.162 -50.554  11.744  1.00  0.00     0.187 HD
ENDBRANCH   2   3
ENDBRANCH   1   2
BRANCH   1  12
HETATM   12  O   UNL     1     -40.468 -50.119  10.640  1.00  0.00    -0.392 OA
HETATM   13  H   UNL     1     -41.017 -49.348  10.418  1.00  0.00     0.210 HD
ENDBRANCH   1  12
BRANCH   1  14
HETATM   14  C   UNL     1     -40.144 -51.733  12.454  1.00  0.00     0.209 C 
BRANCH  14  15
HETATM   15  O   UNL     1     -40.507 -53.107  12.342  1.00  0.00    -0.348 OA
BRANCH  15  16
HETATM   16  C   UNL     1     -41.187 -53.661  13.427  1.00  0.00     0.081 A 
HETATM   17  C   UNL     1     -40.370 -53.803  14.563  1.00  0.00     0.038 A 
HETATM   18  C   UNL     1     -40.858 -54.344  15.749  1.00  0.00     0.005 A 
HETATM   19  C   UNL     1     -42.185 -54.760  15.844  1.00  0.00     0.030 A 
HETATM   20  C   UNL     1     -43.001 -54.610  14.716  1.00  0.00     0.045 A 
HETATM   21  N   UNL     1     -44.332 -54.928  14.565  1.00  0.00    -0.365 N 
HETATM   22  C   UNL     1     -42.548 -54.072  13.501  1.00  0.00     0.025 A 
HETATM   23  C   UNL     1     -44.756 -54.618  13.307  1.00  0.00     0.089 A 
HETATM   24  H   UNL     1     -44.907 -55.334  15.291  1.00  0.00     0.165 HD
HETATM   25  C   UNL     1     -43.681 -54.095  12.626  1.00  0.00     0.033 A 
ENDBRANCH  15  16
ENDBRANCH  14  15
ENDBRANCH   1  14
TORSDOF 6
ENDMDL
MODEL 5
REMARK VINA RESULT:      -6.4      1.797      7.408
REMARK  6 active torsions:
REMARK  status: ('A' for Active; 'I' for Inactive)
REMARK    1  A    between atoms: N_7  and  C_8 
REMARK    2  A    between atoms: C_8  and  C_9 
REMARK    3  A    between atoms: C_9  and  O_10 
REMARK    4  A    between atoms: C_9  and  C_11 
REMARK    5  A    between atoms: C_11  and  O_12 
REMARK    6  A    between atoms: O_12  and  C_13 
ROOT
HETATM    1  C   UNL     1     -41.099 -52.480  12.380  1.00  0.00     0.162 C 
ENDROOT
BRANCH   1   2
HETATM    2  C   UNL     1     -42.625 -52.480  12.213  1.00  0.00     0.186 C 
BRANCH   2   3
HETATM    3  N   UNL     1     -43.336 -53.404  13.090  1.00  0.00    -0.255 N 
HETATM    4  C   UNL     1     -44.688 -53.653  12.892  1.00  0.00     0.262 A 
HETATM    5  C   UNL     1     -45.277 -54.725  13.721  1.00  0.00     0.078 A 
HETATM    6  O   UNL     1     -45.402 -53.062  12.086  1.00  0.00    -0.267 OA
HETATM    7  C   UNL     1     -44.545 -55.358  14.641  1.00  0.00     0.031 A 
HETATM    8  C   UNL     1     -43.144 -54.918  14.795  1.00  0.00     0.022 A 
HETATM    9  C   UNL     1     -42.325 -55.561  15.884  1.00  0.00     0.069 C 
HETATM   10  N   UNL     1     -42.576 -54.013  14.064  1.00  0.00    -0.300 N 
ATOM     11  HN  UNL     1     -41.599 -53.759  14.205  1.00  0.00     0.187 HD
ENDBRANCH   2   3
ENDBRANCH   1   2
BRANCH   1  12
HETATM   12  O   UNL     1     -40.551 -53.446  11.461  1.00  0.00    -0.392 OA
HETATM   13  H   UNL     1     -39.592 -53.498  11.619  1.00  0.00     0.210 HD
ENDBRANCH   1  12
BRANCH   1  14
HETATM   14  C   UNL     1     -40.512 -51.085  12.115  1.00  0.00     0.209 C 
BRANCH  14  15
HETATM   15  O   UNL     1     -41.547 -50.181  11.733  1.00  0.00    -0.348 OA
BRANCH  15  16
HETATM   16  C   UNL     1     -41.172 -48.852  11.540  1.00  0.00     0.081 A 
HETATM   17  C   UNL     1     -40.034 -48.497  12.288  1.00  0.00     0.038 A 
HETATM   18  C   UNL     1     -39.504 -47.211  12.241  1.00  0.00     0.005 A 
HETATM   19  C   UNL     1     -40.089 -46.232  11.440  1.00  0.00     0.030 A 
HETATM   20  C   UNL     1     -41.216 -46.588  10.689  1.00  0.00     0.045 A 
HETATM   21  N   UNL     1     -41.955 -45.814   9.822  1.00  0.00    -0.365 N 
HETATM   22  C   UNL     1     -41.783 -47.872  10.709  1.00  0.00     0.025 A 
HETATM   23  C   UNL     1     -42.973 -46.543   9.283  1.00  0.00     0.089 A 
HETATM   24  H   UNL     1     -41.762 -44.843   9.619  1.00  0.00     0.165 HD
HETATM   25  C   UNL     1     -42.898 -47.811   9.813  1.00  0.00     0.033 A 
ENDBRANCH  15  16
ENDBRANCH  14  15
ENDBRANCH   1  14
TORSDOF 6
ENDMDL
MODEL 6
REMARK VINA RESULT:      -6.4      2.236      3.133
REMARK  6 active torsions:
REMARK  status: ('A' for Active; 'I' for Inactive)
REMARK    1  A    between atoms: N_7  and  C_8 
REMARK    2  A    between atoms: C_8  and  C_9 
REMARK    3  A    between atoms: C_9  and  O_10 
REMARK    4  A    between atoms: C_9  and  C_11 
REMARK    5  A    between atoms: C_11  and  O_12 
REMARK    6  A    between atoms: O_12  and  C_13 
ROOT
HETATM    1  C   UNL     1     -41.199 -51.924  11.864  1.00  0.00     0.162 C 
ENDROOT
BRANCH   1   2
HETATM    2  C   UNL     1     -40.054 -50.963  12.215  1.00  0.00     0.186 C 
BRANCH   2   3
HETATM    3  N   UNL     1     -40.309 -49.564  11.890  1.00  0.00    -0.255 N 
HETATM    4  C   UNL     1     -39.486 -48.568  12.400  1.00  0.00     0.262 A 
HETATM    5  C   UNL     1     -39.722 -47.205  11.882  1.00  0.00     0.078 A 
HETATM    6  O   UNL     1     -38.592 -48.747  13.223  1.00  0.00    -0.267 OA
HETATM    7  C   UNL     1     -40.715 -46.962  11.023  1.00  0.00     0.031 A 
HETATM    8  C   UNL     1     -41.562 -48.110  10.643  1.00  0.00     0.022 A 
HETATM    9  C   UNL     1     -42.738 -47.843   9.740  1.00  0.00     0.069 C 
HETATM   10  N   UNL     1     -41.366 -49.327  11.040  1.00  0.00    -0.300 N 
ATOM     11  HN  UNL     1     -41.975 -50.085  10.733  1.00  0.00     0.187 HD
ENDBRANCH   2   3
ENDBRANCH   1   2
BRANCH   1  12
HETATM   12  O   UNL     1     -40.618 -53.149  11.377  1.00  0.00    -0.392 OA
HETATM   13  H   UNL     1     -40.429 -53.716  12.144  1.00  0.00     0.210 HD
ENDBRANCH   1  12
BRANCH   1  14
HETATM   14  C   UNL     1     -42.091 -52.194  13.085  1.00  0.00     0.209 C 
BRANCH  14  15
HETATM   15  O   UNL     1     -43.454 -51.922  12.767  1.00  0.00    -0.348 OA
BRANCH  15  16
HETATM   16  C   UNL     1     -44.410 -52.720  13.395  1.00  0.00     0.081 A 
HETATM   17  C   UNL     1     -44.250 -54.087  13.101  1.00  0.00     0.038 A 
HETATM   18  C   UNL     1     -45.109 -55.049  13.624  1.00  0.00     0.005 A 
HETATM   19  C   UNL     1     -46.158 -54.681  14.464  1.00  0.00     0.030 A 
HETATM   20  C   UNL     1     -46.312 -53.322  14.763  1.00  0.00     0.045 A 
HETATM   21  N   UNL     1     -47.250 -52.716  15.569  1.00  0.00    -0.365 N 
HETATM   22  C   UNL     1     -45.470 -52.320  14.256  1.00  0.00     0.025 A 
HETATM   23  C   UNL     1     -47.048 -51.369  15.603  1.00  0.00     0.089 A 
HETATM   24  H   UNL     1     -47.981 -53.210  16.063  1.00  0.00     0.165 HD
HETATM   25  C   UNL     1     -45.965 -51.092  14.801  1.00  0.00     0.033 A 
ENDBRANCH  15  16
ENDBRANCH  14  15
ENDBRANCH   1  14
TORSDOF 6
ENDMDL
MODEL 7
REMARK VINA RESULT:      -6.2      2.691      4.067
REMARK  6 active torsions:
REMARK  status: ('A' for Active; 'I' for Inactive)
REMARK    1  A    between atoms: N_7  and  C_8 
REMARK    2  A    between atoms: C_8  and  C_9 
REMARK    3  A    between atoms: C_9  and  O_10 
REMARK    4  A    between atoms: C_9  and  C_11 
REMARK    5  A    between atoms: C_11  and  O_12 
REMARK    6  A    between atoms: O_12  and  C_13 
ROOT
HETATM    1  C   UNL     1     -41.223 -51.051  11.798  1.00  0.00     0.162 C 
ENDROOT
BRANCH   1   2
HETATM    2  C   UNL     1     -41.929 -50.048  12.721  1.00  0.00     0.186 C 
BRANCH   2   3
HETATM    3  N   UNL     1     -43.041 -50.599  13.487  1.00  0.00    -0.255 N 
HETATM    4  C   UNL     1     -42.919 -50.785  14.858  1.00  0.00     0.262 A 
HETATM    5  C   UNL     1     -44.150 -51.190  15.569  1.00  0.00     0.078 A 
HETATM    6  O   UNL     1     -41.884 -50.628  15.501  1.00  0.00    -0.267 OA
HETATM    7  C   UNL     1     -45.282 -51.417  14.899  1.00  0.00     0.031 A 
HETATM    8  C   UNL     1     -45.230 -51.264  13.431  1.00  0.00     0.022 A 
HETATM    9  C   UNL     1     -46.474 -51.596  12.649  1.00  0.00     0.069 C 
HETATM   10  N   UNL     1     -44.186 -50.872  12.773  1.00  0.00    -0.300 N 
ATOM     11  HN  UNL     1     -44.211 -50.770  11.759  1.00  0.00     0.187 HD
ENDBRANCH   2   3
ENDBRANCH   1   2
BRANCH   1  12
HETATM   12  O   UNL     1     -40.557 -50.307  10.759  1.00  0.00    -0.392 OA
HETATM   13  H   UNL     1     -40.492 -50.881   9.976  1.00  0.00     0.210 HD
ENDBRANCH   1  12
BRANCH   1  14
HETATM   14  C   UNL     1     -40.218 -51.912  12.579  1.00  0.00     0.209 C 
BRANCH  14  15
HETATM   15  O   UNL     1     -40.541 -53.293  12.437  1.00  0.00    -0.348 OA
BRANCH  15  16
HETATM   16  C   UNL     1     -41.234 -53.882  13.495  1.00  0.00     0.081 A 
HETATM   17  C   UNL     1     -42.601 -54.059  13.214  1.00  0.00     0.038 A 
HETATM   18  C   UNL     1     -43.468 -54.624  14.144  1.00  0.00     0.005 A 
HETATM   19  C   UNL     1     -42.999 -55.038  15.390  1.00  0.00     0.030 A 
HETATM   20  C   UNL     1     -41.637 -54.870  15.665  1.00  0.00     0.045 A 
HETATM   21  N   UNL     1     -40.938 -55.208  16.803  1.00  0.00    -0.365 N 
HETATM   22  C   UNL     1     -40.729 -54.303  14.757  1.00  0.00     0.025 A 
HETATM   23  C   UNL     1     -39.622 -54.884  16.667  1.00  0.00     0.089 A 
HETATM   24  H   UNL     1     -41.352 -55.637  17.620  1.00  0.00     0.165 HD
HETATM   25  C   UNL     1     -39.462 -54.320  15.422  1.00  0.00     0.033 A 
ENDBRANCH  15  16
ENDBRANCH  14  15
ENDBRANCH   1  14
TORSDOF 6
ENDMDL
MODEL 8
REMARK VINA RESULT:      -6.1      2.569      5.881
REMARK  6 active torsions:
REMARK  status: ('A' for Active; 'I' for Inactive)
REMARK    1  A    between atoms: N_7  and  C_8 
REMARK    2  A    between atoms: C_8  and  C_9 
REMARK    3  A    between atoms: C_9  and  O_10 
REMARK    4  A    between atoms: C_9  and  C_11 
REMARK    5  A    between atoms: C_11  and  O_12 
REMARK    6  A    between atoms: O_12  and  C_13 
ROOT
HETATM    1  C   UNL     1     -42.238 -53.541  12.666  1.00  0.00     0.162 C 
ENDROOT
BRANCH   1   2
HETATM    2  C   UNL     1     -43.380 -54.105  13.523  1.00  0.00     0.186 C 
BRANCH   2   3
HETATM    3  N   UNL     1     -44.512 -53.203  13.702  1.00  0.00    -0.255 N 
HETATM    4  C   UNL     1     -44.729 -52.591  14.929  1.00  0.00     0.262 A 
HETATM    5  C   UNL     1     -45.798 -51.571  14.964  1.00  0.00     0.078 A 
HETATM    6  O   UNL     1     -44.099 -52.830  15.956  1.00  0.00    -0.267 OA
HETATM    7  C   UNL     1     -46.537 -51.317  13.882  1.00  0.00     0.031 A 
HETATM    8  C   UNL     1     -46.244 -52.116  12.674  1.00  0.00     0.022 A 
HETATM    9  C   UNL     1     -47.120 -51.904  11.467  1.00  0.00     0.069 C 
HETATM   10  N   UNL     1     -45.292 -52.989  12.587  1.00  0.00    -0.300 N 
ATOM     11  HN  UNL     1     -45.126 -53.502  11.722  1.00  0.00     0.187 HD
ENDBRANCH   2   3
ENDBRANCH   1   2
BRANCH   1  12
HETATM   12  O   UNL     1     -42.816 -52.693  11.655  1.00  0.00    -0.392 OA
HETATM   13  H   UNL     1     -42.098 -52.177  11.250  1.00  0.00     0.210 HD
ENDBRANCH   1  12
BRANCH   1  14
HETATM   14  C   UNL     1     -41.234 -52.756  13.524  1.00  0.00     0.209 C 
BRANCH  14  15
HETATM   15  O   UNL     1     -39.989 -52.639  12.840  1.00  0.00    -0.348 OA
BRANCH  15  16
HETATM   16  C   UNL     1     -39.395 -51.377  12.842  1.00  0.00     0.081 A 
HETATM   17  C   UNL     1     -38.222 -51.332  13.619  1.00  0.00     0.038 A 
HETATM   18  C   UNL     1     -37.484 -50.161  13.756  1.00  0.00     0.005 A 
HETATM   19  C   UNL     1     -37.888 -48.990  13.118  1.00  0.00     0.030 A 
HETATM   20  C   UNL     1     -39.050 -49.036  12.337  1.00  0.00     0.045 A 
HETATM   21  N   UNL     1     -39.639 -48.029  11.606  1.00  0.00    -0.365 N 
HETATM   22  C   UNL     1     -39.824 -50.195  12.174  1.00  0.00     0.025 A 
HETATM   23  C   UNL     1     -40.759 -48.490  10.979  1.00  0.00     0.089 A 
HETATM   24  H   UNL     1     -39.284 -47.085  11.547  1.00  0.00     0.165 HD
HETATM   25  C   UNL     1     -40.903 -49.816  11.313  1.00  0.00     0.033 A 
ENDBRANCH  15  16
ENDBRANCH  14  15
ENDBRANCH   1  14
TORSDOF 6
ENDMDL
MODEL 9
REMARK VINA RESULT:      -6.1      2.075      3.306
REMARK  6 active torsions:
REMARK  status: ('A' for Active; 'I' for Inactive)
REMARK    1  A    between atoms: N_7  and  C_8 
REMARK    2  A    between atoms: C_8  and  C_9 
REMARK    3  A    between atoms: C_9  and  O_10 
REMARK    4  A    between atoms: C_9  and  C_11 
REMARK    5  A    between atoms: C_11  and  O_12 
REMARK    6  A    between atoms: O_12  and  C_13 
ROOT
HETATM    1  C   UNL     1     -42.038 -48.597  12.098  1.00  0.00     0.162 C 
ENDROOT
BRANCH   1   2
HETATM    2  C   UNL     1     -41.916 -48.237  10.610  1.00  0.00     0.186 C 
BRANCH   2   3
HETATM    3  N   UNL     1     -43.014 -47.434  10.084  1.00  0.00    -0.255 N 
HETATM    4  C   UNL     1     -42.803 -46.104   9.743  1.00  0.00     0.262 A 
HETATM    5  C   UNL     1     -43.926 -45.424   9.065  1.00  0.00     0.078 A 
HETATM    6  O   UNL     1     -41.767 -45.479   9.953  1.00  0.00    -0.267 OA
HETATM    7  C   UNL     1     -45.085 -46.055   8.862  1.00  0.00     0.031 A 
HETATM    8  C   UNL     1     -45.185 -47.440   9.363  1.00  0.00     0.022 A 
HETATM    9  C   UNL     1     -46.511 -48.142   9.218  1.00  0.00     0.069 C 
HETATM   10  N   UNL     1     -44.215 -48.087   9.925  1.00  0.00    -0.300 N 
ATOM     11  HN  UNL     1     -44.336 -49.050  10.240  1.00  0.00     0.187 HD
ENDBRANCH   2   3
ENDBRANCH   1   2
BRANCH   1  12
HETATM   12  O   UNL     1     -43.154 -47.867  12.643  1.00  0.00    -0.392 OA
HETATM   13  H   UNL     1     -43.067 -46.938  12.367  1.00  0.00     0.210 HD
ENDBRANCH   1  12
BRANCH   1  14
HETATM   14  C   UNL     1     -42.232 -50.109  12.289  1.00  0.00     0.209 C 
BRANCH  14  15
HETATM   15  O   UNL     1     -42.780 -50.373  13.579  1.00  0.00    -0.348 OA
BRANCH  15  16
HETATM   16  C   UNL     1     -43.743 -51.380  13.651  1.00  0.00     0.081 A 
HETATM   17  C   UNL     1     -45.025 -50.929  13.287  1.00  0.00     0.038 A 
HETATM   18  C   UNL     1     -46.127 -51.779  13.301  1.00  0.00     0.005 A 
HETATM   19  C   UNL     1     -45.987 -53.114  13.675  1.00  0.00     0.030 A 
HETATM   20  C   UNL     1     -44.709 -53.565  14.028  1.00  0.00     0.045 A 
HETATM   21  N   UNL     1     -44.316 -54.827  14.414  1.00  0.00    -0.365 N 
HETATM   22  C   UNL     1     -43.573 -52.741  14.030  1.00  0.00     0.025 A 
HETATM   23  C   UNL     1     -42.976 -54.851  14.665  1.00  0.00     0.089 A 
HETATM   24  H   UNL     1     -44.940 -55.618  14.497  1.00  0.00     0.165 HD
HETATM   25  C   UNL     1     -42.491 -53.583  14.443  1.00  0.00     0.033 A 
ENDBRANCH  15  16
ENDBRANCH  14  15
ENDBRANCH   1  14
TORSDOF 6
ENDMDL
