MODEL 1
REMARK VINA RESULT:      -6.5      0.000      0.000
REMARK  4 active torsions:
REMARK  status: ('A' for Active; 'I' for Inactive)
REMARK    1  A    between atoms: S_2  and  N_5 
REMARK       I    between atoms: N_8  and  C_11 
REMARK       I    between atoms: C_11  and  N_13 
REMARK    2  A    between atoms: N_13  and  C_14 
REMARK    3  A    between atoms: C_14  and  C_15 
REMARK    4  A    between atoms: C_15  and  C_16 
ROOT
HETATM    1  N   UNL     1     -43.909 -53.189  14.739  1.00  0.00    -0.208 NA
HETATM    2  C   UNL     1     -44.380 -51.839  14.299  1.00  0.00     0.127 C 
HETATM    3  C   UNL     1     -43.890 -51.463  12.890  1.00  0.00     0.143 C 
HETATM    4  N   UNL     1     -42.445 -51.661  12.732  1.00  0.00    -0.332 N 
HETATM    5  C   UNL     1     -41.937 -52.959  13.202  1.00  0.00     0.143 C 
HETATM    6  C   UNL     1     -42.412 -53.270  14.627  1.00  0.00     0.127 C 
HETATM    7  C   UNL     1     -41.568 -50.785  12.129  1.00  0.00     0.318 C 
HETATM    8  O   UNL     1     -40.352 -50.954  12.118  1.00  0.00    -0.247 OA
HETATM    9  N   UNL     1     -42.153 -49.685  11.550  1.00  0.00    -0.343 N 
HETATM   10  H   UNL     1     -43.013 -49.906  11.070  1.00  0.00     0.164 HD
ENDROOT
BRANCH   9  11
HETATM   11  C   UNL     1     -41.307 -48.700  10.895  1.00  0.00     0.129 C 
BRANCH  11  12
HETATM   12  C   UNL     1     -42.058 -47.395  10.643  1.00  0.00     0.060 C 
BRANCH  12  13
HETATM   13  C   UNL     1     -43.263 -47.587   9.768  1.00  0.00    -0.041 A 
HETATM   14  C   UNL     1     -44.558 -47.519  10.288  1.00  0.00     0.010 A 
HETATM   15  C   UNL     1     -45.650 -47.711   9.447  1.00  0.00     0.018 A 
HETATM   16  C   UNL     1     -45.409 -47.956   8.105  1.00  0.00     0.087 A 
HETATM   17  N   UNL     1     -44.175 -48.014   7.563  1.00  0.00    -0.375 N 
HETATM   18  C   UNL     1     -43.133 -47.823   8.403  1.00  0.00     0.094 A 
ATOM     19  HN  UNL     1     -44.036 -48.193   6.568  1.00  0.00     0.164 HD
ENDBRANCH  12  13
ENDBRANCH  11  12
ENDBRANCH   9  11
BRANCH   1  20
HETATM   20  S   UNL     1     -44.745 -54.543  14.142  1.00  0.00     0.207 S 
HETATM   21  C   UNL     1     -46.351 -54.356  14.888  1.00  0.00     0.180 C 
HETATM   22  O   UNL     1     -44.133 -55.725  14.711  1.00  0.00    -0.212 OA
HETATM   23  O   UNL     1     -44.889 -54.392  12.710  1.00  0.00    -0.212 OA
ENDBRANCH   1  20
TORSDOF 4
ENDMDL
MODEL 2
REMARK VINA RESULT:      -6.1      2.475      3.429
REMARK  4 active torsions:
REMARK  status: ('A' for Active; 'I' for Inactive)
REMARK    1  A    between atoms: S_2  and  N_5 
REMARK       I    between atoms: N_8  and  C_11 
REMARK       I    between atoms: C_11  and  N_13 
REMARK    2  A    between atoms: N_13  and  C_14 
REMARK    3  A    between atoms: C_14  and  C_15 
REMARK    4  A    between atoms: C_15  and  C_16 
ROOT
HETATM    1  N   UNL     1     -43.934 -53.945  14.844  1.00  0.00    -0.208 NA
HETATM    2  C   UNL     1     -43.521 -52.517  15.022  1.00  0.00     0.127 C 
HETATM    3  C   UNL     1     -42.502 -52.052  13.969  1.00  0.00     0.143 C 
HETATM    4  N   UNL     1     -41.372 -52.980  13.841  1.00  0.00    -0.332 N 
HETATM    5  C   UNL     1     -41.738 -54.398  13.715  1.00  0.00     0.143 C 
HETATM    6  C   UNL     1     -42.718 -54.829  14.813  1.00  0.00     0.127 C 
HETATM    7  C   UNL     1     -40.041 -52.628  13.757  1.00  0.00     0.318 C 
HETATM    8  O   UNL     1     -39.129 -53.450  13.756  1.00  0.00    -0.247 OA
HETATM    9  N   UNL     1     -39.801 -51.277  13.691  1.00  0.00    -0.343 N 
HETATM   10  H   UNL     1     -40.461 -50.790  13.104  1.00  0.00     0.164 HD
ENDROOT
BRANCH   9  11
HETATM   11  C   UNL     1     -38.427 -50.810  13.607  1.00  0.00     0.129 C 
BRANCH  11  12
HETATM   12  C   UNL     1     -38.133 -50.170  12.252  1.00  0.00     0.060 C 
BRANCH  12  13
HETATM   13  C   UNL     1     -39.241 -49.268  11.792  1.00  0.00    -0.041 A 
HETATM   14  C   UNL     1     -39.347 -47.952  12.251  1.00  0.00     0.010 A 
HETATM   15  C   UNL     1     -40.394 -47.149  11.807  1.00  0.00     0.018 A 
HETATM   16  C   UNL     1     -41.300 -47.689  10.909  1.00  0.00     0.087 A 
HETATM   17  N   UNL     1     -41.223 -48.949  10.432  1.00  0.00    -0.375 N 
HETATM   18  C   UNL     1     -40.196 -49.706  10.879  1.00  0.00     0.094 A 
ATOM     19  HN  UNL     1     -41.906 -49.312   9.767  1.00  0.00     0.164 HD
ENDBRANCH  12  13
ENDBRANCH  11  12
ENDBRANCH   9  11
BRANCH   1  20
HETATM   20  S   UNL     1     -45.093 -54.281  13.647  1.00  0.00     0.207 S 
HETATM   21  C   UNL     1     -46.367 -53.091  14.008  1.00  0.00     0.180 C 
HETATM   22  O   UNL     1     -45.634 -55.596  13.914  1.00  0.00    -0.212 OA
HETATM   23  O   UNL     1     -44.521 -53.956  12.358  1.00  0.00    -0.212 OA
ENDBRANCH   1  20
TORSDOF 4
ENDMDL
MODEL 3
REMARK VINA RESULT:      -6.0      3.947      7.410
REMARK  4 active torsions:
REMARK  status: ('A' for Active; 'I' for Inactive)
REMARK    1  A    between atoms: S_2  and  N_5 
REMARK       I    between atoms: N_8  and  C_11 
REMARK       I    between atoms: C_11  and  N_13 
REMARK    2  A    between atoms: N_13  and  C_14 
REMARK    3  A    between atoms: C_14  and  C_15 
REMARK    4  A    between atoms: C_15  and  C_16 
ROOT
HETATM    1  N   UNL     1     -41.748 -45.319  10.121  1.00  0.00    -0.208 NA
HETATM    2  C   UNL     1     -42.692 -46.452   9.866  1.00  0.00     0.127 C 
HETATM    3  C   UNL     1     -42.802 -47.420  11.056  1.00  0.00     0.143 C 
HETATM    4  N   UNL     1     -41.488 -47.849  11.548  1.00  0.00    -0.332 N 
HETATM    5  C   UNL     1     -40.517 -46.766  11.762  1.00  0.00     0.143 C 
HETATM    6  C   UNL     1     -40.405 -45.855  10.533  1.00  0.00     0.127 C 
HETATM    7  C   UNL     1     -41.131 -49.137  11.886  1.00  0.00     0.318 C 
HETATM    8  O   UNL     1     -39.986 -49.457  12.193  1.00  0.00    -0.247 OA
HETATM    9  N   UNL     1     -42.153 -50.054  11.837  1.00  0.00    -0.343 N 
HETATM   10  H   UNL     1     -43.022 -49.691  12.196  1.00  0.00     0.164 HD
ENDROOT
BRANCH   9  11
HETATM   11  C   UNL     1     -41.870 -51.441  12.170  1.00  0.00     0.129 C 
BRANCH  11  12
HETATM   12  C   UNL     1     -42.434 -51.817  13.538  1.00  0.00     0.060 C 
BRANCH  12  13
HETATM   13  C   UNL     1     -43.926 -51.990  13.514  1.00  0.00    -0.041 A 
HETATM   14  C   UNL     1     -44.771 -51.130  14.219  1.00  0.00     0.010 A 
HETATM   15  C   UNL     1     -46.148 -51.328  14.179  1.00  0.00     0.018 A 
HETATM   16  C   UNL     1     -46.637 -52.381  13.424  1.00  0.00     0.087 A 
HETATM   17  N   UNL     1     -45.855 -53.224  12.717  1.00  0.00    -0.375 N 
HETATM   18  C   UNL     1     -44.522 -53.008  12.774  1.00  0.00     0.094 A 
ATOM     19  HN  UNL     1     -46.251 -53.987  12.168  1.00  0.00     0.164 HD
ENDBRANCH  12  13
ENDBRANCH  11  12
ENDBRANCH   9  11
BRANCH   1  20
HETATM   20  S   UNL     1     -42.318 -44.021  11.058  1.00  0.00     0.207 S 
HETATM   21  C   UNL     1     -40.851 -43.034  11.270  1.00  0.00     0.180 C 
HETATM   22  O   UNL     1     -42.686 -44.544  12.356  1.00  0.00    -0.212 OA
HETATM   23  O   UNL     1     -43.261 -43.266  10.262  1.00  0.00    -0.212 OA
ENDBRANCH   1  20
TORSDOF 4
ENDMDL
MODEL 4
REMARK VINA RESULT:      -5.9      3.758      5.557
REMARK  4 active torsions:
REMARK  status: ('A' for Active; 'I' for Inactive)
REMARK    1  A    between atoms: S_2  and  N_5 
REMARK       I    between atoms: N_8  and  C_11 
REMARK       I    between atoms: C_11  and  N_13 
REMARK    2  A    between atoms: N_13  and  C_14 
REMARK    3  A    between atoms: C_14  and  C_15 
REMARK    4  A    between atoms: C_15  and  C_16 
ROOT
HETATM    1  N   UNL     1     -44.109 -53.561  14.728  1.00  0.00    -0.208 NA
HETATM    2  C   UNL     1     -43.765 -52.116  14.545  1.00  0.00     0.127 C 
HETATM    3  C   UNL     1     -42.887 -51.861  13.308  1.00  0.00     0.143 C 
HETATM    4  N   UNL     1     -41.724 -52.754  13.258  1.00  0.00    -0.332 N 
HETATM    5  C   UNL     1     -42.017 -54.177  13.485  1.00  0.00     0.143 C 
HETATM    6  C   UNL     1     -42.853 -54.387  14.753  1.00  0.00     0.127 C 
HETATM    7  C   UNL     1     -40.431 -52.383  12.950  1.00  0.00     0.318 C 
HETATM    8  O   UNL     1     -39.478 -53.153  13.025  1.00  0.00    -0.247 OA
HETATM    9  N   UNL     1     -40.279 -51.073  12.566  1.00  0.00    -0.343 N 
HETATM   10  H   UNL     1     -41.023 -50.752  11.966  1.00  0.00     0.164 HD
ENDROOT
BRANCH   9  11
HETATM   11  C   UNL     1     -38.950 -50.588  12.229  1.00  0.00     0.129 C 
BRANCH  11  12
HETATM   12  C   UNL     1     -38.739 -49.154  12.707  1.00  0.00     0.060 C 
BRANCH  12  13
HETATM   13  C   UNL     1     -37.858 -49.078  13.921  1.00  0.00    -0.041 A 
HETATM   14  C   UNL     1     -37.364 -47.857  14.388  1.00  0.00     0.010 A 
HETATM   15  C   UNL     1     -36.544 -47.830  15.512  1.00  0.00     0.018 A 
HETATM   16  C   UNL     1     -36.250 -49.029  16.139  1.00  0.00     0.087 A 
HETATM   17  N   UNL     1     -36.719 -50.225  15.728  1.00  0.00    -0.375 N 
HETATM   18  C   UNL     1     -37.514 -50.223  14.635  1.00  0.00     0.094 A 
ATOM     19  HN  UNL     1     -36.485 -51.088  16.219  1.00  0.00     0.164 HD
ENDBRANCH  12  13
ENDBRANCH  11  12
ENDBRANCH   9  11
BRANCH   1  20
HETATM   20  S   UNL     1     -45.362 -54.195  13.771  1.00  0.00     0.207 S 
HETATM   21  C   UNL     1     -46.811 -53.485  14.525  1.00  0.00     0.180 C 
HETATM   22  O   UNL     1     -45.408 -55.624  13.994  1.00  0.00    -0.212 OA
HETATM   23  O   UNL     1     -45.233 -53.651  12.436  1.00  0.00    -0.212 OA
ENDBRANCH   1  20
TORSDOF 4
ENDMDL
MODEL 5
REMARK VINA RESULT:      -5.9      2.942      3.421
REMARK  4 active torsions:
REMARK  status: ('A' for Active; 'I' for Inactive)
REMARK    1  A    between atoms: S_2  and  N_5 
REMARK       I    between atoms: N_8  and  C_11 
REMARK       I    between atoms: C_11  and  N_13 
REMARK    2  A    between atoms: N_13  and  C_14 
REMARK    3  A    between atoms: C_14  and  C_15 
REMARK    4  A    between atoms: C_15  and  C_16 
ROOT
HETATM    1  N   UNL     1     -43.999 -53.822  14.787  1.00  0.00    -0.208 NA
HETATM    2  C   UNL     1     -43.802 -52.358  15.026  1.00  0.00     0.127 C 
HETATM    3  C   UNL     1     -43.133 -51.641  13.841  1.00  0.00     0.143 C 
HETATM    4  N   UNL     1     -41.920 -52.331  13.386  1.00  0.00    -0.332 N 
HETATM    5  C   UNL     1     -42.063 -53.781  13.189  1.00  0.00     0.143 C 
HETATM    6  C   UNL     1     -42.690 -54.460  14.413  1.00  0.00     0.127 C 
HETATM    7  C   UNL     1     -40.719 -51.733  13.068  1.00  0.00     0.318 C 
HETATM    8  O   UNL     1     -39.706 -52.369  12.794  1.00  0.00    -0.247 OA
HETATM    9  N   UNL     1     -40.729 -50.359  13.098  1.00  0.00    -0.343 N 
HETATM   10  H   UNL     1     -41.575 -49.965  12.714  1.00  0.00     0.164 HD
ENDROOT
BRANCH   9  11
HETATM   11  C   UNL     1     -39.506 -49.640  12.784  1.00  0.00     0.129 C 
BRANCH  11  12
HETATM   12  C   UNL     1     -39.436 -48.304  13.519  1.00  0.00     0.060 C 
BRANCH  12  13
HETATM   13  C   UNL     1     -39.630 -47.133  12.599  1.00  0.00    -0.041 A 
HETATM   14  C   UNL     1     -39.379 -45.825  13.022  1.00  0.00     0.010 A 
HETATM   15  C   UNL     1     -39.579 -44.765  12.142  1.00  0.00     0.018 A 
HETATM   16  C   UNL     1     -40.017 -45.051  10.859  1.00  0.00     0.087 A 
HETATM   17  N   UNL     1     -40.255 -46.301  10.409  1.00  0.00    -0.375 N 
HETATM   18  C   UNL     1     -40.052 -47.310  11.284  1.00  0.00     0.094 A 
ATOM     19  HN  UNL     1     -40.573 -46.474   9.455  1.00  0.00     0.164 HD
ENDBRANCH  12  13
ENDBRANCH  11  12
ENDBRANCH   9  11
BRANCH   1  20
HETATM   20  S   UNL     1     -45.321 -54.287  13.825  1.00  0.00     0.207 S 
HETATM   21  C   UNL     1     -46.687 -53.502  14.654  1.00  0.00     0.180 C 
HETATM   22  O   UNL     1     -45.487 -55.718  13.965  1.00  0.00    -0.212 OA
HETATM   23  O   UNL     1     -45.170 -53.676  12.522  1.00  0.00    -0.212 OA
ENDBRANCH   1  20
TORSDOF 4
ENDMDL
MODEL 6
REMARK VINA RESULT:      -5.6      5.271      7.657
REMARK  4 active torsions:
REMARK  status: ('A' for Active; 'I' for Inactive)
REMARK    1  A    between atoms: S_2  and  N_5 
REMARK       I    between atoms: N_8  and  C_11 
REMARK       I    between atoms: C_11  and  N_13 
REMARK    2  A    between atoms: N_13  and  C_14 
REMARK    3  A    between atoms: C_14  and  C_15 
REMARK    4  A    between atoms: C_15  and  C_16 
ROOT
HETATM    1  N   UNL     1     -37.308 -49.183  16.528  1.00  0.00    -0.208 NA
HETATM    2  C   UNL     1     -38.403 -50.124  16.925  1.00  0.00     0.127 C 
HETATM    3  C   UNL     1     -38.382 -51.439  16.127  1.00  0.00     0.143 C 
HETATM    4  N   UNL     1     -38.298 -51.210  14.680  1.00  0.00    -0.332 N 
HETATM    5  C   UNL     1     -37.267 -50.251  14.257  1.00  0.00     0.143 C 
HETATM    6  C   UNL     1     -37.356 -48.939  15.045  1.00  0.00     0.127 C 
HETATM    7  C   UNL     1     -39.038 -51.859  13.714  1.00  0.00     0.318 C 
HETATM    8  O   UNL     1     -39.002 -51.554  12.525  1.00  0.00    -0.247 OA
HETATM    9  N   UNL     1     -39.840 -52.872  14.180  1.00  0.00    -0.343 N 
HETATM   10  H   UNL     1     -39.394 -53.428  14.893  1.00  0.00     0.164 HD
ENDROOT
BRANCH   9  11
HETATM   11  C   UNL     1     -40.662 -53.610  13.235  1.00  0.00     0.129 C 
BRANCH  11  12
HETATM   12  C   UNL     1     -41.701 -54.473  13.948  1.00  0.00     0.060 C 
BRANCH  12  13
HETATM   13  C   UNL     1     -43.108 -54.091  13.589  1.00  0.00    -0.041 A 
HETATM   14  C   UNL     1     -44.207 -54.719  14.181  1.00  0.00     0.010 A 
HETATM   15  C   UNL     1     -45.496 -54.343  13.815  1.00  0.00     0.018 A 
HETATM   16  C   UNL     1     -45.644 -53.339  12.873  1.00  0.00     0.087 A 
HETATM   17  N   UNL     1     -44.609 -52.698  12.290  1.00  0.00    -0.375 N 
HETATM   18  C   UNL     1     -43.368 -53.083  12.664  1.00  0.00     0.094 A 
ATOM     19  HN  UNL     1     -44.756 -51.960  11.602  1.00  0.00     0.164 HD
ENDBRANCH  12  13
ENDBRANCH  11  12
ENDBRANCH   9  11
BRANCH   1  20
HETATM   20  S   UNL     1     -35.756 -49.479  17.154  1.00  0.00     0.207 S 
HETATM   21  C   UNL     1     -35.849 -48.730  18.767  1.00  0.00     0.180 C 
HETATM   22  O   UNL     1     -34.811 -48.715  16.369  1.00  0.00    -0.212 OA
HETATM   23  O   UNL     1     -35.602 -50.908  17.327  1.00  0.00    -0.212 OA
ENDBRANCH   1  20
TORSDOF 4
ENDMDL
MODEL 7
REMARK VINA RESULT:      -5.6      4.173      8.106
REMARK  4 active torsions:
REMARK  status: ('A' for Active; 'I' for Inactive)
REMARK    1  A    between atoms: S_2  and  N_5 
REMARK       I    between atoms: N_8  and  C_11 
REMARK       I    between atoms: C_11  and  N_13 
REMARK    2  A    between atoms: N_13  and  C_14 
REMARK    3  A    between atoms: C_14  and  C_15 
REMARK    4  A    between atoms: C_15  and  C_16 
ROOT
HETATM    1  N   UNL     1     -41.583 -45.257  10.091  1.00  0.00    -0.208 NA
HETATM    2  C   UNL     1     -42.403 -46.490   9.869  1.00  0.00     0.127 C 
HETATM    3  C   UNL     1     -42.325 -47.481  11.043  1.00  0.00     0.143 C 
HETATM    4  N   UNL     1     -40.942 -47.759  11.445  1.00  0.00    -0.332 N 
HETATM    5  C   UNL     1     -40.091 -46.573  11.623  1.00  0.00     0.143 C 
HETATM    6  C   UNL     1     -40.163 -45.638  10.409  1.00  0.00     0.127 C 
HETATM    7  C   UNL     1     -40.417 -49.002  11.733  1.00  0.00     0.318 C 
HETATM    8  O   UNL     1     -39.225 -49.189  11.963  1.00  0.00    -0.247 OA
HETATM    9  N   UNL     1     -41.326 -50.031  11.727  1.00  0.00    -0.343 N 
HETATM   10  H   UNL     1     -42.208 -49.778  12.145  1.00  0.00     0.164 HD
ENDROOT
BRANCH   9  11
HETATM   11  C   UNL     1     -40.863 -51.380  12.011  1.00  0.00     0.129 C 
BRANCH  11  12
HETATM   12  C   UNL     1     -41.998 -52.396  11.907  1.00  0.00     0.060 C 
BRANCH  12  13
HETATM   13  C   UNL     1     -42.064 -53.305  13.101  1.00  0.00    -0.041 A 
HETATM   14  C   UNL     1     -43.276 -53.848  13.537  1.00  0.00     0.010 A 
HETATM   15  C   UNL     1     -43.298 -54.679  14.652  1.00  0.00     0.018 A 
HETATM   16  C   UNL     1     -42.100 -54.949  15.293  1.00  0.00     0.087 A 
HETATM   17  N   UNL     1     -40.908 -54.457  14.894  1.00  0.00    -0.375 N 
HETATM   18  C   UNL     1     -40.916 -53.653  13.808  1.00  0.00     0.094 A 
ATOM     19  HN  UNL     1     -40.045 -54.681  15.388  1.00  0.00     0.164 HD
ENDBRANCH  12  13
ENDBRANCH  11  12
ENDBRANCH   9  11
BRANCH   1  20
HETATM   20  S   UNL     1     -42.240 -44.049  11.089  1.00  0.00     0.207 S 
HETATM   21  C   UNL     1     -40.855 -42.954  11.320  1.00  0.00     0.180 C 
HETATM   22  O   UNL     1     -42.541 -44.651  12.370  1.00  0.00    -0.212 OA
HETATM   23  O   UNL     1     -43.256 -43.343  10.338  1.00  0.00    -0.212 OA
ENDBRANCH   1  20
TORSDOF 4
ENDMDL
MODEL 8
REMARK VINA RESULT:      -5.5      2.611      4.645
REMARK  4 active torsions:
REMARK  status: ('A' for Active; 'I' for Inactive)
REMARK    1  A    between atoms: S_2  and  N_5 
REMARK       I    between atoms: N_8  and  C_11 
REMARK       I    between atoms: C_11  and  N_13 
REMARK    2  A    between atoms: N_13  and  C_14 
REMARK    3  A    between atoms: C_14  and  C_15 
REMARK    4  A    between atoms: C_15  and  C_16 
ROOT
HETATM    1  N   UNL     1     -44.841 -53.234  13.644  1.00  0.00    -0.208 NA
HETATM    2  C   UNL     1     -43.930 -53.240  12.457  1.00  0.00     0.127 C 
HETATM    3  C   UNL     1     -42.756 -52.258  12.597  1.00  0.00     0.143 C 
HETATM    4  N   UNL     1     -43.198 -50.915  12.992  1.00  0.00    -0.332 N 
HETATM    5  C   UNL     1     -44.135 -50.873  14.124  1.00  0.00     0.143 C 
HETATM    6  C   UNL     1     -45.313 -51.833  13.919  1.00  0.00     0.127 C 
HETATM    7  C   UNL     1     -42.758 -49.726  12.450  1.00  0.00     0.318 C 
HETATM    8  O   UNL     1     -43.239 -48.636  12.746  1.00  0.00    -0.247 OA
HETATM    9  N   UNL     1     -41.745 -49.847  11.530  1.00  0.00    -0.343 N 
HETATM   10  H   UNL     1     -41.056 -50.534  11.795  1.00  0.00     0.164 HD
ENDROOT
BRANCH   9  11
HETATM   11  C   UNL     1     -41.221 -48.646  10.899  1.00  0.00     0.129 C 
BRANCH  11  12
HETATM   12  C   UNL     1     -40.082 -48.036  11.712  1.00  0.00     0.060 C 
BRANCH  12  13
HETATM   13  C   UNL     1     -39.124 -49.072  12.224  1.00  0.00    -0.041 A 
HETATM   14  C   UNL     1     -38.196 -49.687  11.378  1.00  0.00     0.010 A 
HETATM   15  C   UNL     1     -37.330 -50.649  11.889  1.00  0.00     0.018 A 
HETATM   16  C   UNL     1     -37.415 -50.961  13.235  1.00  0.00     0.087 A 
HETATM   17  N   UNL     1     -38.286 -50.379  14.086  1.00  0.00    -0.375 N 
HETATM   18  C   UNL     1     -39.114 -49.448  13.564  1.00  0.00     0.094 A 
ATOM     19  HN  UNL     1     -38.317 -50.631  15.074  1.00  0.00     0.164 HD
ENDBRANCH  12  13
ENDBRANCH  11  12
ENDBRANCH   9  11
BRANCH   1  20
HETATM   20  S   UNL     1     -44.344 -54.104  15.017  1.00  0.00     0.207 S 
HETATM   21  C   UNL     1     -45.726 -53.893  16.120  1.00  0.00     0.180 C 
HETATM   22  O   UNL     1     -43.213 -53.408  15.593  1.00  0.00    -0.212 OA
HETATM   23  O   UNL     1     -44.257 -55.503  14.661  1.00  0.00    -0.212 OA
ENDBRANCH   1  20
TORSDOF 4
ENDMDL
MODEL 9
REMARK VINA RESULT:      -5.3     13.328     15.781
REMARK  4 active torsions:
REMARK  status: ('A' for Active; 'I' for Inactive)
REMARK    1  A    between atoms: S_2  and  N_5 
REMARK       I    between atoms: N_8  and  C_11 
REMARK       I    between atoms: C_11  and  N_13 
REMARK    2  A    between atoms: N_13  and  C_14 
REMARK    3  A    between atoms: C_14  and  C_15 
REMARK    4  A    between atoms: C_15  and  C_16 
ROOT
HETATM    1  N   UNL     1     -50.180 -46.848   0.351  1.00  0.00    -0.208 NA
HETATM    2  C   UNL     1     -51.297 -47.468  -0.429  1.00  0.00     0.127 C 
HETATM    3  C   UNL     1     -51.741 -48.828   0.136  1.00  0.00     0.143 C 
HETATM    4  N   UNL     1     -50.608 -49.733   0.362  1.00  0.00    -0.332 N 
HETATM    5  C   UNL     1     -49.469 -49.142   1.081  1.00  0.00     0.143 C 
HETATM    6  C   UNL     1     -49.032 -47.813   0.455  1.00  0.00     0.127 C 
HETATM    7  C   UNL     1     -50.561 -51.070   0.028  1.00  0.00     0.318 C 
HETATM    8  O   UNL     1     -49.548 -51.754   0.145  1.00  0.00    -0.247 OA
HETATM    9  N   UNL     1     -51.734 -51.586  -0.466  1.00  0.00    -0.343 N 
HETATM   10  H   UNL     1     -52.548 -51.244   0.020  1.00  0.00     0.164 HD
ENDROOT
BRANCH   9  11
HETATM   11  C   UNL     1     -51.778 -52.987  -0.852  1.00  0.00     0.129 C 
BRANCH  11  12
HETATM   12  C   UNL     1     -51.457 -53.171  -2.334  1.00  0.00     0.060 C 
BRANCH  12  13
HETATM   13  C   UNL     1     -50.693 -54.437  -2.602  1.00  0.00    -0.041 A 
HETATM   14  C   UNL     1     -51.294 -55.530  -3.231  1.00  0.00     0.010 A 
HETATM   15  C   UNL     1     -50.555 -56.688  -3.454  1.00  0.00     0.018 A 
HETATM   16  C   UNL     1     -49.232 -56.712  -3.046  1.00  0.00     0.087 A 
HETATM   17  N   UNL     1     -48.613 -55.672  -2.449  1.00  0.00    -0.375 N 
HETATM   18  C   UNL     1     -49.353 -54.559  -2.246  1.00  0.00     0.094 A 
ATOM     19  HN  UNL     1     -47.634 -55.723  -2.166  1.00  0.00     0.164 HD
ENDBRANCH  12  13
ENDBRANCH  11  12
ENDBRANCH   9  11
BRANCH   1  20
HETATM   20  S   UNL     1     -50.583 -46.057   1.801  1.00  0.00     0.207 S 
HETATM   21  C   UNL     1     -51.114 -44.458   1.225  1.00  0.00     0.180 C 
HETATM   22  O   UNL     1     -49.361 -45.868   2.553  1.00  0.00    -0.212 OA
HETATM   23  O   UNL     1     -51.723 -46.731   2.383  1.00  0.00    -0.212 OA
ENDBRANCH   1  20
TORSDOF 4
ENDMDL
