MODEL 1
REMARK VINA RESULT:      -6.0      0.000      0.000
REMARK  4 active torsions:
REMARK  status: ('A' for Active; 'I' for Inactive)
REMARK    1  A    between atoms: C_2  and  C_5 
REMARK       I    between atoms: C_5  and  N_7 
REMARK    2  A    between atoms: N_7  and  C_8 
REMARK    3  A    between atoms: C_8  and  C_9 
REMARK    4  A    between atoms: C_15  and  N_16 
ROOT
HETATM    1  C   UNL     1     -42.503 -49.424  12.617  1.00  0.00     0.004 A 
HETATM    2  C   UNL     1     -43.219 -48.352  12.035  1.00  0.00     0.014 A 
HETATM    3  C   UNL     1     -42.800 -47.771  10.852  1.00  0.00     0.018 A 
HETATM    4  C   UNL     1     -41.667 -48.285  10.275  1.00  0.00     0.089 A 
HETATM    5  N   UNL     1     -40.981 -49.330  10.783  1.00  0.00    -0.352 N 
ATOM      6  HN  UNL     1     -40.153 -49.673  10.297  1.00  0.00     0.166 HD
HETATM    7  C   UNL     1     -41.380 -49.932  11.936  1.00  0.00     0.111 A 
ENDROOT
BRANCH   1   8
HETATM    8  C   UNL     1     -42.986 -49.867  13.969  1.00  0.00     0.165 C 
BRANCH   8   9
HETATM    9  N   UNL     1     -44.356 -50.342  13.951  1.00  0.00    -0.356 N 
HETATM   10  C   UNL     1     -44.633 -51.653  14.273  1.00  0.00     0.225 C 
HETATM   11  O   UNL     1     -43.751 -52.413  14.668  1.00  0.00    -0.273 OA
HETATM   12  H   UNL     1     -45.055 -49.765  13.500  1.00  0.00     0.162 HD
BRANCH  10  13
HETATM   13  C   UNL     1     -46.092 -52.100  14.082  1.00  0.00     0.030 C 
HETATM   14  C   UNL     1     -46.966 -51.427  15.156  1.00  0.00     0.024 C 
HETATM   15  C   UNL     1     -46.206 -53.623  14.243  1.00  0.00     0.024 C 
HETATM   16  C   UNL     1     -46.595 -51.678  12.696  1.00  0.00     0.024 C 
ENDBRANCH  10  13
ENDBRANCH   8   9
ENDBRANCH   1   8
BRANCH   7  17
HETATM   17  N   UNL     1     -40.641 -51.040  12.284  1.00  0.00    -0.363 N 
HETATM   18  C   UNL     1     -41.134 -52.367  11.853  1.00  0.00     0.150 C 
HETATM   19  C   UNL     1     -40.825 -53.433  12.918  1.00  0.00     0.187 C 
HETATM   20  O   UNL     1     -39.431 -53.453  13.265  1.00  0.00    -0.388 OA
HETATM   21  C   UNL     1     -39.049 -52.177  13.788  1.00  0.00     0.187 C 
HETATM   22  C   UNL     1     -39.258 -51.057  12.760  1.00  0.00     0.150 C 
ENDBRANCH   7  17
TORSDOF 4
ENDMDL
MODEL 2
REMARK VINA RESULT:      -5.7      2.242      4.142
REMARK  4 active torsions:
REMARK  status: ('A' for Active; 'I' for Inactive)
REMARK    1  A    between atoms: C_2  and  C_5 
REMARK       I    between atoms: C_5  and  N_7 
REMARK    2  A    between atoms: N_7  and  C_8 
REMARK    3  A    between atoms: C_8  and  C_9 
REMARK    4  A    between atoms: C_15  and  N_16 
ROOT
HETATM    1  C   UNL     1     -41.120 -52.806  12.860  1.00  0.00     0.004 A 
HETATM    2  C   UNL     1     -40.919 -54.136  13.297  1.00  0.00     0.014 A 
HETATM    3  C   UNL     1     -39.792 -54.489  14.017  1.00  0.00     0.018 A 
HETATM    4  C   UNL     1     -38.889 -53.492  14.285  1.00  0.00     0.089 A 
HETATM    5  N   UNL     1     -39.067 -52.207  13.915  1.00  0.00    -0.352 N 
ATOM      6  HN  UNL     1     -38.362 -51.511  14.159  1.00  0.00     0.166 HD
HETATM    7  C   UNL     1     -40.175 -51.827  13.223  1.00  0.00     0.111 A 
ENDROOT
BRANCH   1   8
HETATM    8  C   UNL     1     -42.312 -52.589  11.971  1.00  0.00     0.165 C 
BRANCH   8   9
HETATM    9  N   UNL     1     -43.477 -52.115  12.695  1.00  0.00    -0.356 N 
HETATM   10  C   UNL     1     -44.589 -52.921  12.809  1.00  0.00     0.225 C 
HETATM   11  O   UNL     1     -44.585 -54.077  12.390  1.00  0.00    -0.273 OA
HETATM   12  H   UNL     1     -43.532 -51.129  12.917  1.00  0.00     0.162 HD
BRANCH  10  13
HETATM   13  C   UNL     1     -45.823 -52.276  13.463  1.00  0.00     0.030 C 
HETATM   14  C   UNL     1     -46.727 -51.694  12.362  1.00  0.00     0.024 C 
HETATM   15  C   UNL     1     -45.394 -51.135  14.396  1.00  0.00     0.024 C 
HETATM   16  C   UNL     1     -46.613 -53.330  14.249  1.00  0.00     0.024 C 
ENDBRANCH  10  13
ENDBRANCH   8   9
ENDBRANCH   1   8
BRANCH   7  17
HETATM   17  N   UNL     1     -40.266 -50.472  12.994  1.00  0.00    -0.363 N 
HETATM   18  C   UNL     1     -39.745 -49.949  11.712  1.00  0.00     0.150 C 
HETATM   19  C   UNL     1     -39.116 -48.559  11.910  1.00  0.00     0.187 C 
HETATM   20  O   UNL     1     -40.026 -47.647  12.545  1.00  0.00    -0.388 OA
HETATM   21  C   UNL     1     -40.395 -48.156  13.831  1.00  0.00     0.187 C 
HETATM   22  C   UNL     1     -41.098 -49.515  13.722  1.00  0.00     0.150 C 
ENDBRANCH   7  17
TORSDOF 4
ENDMDL
MODEL 3
REMARK VINA RESULT:      -5.5      1.748      2.218
REMARK  4 active torsions:
REMARK  status: ('A' for Active; 'I' for Inactive)
REMARK    1  A    between atoms: C_2  and  C_5 
REMARK       I    between atoms: C_5  and  N_7 
REMARK    2  A    between atoms: N_7  and  C_8 
REMARK    3  A    between atoms: C_8  and  C_9 
REMARK    4  A    between atoms: C_15  and  N_16 
ROOT
HETATM    1  C   UNL     1     -42.680 -48.499  11.796  1.00  0.00     0.004 A 
HETATM    2  C   UNL     1     -43.768 -47.943  11.084  1.00  0.00     0.014 A 
HETATM    3  C   UNL     1     -43.564 -47.031  10.065  1.00  0.00     0.018 A 
HETATM    4  C   UNL     1     -42.265 -46.697   9.781  1.00  0.00     0.089 A 
HETATM    5  N   UNL     1     -41.202 -47.236  10.415  1.00  0.00    -0.352 N 
ATOM      6  HN  UNL     1     -40.260 -46.954  10.145  1.00  0.00     0.166 HD
HETATM    7  C   UNL     1     -41.372 -48.149  11.409  1.00  0.00     0.111 A 
ENDROOT
BRANCH   1   8
HETATM    8  C   UNL     1     -43.047 -49.367  12.967  1.00  0.00     0.165 C 
BRANCH   8   9
HETATM    9  N   UNL     1     -44.068 -50.345  12.646  1.00  0.00    -0.356 N 
HETATM   10  C   UNL     1     -44.783 -50.949  13.658  1.00  0.00     0.225 C 
HETATM   11  O   UNL     1     -44.642 -50.608  14.831  1.00  0.00    -0.273 OA
HETATM   12  H   UNL     1     -44.089 -50.723  11.706  1.00  0.00     0.162 HD
BRANCH  10  13
HETATM   13  C   UNL     1     -45.736 -52.077  13.228  1.00  0.00     0.030 C 
HETATM   14  C   UNL     1     -46.675 -51.549  12.129  1.00  0.00     0.024 C 
HETATM   15  C   UNL     1     -46.589 -52.534  14.421  1.00  0.00     0.024 C 
HETATM   16  C   UNL     1     -44.935 -53.260  12.671  1.00  0.00     0.024 C 
ENDBRANCH  10  13
ENDBRANCH   8   9
ENDBRANCH   1   8
BRANCH   7  17
HETATM   17  N   UNL     1     -40.200 -48.678  11.901  1.00  0.00    -0.363 N 
HETATM   18  C   UNL     1     -39.739 -49.971  11.349  1.00  0.00     0.150 C 
HETATM   19  C   UNL     1     -39.059 -50.815  12.442  1.00  0.00     0.187 C 
HETATM   20  O   UNL     1     -38.005 -50.091  13.096  1.00  0.00    -0.388 OA
HETATM   21  C   UNL     1     -38.541 -48.915  13.711  1.00  0.00     0.187 C 
HETATM   22  C   UNL     1     -39.180 -47.976  12.678  1.00  0.00     0.150 C 
ENDBRANCH   7  17
TORSDOF 4
ENDMDL
MODEL 4
REMARK VINA RESULT:      -5.4      1.905      3.985
REMARK  4 active torsions:
REMARK  status: ('A' for Active; 'I' for Inactive)
REMARK    1  A    between atoms: C_2  and  C_5 
REMARK       I    between atoms: C_5  and  N_7 
REMARK    2  A    between atoms: N_7  and  C_8 
REMARK    3  A    between atoms: C_8  and  C_9 
REMARK    4  A    between atoms: C_15  and  N_16 
ROOT
HETATM    1  C   UNL     1     -40.981 -51.982  12.856  1.00  0.00     0.004 A 
HETATM    2  C   UNL     1     -40.290 -53.019  13.524  1.00  0.00     0.014 A 
HETATM    3  C   UNL     1     -39.072 -52.786  14.137  1.00  0.00     0.018 A 
HETATM    4  C   UNL     1     -38.575 -51.510  14.066  1.00  0.00     0.089 A 
HETATM    5  N   UNL     1     -39.226 -50.489  13.469  1.00  0.00    -0.352 N 
ATOM      6  HN  UNL     1     -38.806 -49.560  13.464  1.00  0.00     0.166 HD
HETATM    7  C   UNL     1     -40.433 -50.685  12.874  1.00  0.00     0.111 A 
ENDROOT
BRANCH   1   8
HETATM    8  C   UNL     1     -42.221 -52.402  12.116  1.00  0.00     0.165 C 
BRANCH   8   9
HETATM    9  N   UNL     1     -43.442 -52.016  12.796  1.00  0.00    -0.356 N 
HETATM   10  C   UNL     1     -44.528 -52.864  12.791  1.00  0.00     0.225 C 
HETATM   11  O   UNL     1     -44.457 -53.989  12.301  1.00  0.00    -0.273 OA
HETATM   12  H   UNL     1     -43.547 -51.048  13.077  1.00  0.00     0.162 HD
BRANCH  10  13
HETATM   13  C   UNL     1     -45.822 -52.306  13.410  1.00  0.00     0.030 C 
HETATM   14  C   UNL     1     -45.467 -51.128  14.334  1.00  0.00     0.024 C 
HETATM   15  C   UNL     1     -46.521 -53.389  14.244  1.00  0.00     0.024 C 
HETATM   16  C   UNL     1     -46.759 -51.805  12.304  1.00  0.00     0.024 C 
ENDBRANCH  10  13
ENDBRANCH   8   9
ENDBRANCH   1   8
BRANCH   7  17
HETATM   17  N   UNL     1     -41.020 -49.538  12.387  1.00  0.00    -0.363 N 
HETATM   18  C   UNL     1     -41.870 -48.751  13.307  1.00  0.00     0.150 C 
HETATM   19  C   UNL     1     -43.053 -48.125  12.548  1.00  0.00     0.187 C 
HETATM   20  O   UNL     1     -42.616 -47.359  11.415  1.00  0.00    -0.388 OA
HETATM   21  C   UNL     1     -41.905 -48.207  10.509  1.00  0.00     0.187 C 
HETATM   22  C   UNL     1     -40.660 -48.821  11.164  1.00  0.00     0.150 C 
ENDBRANCH   7  17
TORSDOF 4
ENDMDL
MODEL 5
REMARK VINA RESULT:      -5.2      2.554      4.527
REMARK  4 active torsions:
REMARK  status: ('A' for Active; 'I' for Inactive)
REMARK    1  A    between atoms: C_2  and  C_5 
REMARK       I    between atoms: C_5  and  N_7 
REMARK    2  A    between atoms: N_7  and  C_8 
REMARK    3  A    between atoms: C_8  and  C_9 
REMARK    4  A    between atoms: C_15  and  N_16 
ROOT
HETATM    1  C   UNL     1     -39.555 -50.077  12.961  1.00  0.00     0.004 A 
HETATM    2  C   UNL     1     -38.447 -50.910  13.241  1.00  0.00     0.014 A 
HETATM    3  C   UNL     1     -37.333 -50.917  12.421  1.00  0.00     0.018 A 
HETATM    4  C   UNL     1     -37.357 -50.082  11.334  1.00  0.00     0.089 A 
HETATM    5  N   UNL     1     -38.382 -49.248  11.058  1.00  0.00    -0.352 N 
ATOM      6  HN  UNL     1     -38.330 -48.642  10.239  1.00  0.00     0.166 HD
HETATM    7  C   UNL     1     -39.482 -49.207  11.857  1.00  0.00     0.111 A 
ENDROOT
BRANCH   1   8
HETATM    8  C   UNL     1     -40.752 -50.270  13.850  1.00  0.00     0.165 C 
BRANCH   8   9
HETATM    9  N   UNL     1     -41.291 -51.614  13.788  1.00  0.00    -0.356 N 
HETATM   10  C   UNL     1     -42.637 -51.805  13.561  1.00  0.00     0.225 C 
HETATM   11  O   UNL     1     -43.383 -50.859  13.315  1.00  0.00    -0.273 OA
HETATM   12  H   UNL     1     -40.714 -52.376  14.122  1.00  0.00     0.162 HD
BRANCH  10  13
HETATM   13  C   UNL     1     -43.138 -53.256  13.660  1.00  0.00     0.030 C 
HETATM   14  C   UNL     1     -44.100 -53.534  12.491  1.00  0.00     0.024 C 
HETATM   15  C   UNL     1     -43.897 -53.466  14.978  1.00  0.00     0.024 C 
HETATM   16  C   UNL     1     -41.955 -54.228  13.572  1.00  0.00     0.024 C 
ENDBRANCH  10  13
ENDBRANCH   8   9
ENDBRANCH   1   8
BRANCH   7  17
HETATM   17  N   UNL     1     -40.404 -48.246  11.505  1.00  0.00    -0.363 N 
HETATM   18  C   UNL     1     -41.735 -48.699  11.043  1.00  0.00     0.150 C 
HETATM   19  C   UNL     1     -42.273 -47.764   9.946  1.00  0.00     0.187 C 
HETATM   20  O   UNL     1     -42.279 -46.391  10.369  1.00  0.00    -0.388 OA
HETATM   21  C   UNL     1     -40.945 -45.983  10.687  1.00  0.00     0.187 C 
HETATM   22  C   UNL     1     -40.350 -46.820  11.827  1.00  0.00     0.150 C 
ENDBRANCH   7  17
TORSDOF 4
ENDMDL
MODEL 6
REMARK VINA RESULT:      -5.2      1.608      2.204
REMARK  4 active torsions:
REMARK  status: ('A' for Active; 'I' for Inactive)
REMARK    1  A    between atoms: C_2  and  C_5 
REMARK       I    between atoms: C_5  and  N_7 
REMARK    2  A    between atoms: N_7  and  C_8 
REMARK    3  A    between atoms: C_8  and  C_9 
REMARK    4  A    between atoms: C_15  and  N_16 
ROOT
HETATM    1  C   UNL     1     -42.094 -49.448  12.461  1.00  0.00     0.004 A 
HETATM    2  C   UNL     1     -43.189 -48.636  12.086  1.00  0.00     0.014 A 
HETATM    3  C   UNL     1     -43.042 -47.270  11.924  1.00  0.00     0.018 A 
HETATM    4  C   UNL     1     -41.793 -46.749  12.141  1.00  0.00     0.089 A 
HETATM    5  N   UNL     1     -40.719 -47.500  12.464  1.00  0.00    -0.352 N 
ATOM      6  HN  UNL     1     -39.813 -47.051  12.598  1.00  0.00     0.166 HD
HETATM    7  C   UNL     1     -40.829 -48.848  12.612  1.00  0.00     0.111 A 
ENDROOT
BRANCH   1   8
HETATM    8  C   UNL     1     -42.421 -50.889  12.737  1.00  0.00     0.165 C 
BRANCH   8   9
HETATM    9  N   UNL     1     -43.848 -51.144  12.789  1.00  0.00    -0.356 N 
HETATM   10  C   UNL     1     -44.414 -51.645  13.941  1.00  0.00     0.225 C 
HETATM   11  O   UNL     1     -43.751 -51.796  14.966  1.00  0.00    -0.273 OA
HETATM   12  H   UNL     1     -44.363 -51.152  11.918  1.00  0.00     0.162 HD
BRANCH  10  13
HETATM   13  C   UNL     1     -45.903 -52.021  13.851  1.00  0.00     0.030 C 
HETATM   14  C   UNL     1     -46.039 -53.552  13.935  1.00  0.00     0.024 C 
HETATM   15  C   UNL     1     -46.489 -51.552  12.512  1.00  0.00     0.024 C 
HETATM   16  C   UNL     1     -46.677 -51.389  15.015  1.00  0.00     0.024 C 
ENDBRANCH  10  13
ENDBRANCH   8   9
ENDBRANCH   1   8
BRANCH   7  17
HETATM   17  N   UNL     1     -39.637 -49.493  12.851  1.00  0.00    -0.363 N 
HETATM   18  C   UNL     1     -38.489 -49.177  11.971  1.00  0.00     0.150 C 
HETATM   19  C   UNL     1     -37.627 -50.428  11.735  1.00  0.00     0.187 C 
HETATM   20  O   UNL     1     -37.218 -51.037  12.971  1.00  0.00    -0.388 OA
HETATM   21  C   UNL     1     -38.375 -51.427  13.717  1.00  0.00     0.187 C 
HETATM   22  C   UNL     1     -39.262 -50.223  14.061  1.00  0.00     0.150 C 
ENDBRANCH   7  17
TORSDOF 4
ENDMDL
MODEL 7
REMARK VINA RESULT:      -5.2      2.620      6.601
REMARK  4 active torsions:
REMARK  status: ('A' for Active; 'I' for Inactive)
REMARK    1  A    between atoms: C_2  and  C_5 
REMARK       I    between atoms: C_5  and  N_7 
REMARK    2  A    between atoms: N_7  and  C_8 
REMARK    3  A    between atoms: C_8  and  C_9 
REMARK    4  A    between atoms: C_15  and  N_16 
ROOT
HETATM    1  C   UNL     1     -40.638 -53.751  13.664  1.00  0.00     0.004 A 
HETATM    2  C   UNL     1     -39.366 -54.200  14.089  1.00  0.00     0.014 A 
HETATM    3  C   UNL     1     -39.223 -54.958  15.237  1.00  0.00     0.018 A 
HETATM    4  C   UNL     1     -40.367 -55.252  15.934  1.00  0.00     0.089 A 
HETATM    5  N   UNL     1     -41.600 -54.871  15.536  1.00  0.00    -0.352 N 
ATOM      6  HN  UNL     1     -42.412 -55.135  16.094  1.00  0.00     0.166 HD
HETATM    7  C   UNL     1     -41.772 -54.141  14.402  1.00  0.00     0.111 A 
ENDROOT
BRANCH   1   8
HETATM    8  C   UNL     1     -40.636 -52.822  12.482  1.00  0.00     0.165 C 
BRANCH   8   9
HETATM    9  N   UNL     1     -39.731 -51.701  12.647  1.00  0.00    -0.356 N 
HETATM   10  C   UNL     1     -40.094 -50.453  12.190  1.00  0.00     0.225 C 
HETATM   11  O   UNL     1     -41.213 -50.244  11.725  1.00  0.00    -0.273 OA
HETATM   12  H   UNL     1     -38.770 -51.896  12.900  1.00  0.00     0.162 HD
BRANCH  10  13
HETATM   13  C   UNL     1     -39.012 -49.363  12.276  1.00  0.00     0.030 C 
HETATM   14  C   UNL     1     -38.582 -49.200  13.745  1.00  0.00     0.024 C 
HETATM   15  C   UNL     1     -39.569 -48.021  11.778  1.00  0.00     0.024 C 
HETATM   16  C   UNL     1     -37.790 -49.767  11.443  1.00  0.00     0.024 C 
ENDBRANCH  10  13
ENDBRANCH   8   9
ENDBRANCH   1   8
BRANCH   7  17
HETATM   17  N   UNL     1     -43.088 -53.904  14.072  1.00  0.00    -0.363 N 
HETATM   18  C   UNL     1     -44.118 -54.793  14.653  1.00  0.00     0.150 C 
HETATM   19  C   UNL     1     -45.262 -55.024  13.650  1.00  0.00     0.187 C 
HETATM   20  O   UNL     1     -45.812 -53.786  13.174  1.00  0.00    -0.388 OA
HETATM   21  C   UNL     1     -44.791 -53.029  12.518  1.00  0.00     0.187 C 
HETATM   22  C   UNL     1     -43.636 -52.690  13.469  1.00  0.00     0.150 C 
ENDBRANCH   7  17
TORSDOF 4
ENDMDL
MODEL 8
REMARK VINA RESULT:      -5.2      2.024      4.729
REMARK  4 active torsions:
REMARK  status: ('A' for Active; 'I' for Inactive)
REMARK    1  A    between atoms: C_2  and  C_5 
REMARK       I    between atoms: C_5  and  N_7 
REMARK    2  A    between atoms: N_7  and  C_8 
REMARK    3  A    between atoms: C_8  and  C_9 
REMARK    4  A    between atoms: C_15  and  N_16 
ROOT
HETATM    1  C   UNL     1     -43.820 -50.967  13.415  1.00  0.00     0.004 A 
HETATM    2  C   UNL     1     -45.219 -51.141  13.527  1.00  0.00     0.014 A 
HETATM    3  C   UNL     1     -45.846 -52.253  12.992  1.00  0.00     0.018 A 
HETATM    4  C   UNL     1     -45.048 -53.168  12.355  1.00  0.00     0.089 A 
HETATM    5  N   UNL     1     -43.707 -53.051  12.262  1.00  0.00    -0.352 N 
ATOM      6  HN  UNL     1     -43.171 -53.776  11.786  1.00  0.00     0.166 HD
HETATM    7  C   UNL     1     -43.062 -51.978  12.795  1.00  0.00     0.111 A 
ENDROOT
BRANCH   1   8
HETATM    8  C   UNL     1     -43.289 -49.653  13.917  1.00  0.00     0.165 C 
BRANCH   8   9
HETATM    9  N   UNL     1     -43.157 -48.661  12.868  1.00  0.00    -0.356 N 
HETATM   10  C   UNL     1     -42.038 -47.857  12.820  1.00  0.00     0.225 C 
HETATM   11  O   UNL     1     -41.099 -48.024  13.596  1.00  0.00    -0.273 OA
HETATM   12  H   UNL     1     -43.978 -48.432  12.321  1.00  0.00     0.162 HD
BRANCH  10  13
HETATM   13  C   UNL     1     -42.057 -46.738  11.764  1.00  0.00     0.030 C 
HETATM   14  C   UNL     1     -43.163 -47.038  10.737  1.00  0.00     0.024 C 
HETATM   15  C   UNL     1     -40.710 -46.680  11.029  1.00  0.00     0.024 C 
HETATM   16  C   UNL     1     -42.351 -45.389  12.432  1.00  0.00     0.024 C 
ENDBRANCH  10  13
ENDBRANCH   8   9
ENDBRANCH   1   8
BRANCH   7  17
HETATM   17  N   UNL     1     -41.690 -52.038  12.706  1.00  0.00    -0.363 N 
HETATM   18  C   UNL     1     -41.003 -53.185  13.341  1.00  0.00     0.150 C 
HETATM   19  C   UNL     1     -39.649 -52.748  13.926  1.00  0.00     0.187 C 
HETATM   20  O   UNL     1     -38.829 -52.094  12.944  1.00  0.00    -0.388 OA
HETATM   21  C   UNL     1     -39.501 -50.928  12.459  1.00  0.00     0.187 C 
HETATM   22  C   UNL     1     -40.837 -51.279  11.791  1.00  0.00     0.150 C 
ENDBRANCH   7  17
TORSDOF 4
ENDMDL
MODEL 9
REMARK VINA RESULT:      -5.0      3.519      5.343
REMARK  4 active torsions:
REMARK  status: ('A' for Active; 'I' for Inactive)
REMARK    1  A    between atoms: C_2  and  C_5 
REMARK       I    between atoms: C_5  and  N_7 
REMARK    2  A    between atoms: N_7  and  C_8 
REMARK    3  A    between atoms: C_8  and  C_9 
REMARK    4  A    between atoms: C_15  and  N_16 
ROOT
HETATM    1  C   UNL     1     -42.336 -47.255  10.181  1.00  0.00     0.004 A 
HETATM    2  C   UNL     1     -43.080 -47.701   9.064  1.00  0.00     0.014 A 
HETATM    3  C   UNL     1     -44.033 -46.892   8.471  1.00  0.00     0.018 A 
HETATM    4  C   UNL     1     -44.218 -45.648   9.016  1.00  0.00     0.089 A 
HETATM    5  N   UNL     1     -43.500 -45.177  10.058  1.00  0.00    -0.352 N 
ATOM      6  HN  UNL     1     -43.678 -44.236  10.407  1.00  0.00     0.166 HD
HETATM    7  C   UNL     1     -42.543 -45.943  10.649  1.00  0.00     0.111 A 
ENDROOT
BRANCH   1   8
HETATM    8  C   UNL     1     -41.435 -48.280  10.811  1.00  0.00     0.165 C 
BRANCH   8   9
HETATM    9  N   UNL     1     -42.167 -49.366  11.434  1.00  0.00    -0.356 N 
HETATM   10  C   UNL     1     -41.996 -49.628  12.777  1.00  0.00     0.225 C 
HETATM   11  O   UNL     1     -41.304 -48.899  13.486  1.00  0.00    -0.273 OA
HETATM   12  H   UNL     1     -42.622 -50.042  10.833  1.00  0.00     0.162 HD
BRANCH  10  13
HETATM   13  C   UNL     1     -42.697 -50.888  13.312  1.00  0.00     0.030 C 
HETATM   14  C   UNL     1     -42.206 -51.163  14.745  1.00  0.00     0.024 C 
HETATM   15  C   UNL     1     -42.352 -52.100  12.435  1.00  0.00     0.024 C 
HETATM   16  C   UNL     1     -44.215 -50.673  13.340  1.00  0.00     0.024 C 
ENDBRANCH  10  13
ENDBRANCH   8   9
ENDBRANCH   1   8
BRANCH   7  17
HETATM   17  N   UNL     1     -41.831 -45.301  11.637  1.00  0.00    -0.363 N 
HETATM   18  C   UNL     1     -40.603 -44.575  11.246  1.00  0.00     0.150 C 
HETATM   19  C   UNL     1     -39.536 -44.683  12.348  1.00  0.00     0.187 C 
HETATM   20  O   UNL     1     -40.041 -44.257  13.624  1.00  0.00    -0.388 OA
HETATM   21  C   UNL     1     -41.152 -45.078  13.997  1.00  0.00     0.187 C 
HETATM   22  C   UNL     1     -42.299 -44.976  12.984  1.00  0.00     0.150 C 
ENDBRANCH   7  17
TORSDOF 4
ENDMDL
