MODEL 1
REMARK VINA RESULT:      -5.8      0.000      0.000
REMARK  2 active torsions:
REMARK  status: ('A' for Active; 'I' for Inactive)
REMARK    1  A    between atoms: N_4  and  C_9 
REMARK    2  A    between atoms: C_17  and  C_18 
REMARK       I    between atoms: C_18  and  N_20 
ROOT
HETATM    1  C   UNL     1     -43.921 -52.074  13.607  1.00  0.00     0.120 A 
HETATM    2  N   UNL     1     -44.757 -52.087  12.537  1.00  0.00    -0.346 N 
ATOM      3  HN  UNL     1     -44.398 -52.290  11.604  1.00  0.00     0.167 HD
HETATM    4  C   UNL     1     -46.075 -51.827  12.726  1.00  0.00     0.007 A 
HETATM    5  C   UNL     1     -46.977 -51.866  11.526  1.00  0.00     0.068 C 
HETATM    6  C   UNL     1     -46.611 -51.495  13.960  1.00  0.00     0.032 A 
HETATM    7  C   UNL     1     -45.773 -51.457  15.074  1.00  0.00    -0.041 A 
HETATM    8  C   UNL     1     -46.324 -50.977  16.389  1.00  0.00     0.049 C 
HETATM    9  C   UNL     1     -44.420 -51.792  14.903  1.00  0.00     0.081 A 
ENDROOT
BRANCH   1  10
HETATM   10  N   UNL     1     -42.554 -52.190  13.354  1.00  0.00    -0.362 N 
HETATM   11  C   UNL     1     -41.997 -51.417  12.230  1.00  0.00     0.156 C 
HETATM   12  C   UNL     1     -40.488 -51.198  12.512  1.00  0.00     0.136 C 
HETATM   13  C   UNL     1     -40.264 -50.179  13.634  1.00  0.00     0.041 C 
HETATM   14  O   UNL     1     -39.791 -52.444  12.769  1.00  0.00    -0.378 OA
HETATM   15  C   UNL     1     -40.425 -53.267  13.770  1.00  0.00     0.136 C 
HETATM   16  C   UNL     1     -41.918 -53.521  13.432  1.00  0.00     0.156 C 
HETATM   17  C   UNL     1     -39.647 -54.565  13.919  1.00  0.00     0.041 C 
ENDBRANCH   1  10
BRANCH   9  18
HETATM   18  C   UNL     1     -43.532 -51.748  16.099  1.00  0.00     0.253 C 
HETATM   19  O   UNL     1     -42.952 -50.728  16.438  1.00  0.00    -0.268 OA
HETATM   20  N   UNL     1     -43.388 -52.903  16.802  1.00  0.00    -0.366 N 
HETATM   21  H   UNL     1     -44.095 -53.610  16.650  1.00  0.00     0.159 HD
HETATM   22  H   UNL     1     -42.960 -52.833  17.713  1.00  0.00     0.159 HD
ENDBRANCH   9  18
TORSDOF 2
ENDMDL
MODEL 2
REMARK VINA RESULT:      -5.7      3.922      5.857
REMARK  2 active torsions:
REMARK  status: ('A' for Active; 'I' for Inactive)
REMARK    1  A    between atoms: N_4  and  C_9 
REMARK    2  A    between atoms: C_17  and  C_18 
REMARK       I    between atoms: C_18  and  N_20 
ROOT
HETATM    1  C   UNL     1     -42.660 -49.346  12.134  1.00  0.00     0.120 A 
HETATM    2  N   UNL     1     -43.829 -49.702  12.726  1.00  0.00    -0.346 N 
ATOM      3  HN  UNL     1     -44.643 -49.091  12.671  1.00  0.00     0.167 HD
HETATM    4  C   UNL     1     -43.899 -50.882  13.393  1.00  0.00     0.007 A 
HETATM    5  C   UNL     1     -45.209 -51.256  14.023  1.00  0.00     0.068 C 
HETATM    6  C   UNL     1     -42.813 -51.729  13.546  1.00  0.00     0.032 A 
HETATM    7  C   UNL     1     -41.595 -51.381  12.962  1.00  0.00    -0.041 A 
HETATM    8  C   UNL     1     -40.384 -52.234  13.230  1.00  0.00     0.049 C 
HETATM    9  C   UNL     1     -41.529 -50.197  12.211  1.00  0.00     0.081 A 
ENDROOT
BRANCH   1  10
HETATM   10  N   UNL     1     -42.580 -48.062  11.594  1.00  0.00    -0.362 N 
HETATM   11  C   UNL     1     -42.138 -46.973  12.482  1.00  0.00     0.156 C 
HETATM   12  C   UNL     1     -41.541 -45.852  11.590  1.00  0.00     0.136 C 
HETATM   13  C   UNL     1     -40.179 -46.255  11.014  1.00  0.00     0.041 C 
HETATM   14  O   UNL     1     -42.460 -45.428  10.553  1.00  0.00    -0.378 OA
HETATM   15  C   UNL     1     -43.005 -46.516   9.779  1.00  0.00     0.136 C 
HETATM   16  C   UNL     1     -43.650 -47.592  10.692  1.00  0.00     0.156 C 
HETATM   17  C   UNL     1     -43.993 -45.965   8.763  1.00  0.00     0.041 C 
ENDBRANCH   1  10
BRANCH   9  18
HETATM   18  C   UNL     1     -40.223 -49.832  11.592  1.00  0.00     0.253 C 
HETATM   19  O   UNL     1     -39.319 -49.327  12.238  1.00  0.00    -0.268 OA
HETATM   20  N   UNL     1     -40.081 -50.083  10.263  1.00  0.00    -0.366 N 
HETATM   21  H   UNL     1     -40.730 -50.746   9.862  1.00  0.00     0.159 HD
HETATM   22  H   UNL     1     -39.146 -50.031   9.887  1.00  0.00     0.159 HD
ENDBRANCH   9  18
TORSDOF 2
ENDMDL
MODEL 3
REMARK VINA RESULT:      -5.6      2.459      4.410
REMARK  2 active torsions:
REMARK  status: ('A' for Active; 'I' for Inactive)
REMARK    1  A    between atoms: N_4  and  C_9 
REMARK    2  A    between atoms: C_17  and  C_18 
REMARK       I    between atoms: C_18  and  N_20 
ROOT
HETATM    1  C   UNL     1     -42.941 -50.800  13.045  1.00  0.00     0.120 A 
HETATM    2  N   UNL     1     -44.099 -50.530  13.701  1.00  0.00    -0.346 N 
ATOM      3  HN  UNL     1     -44.480 -49.583  13.708  1.00  0.00     0.167 HD
HETATM    4  C   UNL     1     -44.743 -51.535  14.346  1.00  0.00     0.007 A 
HETATM    5  C   UNL     1     -46.030 -51.208  15.048  1.00  0.00     0.068 C 
HETATM    6  C   UNL     1     -44.249 -52.828  14.416  1.00  0.00     0.032 A 
HETATM    7  C   UNL     1     -43.052 -53.130  13.766  1.00  0.00    -0.041 A 
HETATM    8  C   UNL     1     -42.449 -54.498  13.942  1.00  0.00     0.049 C 
HETATM    9  C   UNL     1     -42.413 -52.115  13.036  1.00  0.00     0.081 A 
ENDROOT
BRANCH   1  10
HETATM   10  N   UNL     1     -42.230 -49.718  12.529  1.00  0.00    -0.362 N 
HETATM   11  C   UNL     1     -41.217 -49.087  13.394  1.00  0.00     0.156 C 
HETATM   12  C   UNL     1     -40.179 -48.392  12.474  1.00  0.00     0.136 C 
HETATM   13  C   UNL     1     -39.282 -49.411  11.763  1.00  0.00     0.041 C 
HETATM   14  O   UNL     1     -40.802 -47.477  11.537  1.00  0.00    -0.378 OA
HETATM   15  C   UNL     1     -41.893 -48.060  10.794  1.00  0.00     0.136 C 
HETATM   16  C   UNL     1     -42.946 -48.694  11.741  1.00  0.00     0.156 C 
HETATM   17  C   UNL     1     -42.505 -47.004   9.888  1.00  0.00     0.041 C 
ENDBRANCH   1  10
BRANCH   9  18
HETATM   18  C   UNL     1     -41.135 -52.448  12.346  1.00  0.00     0.253 C 
HETATM   19  O   UNL     1     -40.069 -52.484  12.940  1.00  0.00    -0.268 OA
HETATM   20  N   UNL     1     -41.204 -52.708  11.013  1.00  0.00    -0.366 N 
HETATM   21  H   UNL     1     -42.119 -52.942  10.651  1.00  0.00     0.159 HD
HETATM   22  H   UNL     1     -40.392 -53.128  10.587  1.00  0.00     0.159 HD
ENDBRANCH   9  18
TORSDOF 2
ENDMDL
MODEL 4
REMARK VINA RESULT:      -5.6      2.127      5.250
REMARK  2 active torsions:
REMARK  status: ('A' for Active; 'I' for Inactive)
REMARK    1  A    between atoms: N_4  and  C_9 
REMARK    2  A    between atoms: C_17  and  C_18 
REMARK       I    between atoms: C_18  and  N_20 
ROOT
HETATM    1  C   UNL     1     -42.017 -50.803  12.574  1.00  0.00     0.120 A 
HETATM    2  N   UNL     1     -42.363 -49.773  11.759  1.00  0.00    -0.346 N 
ATOM      3  HN  UNL     1     -43.344 -49.573  11.568  1.00  0.00     0.167 HD
HETATM    4  C   UNL     1     -41.385 -49.014  11.203  1.00  0.00     0.007 A 
HETATM    5  C   UNL     1     -41.799 -47.873  10.319  1.00  0.00     0.068 C 
HETATM    6  C   UNL     1     -40.035 -49.270  11.383  1.00  0.00     0.032 A 
HETATM    7  C   UNL     1     -39.650 -50.331  12.202  1.00  0.00    -0.041 A 
HETATM    8  C   UNL     1     -38.191 -50.688  12.301  1.00  0.00     0.049 C 
HETATM    9  C   UNL     1     -40.652 -51.080  12.839  1.00  0.00     0.081 A 
ENDROOT
BRANCH   1  10
HETATM   10  N   UNL     1     -43.037 -51.652  13.001  1.00  0.00    -0.362 N 
HETATM   11  C   UNL     1     -43.238 -52.909  12.257  1.00  0.00     0.156 C 
HETATM   12  C   UNL     1     -43.925 -53.918  13.215  1.00  0.00     0.136 C 
HETATM   13  C   UNL     1     -42.956 -54.429  14.286  1.00  0.00     0.041 C 
HETATM   14  O   UNL     1     -45.138 -53.381  13.799  1.00  0.00    -0.378 OA
HETATM   15  C   UNL     1     -44.968 -52.081  14.400  1.00  0.00     0.136 C 
HETATM   16  C   UNL     1     -44.336 -51.075  13.401  1.00  0.00     0.156 C 
HETATM   17  C   UNL     1     -46.307 -51.592  14.929  1.00  0.00     0.041 C 
ENDBRANCH   1  10
BRANCH   9  18
HETATM   18  C   UNL     1     -40.232 -52.213  13.711  1.00  0.00     0.253 C 
HETATM   19  O   UNL     1     -39.887 -53.290  13.251  1.00  0.00    -0.268 OA
HETATM   20  N   UNL     1     -40.254 -51.998  15.054  1.00  0.00    -0.366 N 
HETATM   21  H   UNL     1     -40.266 -51.031  15.350  1.00  0.00     0.159 HD
HETATM   22  H   UNL     1     -39.783 -52.677  15.632  1.00  0.00     0.159 HD
ENDBRANCH   9  18
TORSDOF 2
ENDMDL
MODEL 5
REMARK VINA RESULT:      -5.5      2.100      5.148
REMARK  2 active torsions:
REMARK  status: ('A' for Active; 'I' for Inactive)
REMARK    1  A    between atoms: N_4  and  C_9 
REMARK    2  A    between atoms: C_17  and  C_18 
REMARK       I    between atoms: C_18  and  N_20 
ROOT
HETATM    1  C   UNL     1     -42.381 -51.285  13.009  1.00  0.00     0.120 A 
HETATM    2  N   UNL     1     -42.437 -50.306  12.070  1.00  0.00    -0.346 N 
ATOM      3  HN  UNL     1     -43.333 -50.023  11.672  1.00  0.00     0.167 HD
HETATM    4  C   UNL     1     -41.287 -49.709  11.668  1.00  0.00     0.007 A 
HETATM    5  C   UNL     1     -41.384 -48.618  10.640  1.00  0.00     0.068 C 
HETATM    6  C   UNL     1     -40.037 -50.086  12.133  1.00  0.00     0.032 A 
HETATM    7  C   UNL     1     -39.947 -51.101  13.086  1.00  0.00    -0.041 A 
HETATM    8  C   UNL     1     -38.588 -51.597  13.501  1.00  0.00     0.049 C 
HETATM    9  C   UNL     1     -41.136 -51.678  13.561  1.00  0.00     0.081 A 
ENDROOT
BRANCH   1  10
HETATM   10  N   UNL     1     -43.559 -51.980  13.281  1.00  0.00    -0.362 N 
HETATM   11  C   UNL     1     -43.891 -53.129  12.421  1.00  0.00     0.156 C 
HETATM   12  C   UNL     1     -44.815 -54.074  13.234  1.00  0.00     0.136 C 
HETATM   13  C   UNL     1     -44.042 -54.815  14.331  1.00  0.00     0.041 C 
HETATM   14  O   UNL     1     -45.974 -53.384  13.766  1.00  0.00    -0.378 OA
HETATM   15  C   UNL     1     -45.652 -52.176  14.485  1.00  0.00     0.136 C 
HETATM   16  C   UNL     1     -44.779 -51.223  13.627  1.00  0.00     0.156 C 
HETATM   17  C   UNL     1     -46.937 -51.509  14.948  1.00  0.00     0.041 C 
ENDBRANCH   1  10
BRANCH   9  18
HETATM   18  C   UNL     1     -41.029 -52.762  14.578  1.00  0.00     0.253 C 
HETATM   19  O   UNL     1     -40.795 -53.919  14.268  1.00  0.00    -0.268 OA
HETATM   20  N   UNL     1     -41.212 -52.407  15.878  1.00  0.00    -0.366 N 
HETATM   21  H   UNL     1     -41.114 -51.423  16.089  1.00  0.00     0.159 HD
HETATM   22  H   UNL     1     -40.943 -53.082  16.577  1.00  0.00     0.159 HD
ENDBRANCH   9  18
TORSDOF 2
ENDMDL
MODEL 6
REMARK VINA RESULT:      -5.4      2.194      3.865
REMARK  2 active torsions:
REMARK  status: ('A' for Active; 'I' for Inactive)
REMARK    1  A    between atoms: N_4  and  C_9 
REMARK    2  A    between atoms: C_17  and  C_18 
REMARK       I    between atoms: C_18  and  N_20 
ROOT
HETATM    1  C   UNL     1     -43.963 -52.483  15.048  1.00  0.00     0.120 A 
HETATM    2  N   UNL     1     -44.544 -51.826  16.084  1.00  0.00    -0.346 N 
ATOM      3  HN  UNL     1     -44.095 -51.805  16.999  1.00  0.00     0.167 HD
HETATM    4  C   UNL     1     -45.730 -51.197  15.886  1.00  0.00     0.007 A 
HETATM    5  C   UNL     1     -46.339 -50.464  17.047  1.00  0.00     0.068 C 
HETATM    6  C   UNL     1     -46.413 -51.234  14.680  1.00  0.00     0.032 A 
HETATM    7  C   UNL     1     -45.848 -51.916  13.603  1.00  0.00    -0.041 A 
HETATM    8  C   UNL     1     -46.642 -52.063  12.332  1.00  0.00     0.049 C 
HETATM    9  C   UNL     1     -44.589 -52.511  13.776  1.00  0.00     0.081 A 
ENDROOT
BRANCH   1  10
HETATM   10  N   UNL     1     -42.829 -53.245  15.327  1.00  0.00    -0.362 N 
HETATM   11  C   UNL     1     -42.689 -53.791  16.688  1.00  0.00     0.156 C 
HETATM   12  C   UNL     1     -41.773 -55.041  16.602  1.00  0.00     0.136 C 
HETATM   13  C   UNL     1     -42.492 -56.224  15.945  1.00  0.00     0.041 C 
HETATM   14  O   UNL     1     -40.509 -54.751  15.953  1.00  0.00    -0.378 OA
HETATM   15  C   UNL     1     -40.649 -54.082  14.683  1.00  0.00     0.136 C 
HETATM   16  C   UNL     1     -41.518 -52.802  14.810  1.00  0.00     0.156 C 
HETATM   17  C   UNL     1     -39.269 -53.778  14.121  1.00  0.00     0.041 C 
ENDBRANCH   1  10
BRANCH   9  18
HETATM   18  C   UNL     1     -43.994 -53.239  12.619  1.00  0.00     0.253 C 
HETATM   19  O   UNL     1     -44.280 -54.398  12.367  1.00  0.00    -0.268 OA
HETATM   20  N   UNL     1     -43.105 -52.552  11.852  1.00  0.00    -0.366 N 
HETATM   21  H   UNL     1     -43.130 -51.545  11.932  1.00  0.00     0.159 HD
HETATM   22  H   UNL     1     -42.858 -52.962  10.963  1.00  0.00     0.159 HD
ENDBRANCH   9  18
TORSDOF 2
ENDMDL
MODEL 7
REMARK VINA RESULT:      -5.4      2.301      5.723
REMARK  2 active torsions:
REMARK  status: ('A' for Active; 'I' for Inactive)
REMARK    1  A    between atoms: N_4  and  C_9 
REMARK    2  A    between atoms: C_17  and  C_18 
REMARK       I    between atoms: C_18  and  N_20 
ROOT
HETATM    1  C   UNL     1     -41.320 -52.522  14.522  1.00  0.00     0.120 A 
HETATM    2  N   UNL     1     -40.685 -52.802  15.689  1.00  0.00    -0.346 N 
ATOM      3  HN  UNL     1     -41.195 -53.217  16.468  1.00  0.00     0.167 HD
HETATM    4  C   UNL     1     -39.361 -52.521  15.804  1.00  0.00     0.007 A 
HETATM    5  C   UNL     1     -38.684 -52.858  17.101  1.00  0.00     0.068 C 
HETATM    6  C   UNL     1     -38.628 -51.910  14.800  1.00  0.00     0.032 A 
HETATM    7  C   UNL     1     -39.258 -51.596  13.597  1.00  0.00    -0.041 A 
HETATM    8  C   UNL     1     -38.499 -50.822  12.552  1.00  0.00     0.049 C 
HETATM    9  C   UNL     1     -40.609 -51.945  13.440  1.00  0.00     0.081 A 
ENDROOT
BRANCH   1  10
HETATM   10  N   UNL     1     -42.705 -52.678  14.493  1.00  0.00    -0.362 N 
HETATM   11  C   UNL     1     -43.516 -51.748  15.300  1.00  0.00     0.156 C 
HETATM   12  C   UNL     1     -44.930 -51.683  14.663  1.00  0.00     0.136 C 
HETATM   13  C   UNL     1     -44.920 -50.905  13.343  1.00  0.00     0.041 C 
HETATM   14  O   UNL     1     -45.523 -52.997  14.509  1.00  0.00    -0.378 OA
HETATM   15  C   UNL     1     -44.664 -53.948  13.846  1.00  0.00     0.136 C 
HETATM   16  C   UNL     1     -43.279 -54.038  14.540  1.00  0.00     0.156 C 
HETATM   17  C   UNL     1     -45.360 -55.298  13.789  1.00  0.00     0.041 C 
ENDBRANCH   1  10
BRANCH   9  18
HETATM   18  C   UNL     1     -41.275 -51.604  12.150  1.00  0.00     0.253 C 
HETATM   19  O   UNL     1     -41.792 -50.515  11.957  1.00  0.00    -0.268 OA
HETATM   20  N   UNL     1     -41.287 -52.567  11.191  1.00  0.00    -0.366 N 
HETATM   21  H   UNL     1     -40.613 -53.313  11.298  1.00  0.00     0.159 HD
HETATM   22  H   UNL     1     -41.549 -52.280  10.259  1.00  0.00     0.159 HD
ENDBRANCH   9  18
TORSDOF 2
ENDMDL
MODEL 8
REMARK VINA RESULT:      -5.3      4.296      5.290
REMARK  2 active torsions:
REMARK  status: ('A' for Active; 'I' for Inactive)
REMARK    1  A    between atoms: N_4  and  C_9 
REMARK    2  A    between atoms: C_17  and  C_18 
REMARK       I    between atoms: C_18  and  N_20 
ROOT
HETATM    1  C   UNL     1     -41.329 -48.433  11.388  1.00  0.00     0.120 A 
HETATM    2  N   UNL     1     -42.017 -48.561  10.224  1.00  0.00    -0.346 N 
ATOM      3  HN  UNL     1     -42.020 -49.448   9.721  1.00  0.00     0.167 HD
HETATM    4  C   UNL     1     -42.701 -47.493   9.740  1.00  0.00     0.007 A 
HETATM    5  C   UNL     1     -43.466 -47.671   8.460  1.00  0.00     0.068 C 
HETATM    6  C   UNL     1     -42.692 -46.250  10.351  1.00  0.00     0.032 A 
HETATM    7  C   UNL     1     -41.980 -46.085  11.539  1.00  0.00    -0.041 A 
HETATM    8  C   UNL     1     -41.866 -44.709  12.139  1.00  0.00     0.049 C 
HETATM    9  C   UNL     1     -41.327 -47.200  12.087  1.00  0.00     0.081 A 
ENDROOT
BRANCH   1  10
HETATM   10  N   UNL     1     -40.515 -49.499  11.771  1.00  0.00    -0.362 N 
HETATM   11  C   UNL     1     -39.144 -49.541  11.234  1.00  0.00     0.156 C 
HETATM   12  C   UNL     1     -38.278 -50.371  12.218  1.00  0.00     0.136 C 
HETATM   13  C   UNL     1     -38.002 -49.602  13.514  1.00  0.00     0.041 C 
HETATM   14  O   UNL     1     -38.847 -51.679  12.480  1.00  0.00    -0.378 OA
HETATM   15  C   UNL     1     -40.237 -51.642  12.865  1.00  0.00     0.136 C 
HETATM   16  C   UNL     1     -41.089 -50.858  11.832  1.00  0.00     0.156 C 
HETATM   17  C   UNL     1     -40.742 -53.063  13.059  1.00  0.00     0.041 C 
ENDBRANCH   1  10
BRANCH   9  18
HETATM   18  C   UNL     1     -40.567 -47.013  13.355  1.00  0.00     0.253 C 
HETATM   19  O   UNL     1     -39.438 -46.550  13.372  1.00  0.00    -0.268 OA
HETATM   20  N   UNL     1     -41.188 -47.390  14.505  1.00  0.00    -0.366 N 
HETATM   21  H   UNL     1     -42.193 -47.488  14.458  1.00  0.00     0.159 HD
HETATM   22  H   UNL     1     -40.771 -47.082  15.371  1.00  0.00     0.159 HD
ENDBRANCH   9  18
TORSDOF 2
ENDMDL
MODEL 9
REMARK VINA RESULT:      -5.3      1.631      2.010
REMARK  2 active torsions:
REMARK  status: ('A' for Active; 'I' for Inactive)
REMARK    1  A    between atoms: N_4  and  C_9 
REMARK    2  A    between atoms: C_17  and  C_18 
REMARK       I    between atoms: C_18  and  N_20 
ROOT
HETATM    1  C   UNL     1     -44.307 -50.844  13.671  1.00  0.00     0.120 A 
HETATM    2  N   UNL     1     -45.033 -51.128  12.560  1.00  0.00    -0.346 N 
ATOM      3  HN  UNL     1     -44.615 -51.043  11.633  1.00  0.00     0.167 HD
HETATM    4  C   UNL     1     -46.324 -51.526  12.697  1.00  0.00     0.007 A 
HETATM    5  C   UNL     1     -47.096 -51.848  11.450  1.00  0.00     0.068 C 
HETATM    6  C   UNL     1     -46.962 -51.610  13.925  1.00  0.00     0.032 A 
HETATM    7  C   UNL     1     -46.245 -51.308  15.082  1.00  0.00    -0.041 A 
HETATM    8  C   UNL     1     -46.966 -51.278  16.403  1.00  0.00     0.049 C 
HETATM    9  C   UNL     1     -44.890 -50.963  14.958  1.00  0.00     0.081 A 
ENDROOT
BRANCH   1  10
HETATM   10  N   UNL     1     -43.040 -50.291  13.485  1.00  0.00    -0.362 N 
HETATM   11  C   UNL     1     -42.957 -48.977  12.824  1.00  0.00     0.156 C 
HETATM   12  C   UNL     1     -41.631 -48.308  13.272  1.00  0.00     0.136 C 
HETATM   13  C   UNL     1     -41.700 -47.836  14.728  1.00  0.00     0.041 C 
HETATM   14  O   UNL     1     -40.481 -49.157  13.034  1.00  0.00    -0.378 OA
HETATM   15  C   UNL     1     -40.628 -50.493  13.558  1.00  0.00     0.136 C 
HETATM   16  C   UNL     1     -41.931 -51.162  13.046  1.00  0.00     0.156 C 
HETATM   17  C   UNL     1     -39.394 -51.309  13.206  1.00  0.00     0.041 C 
ENDBRANCH   1  10
BRANCH   9  18
HETATM   18  C   UNL     1     -44.132 -50.641  16.200  1.00  0.00     0.253 C 
HETATM   19  O   UNL     1     -44.128 -49.520  16.684  1.00  0.00    -0.268 OA
HETATM   20  N   UNL     1     -43.434 -51.657  16.776  1.00  0.00    -0.366 N 
HETATM   21  H   UNL     1     -43.703 -52.593  16.505  1.00  0.00     0.159 HD
HETATM   22  H   UNL     1     -43.093 -51.502  17.713  1.00  0.00     0.159 HD
ENDBRANCH   9  18
TORSDOF 2
ENDMDL
