MODEL 1
REMARK VINA RESULT:      -5.6      0.000      0.000
REMARK  5 active torsions:
REMARK  status: ('A' for Active; 'I' for Inactive)
REMARK    1  A    between atoms: C_2  and  C_3 
REMARK    2  A    between atoms: C_3  and  O_4 
REMARK    3  A    between atoms: C_3  and  C_10 
REMARK    4  A    between atoms: O_4  and  C_5 
REMARK       I    between atoms: C_10  and  N_12 
REMARK    5  A    between atoms: N_12  and  C_13 
ROOT
HETATM    1  C   UNL     1     -41.631 -52.367  13.031  1.00  0.00     0.251 C 
HETATM    2  O   UNL     1     -41.323 -53.191  12.176  1.00  0.00    -0.270 OA
HETATM    3  N   UNL     1     -40.953 -51.176  13.257  1.00  0.00    -0.323 N 
HETATM    4  H   UNL     1     -41.356 -50.548  13.946  1.00  0.00     0.169 HD
ENDROOT
BRANCH   1   5
HETATM    5  C   UNL     1     -42.868 -52.618  13.941  1.00  0.00     0.213 C 
BRANCH   5   6
HETATM    6  C   UNL     1     -42.671 -53.988  14.623  1.00  0.00     0.037 C 
HETATM    7  C   UNL     1     -43.886 -54.893  14.685  1.00  0.00     0.008 C 
ENDBRANCH   5   6
BRANCH   5   8
HETATM    8  O   UNL     1     -43.242 -51.551  14.812  1.00  0.00    -0.371 OA
BRANCH   8   9
HETATM    9  C   UNL     1     -44.522 -50.939  14.633  1.00  0.00     0.122 C 
HETATM   10  C   UNL     1     -45.409 -51.287  15.839  1.00  0.00     0.032 C 
HETATM   11  C   UNL     1     -46.786 -51.662  15.300  1.00  0.00     0.002 C 
HETATM   12  C   UNL     1     -46.756 -51.403  13.804  1.00  0.00     0.002 C 
HETATM   13  C   UNL     1     -45.290 -51.477  13.432  1.00  0.00     0.032 C 
ENDBRANCH   8   9
ENDBRANCH   5   8
ENDBRANCH   1   5
BRANCH   3  14
HETATM   14  C   UNL     1     -39.714 -50.803  12.651  1.00  0.00     0.057 A 
HETATM   15  C   UNL     1     -38.482 -51.249  13.145  1.00  0.00     0.033 A 
HETATM   16  C   UNL     1     -37.284 -50.894  12.535  1.00  0.00     0.019 A 
HETATM   17  C   UNL     1     -37.342 -50.073  11.430  1.00  0.00     0.088 A 
HETATM   18  N   UNL     1     -38.495 -49.588  10.929  1.00  0.00    -0.368 N 
HETATM   19  C   UNL     1     -39.663 -49.944  11.540  1.00  0.00     0.032 A 
ATOM     20  HN  UNL     1     -38.496 -48.972  10.117  1.00  0.00     0.165 HD
HETATM   21  C   UNL     1     -40.889 -49.339  10.921  1.00  0.00     0.070 C 
ENDBRANCH   3  14
TORSDOF 5
ENDMDL
MODEL 2
REMARK VINA RESULT:      -5.6      2.056      3.468
REMARK  5 active torsions:
REMARK  status: ('A' for Active; 'I' for Inactive)
REMARK    1  A    between atoms: C_2  and  C_3 
REMARK    2  A    between atoms: C_3  and  O_4 
REMARK    3  A    between atoms: C_3  and  C_10 
REMARK    4  A    between atoms: O_4  and  C_5 
REMARK       I    between atoms: C_10  and  N_12 
REMARK    5  A    between atoms: N_12  and  C_13 
ROOT
HETATM    1  C   UNL     1     -42.310 -50.311  12.707  1.00  0.00     0.251 C 
HETATM    2  O   UNL     1     -42.449 -49.553  13.662  1.00  0.00    -0.270 OA
HETATM    3  N   UNL     1     -41.878 -49.918  11.447  1.00  0.00    -0.323 N 
HETATM    4  H   UNL     1     -41.736 -50.658  10.766  1.00  0.00     0.169 HD
ENDROOT
BRANCH   1   5
HETATM    5  C   UNL     1     -42.611 -51.828  12.871  1.00  0.00     0.213 C 
BRANCH   5   6
HETATM    6  C   UNL     1     -41.353 -52.602  12.426  1.00  0.00     0.037 C 
HETATM    7  C   UNL     1     -41.202 -54.013  12.959  1.00  0.00     0.008 C 
ENDBRANCH   5   6
BRANCH   5   8
HETATM    8  O   UNL     1     -43.165 -52.233  14.123  1.00  0.00    -0.371 OA
BRANCH   8   9
HETATM    9  C   UNL     1     -44.568 -52.503  14.194  1.00  0.00     0.122 C 
HETATM   10  C   UNL     1     -45.103 -52.720  12.771  1.00  0.00     0.032 C 
HETATM   11  C   UNL     1     -46.419 -51.955  12.656  1.00  0.00     0.002 C 
HETATM   12  C   UNL     1     -46.729 -51.408  14.038  1.00  0.00     0.002 C 
HETATM   13  C   UNL     1     -45.385 -51.334  14.731  1.00  0.00     0.032 C 
ENDBRANCH   8   9
ENDBRANCH   5   8
ENDBRANCH   1   5
BRANCH   3  14
HETATM   14  C   UNL     1     -41.685 -48.568  11.023  1.00  0.00     0.057 A 
HETATM   15  C   UNL     1     -42.709 -47.825  10.423  1.00  0.00     0.033 A 
HETATM   16  C   UNL     1     -42.514 -46.505  10.032  1.00  0.00     0.019 A 
HETATM   17  C   UNL     1     -41.271 -45.948  10.240  1.00  0.00     0.088 A 
HETATM   18  N   UNL     1     -40.240 -46.624  10.783  1.00  0.00    -0.368 N 
HETATM   19  C   UNL     1     -40.446 -47.919  11.160  1.00  0.00     0.032 A 
ATOM     20  HN  UNL     1     -39.330 -46.181  10.908  1.00  0.00     0.165 HD
HETATM   21  C   UNL     1     -39.234 -48.592  11.736  1.00  0.00     0.070 C 
ENDBRANCH   3  14
TORSDOF 5
ENDMDL
MODEL 3
REMARK VINA RESULT:      -5.5      2.163      4.199
REMARK  5 active torsions:
REMARK  status: ('A' for Active; 'I' for Inactive)
REMARK    1  A    between atoms: C_2  and  C_3 
REMARK    2  A    between atoms: C_3  and  O_4 
REMARK    3  A    between atoms: C_3  and  C_10 
REMARK    4  A    between atoms: O_4  and  C_5 
REMARK       I    between atoms: C_10  and  N_12 
REMARK    5  A    between atoms: N_12  and  C_13 
ROOT
HETATM    1  C   UNL     1     -43.126 -49.853  13.015  1.00  0.00     0.251 C 
HETATM    2  O   UNL     1     -43.089 -49.028  13.922  1.00  0.00    -0.270 OA
HETATM    3  N   UNL     1     -42.677 -49.620  11.722  1.00  0.00    -0.323 N 
HETATM    4  H   UNL     1     -42.696 -50.412  11.085  1.00  0.00     0.169 HD
ENDROOT
BRANCH   1   5
HETATM    5  C   UNL     1     -43.691 -51.277  13.283  1.00  0.00     0.213 C 
BRANCH   5   6
HETATM    6  C   UNL     1     -45.230 -51.166  13.314  1.00  0.00     0.037 C 
HETATM    7  C   UNL     1     -45.897 -51.382  14.658  1.00  0.00     0.008 C 
ENDBRANCH   5   6
BRANCH   5   8
HETATM    8  O   UNL     1     -43.172 -52.329  12.471  1.00  0.00    -0.371 OA
BRANCH   8   9
HETATM    9  C   UNL     1     -43.051 -53.636  13.040  1.00  0.00     0.122 C 
HETATM   10  C   UNL     1     -44.398 -54.362  12.903  1.00  0.00     0.032 C 
HETATM   11  C   UNL     1     -44.679 -55.057  14.232  1.00  0.00     0.002 C 
HETATM   12  C   UNL     1     -43.447 -54.862  15.097  1.00  0.00     0.002 C 
HETATM   13  C   UNL     1     -42.779 -53.622  14.539  1.00  0.00     0.032 C 
ENDBRANCH   8   9
ENDBRANCH   5   8
ENDBRANCH   1   5
BRANCH   3  14
HETATM   14  C   UNL     1     -42.257 -48.355  11.207  1.00  0.00     0.057 A 
HETATM   15  C   UNL     1     -43.172 -47.405  10.737  1.00  0.00     0.033 A 
HETATM   16  C   UNL     1     -42.752 -46.170  10.257  1.00  0.00     0.019 A 
HETATM   17  C   UNL     1     -41.399 -45.909  10.243  1.00  0.00     0.088 A 
HETATM   18  N   UNL     1     -40.472 -46.796  10.652  1.00  0.00    -0.368 N 
HETATM   19  C   UNL     1     -40.899 -48.005  11.120  1.00  0.00     0.032 A 
ATOM     20  HN  UNL     1     -39.478 -46.571  10.614  1.00  0.00     0.165 HD
HETATM   21  C   UNL     1     -39.791 -48.930  11.534  1.00  0.00     0.070 C 
ENDBRANCH   3  14
TORSDOF 5
ENDMDL
MODEL 4
REMARK VINA RESULT:      -5.5      2.287      6.804
REMARK  5 active torsions:
REMARK  status: ('A' for Active; 'I' for Inactive)
REMARK    1  A    between atoms: C_2  and  C_3 
REMARK    2  A    between atoms: C_3  and  O_4 
REMARK    3  A    between atoms: C_3  and  C_10 
REMARK    4  A    between atoms: O_4  and  C_5 
REMARK       I    between atoms: C_10  and  N_12 
REMARK    5  A    between atoms: N_12  and  C_13 
ROOT
HETATM    1  C   UNL     1     -43.160 -50.561  13.273  1.00  0.00     0.251 C 
HETATM    2  O   UNL     1     -43.574 -50.271  14.391  1.00  0.00    -0.270 OA
HETATM    3  N   UNL     1     -43.521 -51.705  12.572  1.00  0.00    -0.323 N 
HETATM    4  H   UNL     1     -43.163 -51.788  11.625  1.00  0.00     0.169 HD
ENDROOT
BRANCH   1   5
HETATM    5  C   UNL     1     -42.173 -49.608  12.540  1.00  0.00     0.213 C 
BRANCH   5   6
HETATM    6  C   UNL     1     -42.839 -48.218  12.467  1.00  0.00     0.037 C 
HETATM    7  C   UNL     1     -43.448 -47.829  11.135  1.00  0.00     0.008 C 
ENDBRANCH   5   6
BRANCH   5   8
HETATM    8  O   UNL     1     -40.823 -49.614  13.004  1.00  0.00    -0.371 OA
BRANCH   8   9
HETATM    9  C   UNL     1     -39.813 -50.173  12.160  1.00  0.00     0.122 C 
HETATM   10  C   UNL     1     -38.952 -51.136  12.991  1.00  0.00     0.032 C 
HETATM   11  C   UNL     1     -37.493 -50.872  12.630  1.00  0.00     0.002 C 
HETATM   12  C   UNL     1     -37.499 -49.862  11.496  1.00  0.00     0.002 C 
HETATM   13  C   UNL     1     -38.824 -49.142  11.631  1.00  0.00     0.032 C 
ENDBRANCH   8   9
ENDBRANCH   5   8
ENDBRANCH   1   5
BRANCH   3  14
HETATM   14  C   UNL     1     -44.291 -52.787  13.097  1.00  0.00     0.057 A 
HETATM   15  C   UNL     1     -43.690 -53.931  13.639  1.00  0.00     0.033 A 
HETATM   16  C   UNL     1     -44.451 -54.969  14.164  1.00  0.00     0.019 A 
HETATM   17  C   UNL     1     -45.823 -54.848  14.124  1.00  0.00     0.088 A 
HETATM   18  N   UNL     1     -46.455 -53.787  13.587  1.00  0.00    -0.368 N 
HETATM   19  C   UNL     1     -45.695 -52.776  13.074  1.00  0.00     0.032 A 
ATOM     20  HN  UNL     1     -47.474 -53.740  13.564  1.00  0.00     0.165 HD
HETATM   21  C   UNL     1     -46.492 -51.649  12.483  1.00  0.00     0.070 C 
ENDBRANCH   3  14
TORSDOF 5
ENDMDL
MODEL 5
REMARK VINA RESULT:      -5.2      3.263      6.695
REMARK  5 active torsions:
REMARK  status: ('A' for Active; 'I' for Inactive)
REMARK    1  A    between atoms: C_2  and  C_3 
REMARK    2  A    between atoms: C_3  and  O_4 
REMARK    3  A    between atoms: C_3  and  C_10 
REMARK    4  A    between atoms: O_4  and  C_5 
REMARK       I    between atoms: C_10  and  N_12 
REMARK    5  A    between atoms: N_12  and  C_13 
ROOT
HETATM    1  C   UNL     1     -43.252 -50.232  13.422  1.00  0.00     0.251 C 
HETATM    2  O   UNL     1     -42.691 -50.610  14.446  1.00  0.00    -0.270 OA
HETATM    3  N   UNL     1     -44.280 -50.920  12.790  1.00  0.00    -0.323 N 
HETATM    4  H   UNL     1     -44.708 -50.461  11.991  1.00  0.00     0.169 HD
ENDROOT
BRANCH   1   5
HETATM    5  C   UNL     1     -42.831 -48.892  12.756  1.00  0.00     0.213 C 
BRANCH   5   6
HETATM    6  C   UNL     1     -42.521 -47.889  13.887  1.00  0.00     0.037 C 
HETATM    7  C   UNL     1     -43.154 -46.516  13.765  1.00  0.00     0.008 C 
ENDBRANCH   5   6
BRANCH   5   8
HETATM    8  O   UNL     1     -41.844 -48.976  11.728  1.00  0.00    -0.371 OA
BRANCH   8   9
HETATM    9  C   UNL     1     -41.994 -48.156  10.567  1.00  0.00     0.122 C 
HETATM   10  C   UNL     1     -41.136 -46.893  10.740  1.00  0.00     0.032 C 
HETATM   11  C   UNL     1     -41.976 -45.703  10.285  1.00  0.00     0.002 C 
HETATM   12  C   UNL     1     -43.265 -46.270   9.718  1.00  0.00     0.002 C 
HETATM   13  C   UNL     1     -43.410 -47.627  10.375  1.00  0.00     0.032 C 
ENDBRANCH   8   9
ENDBRANCH   5   8
ENDBRANCH   1   5
BRANCH   3  14
HETATM   14  C   UNL     1     -44.730 -52.232  13.132  1.00  0.00     0.057 A 
HETATM   15  C   UNL     1     -44.023 -53.381  12.754  1.00  0.00     0.033 A 
HETATM   16  C   UNL     1     -44.463 -54.651  13.110  1.00  0.00     0.019 A 
HETATM   17  C   UNL     1     -45.628 -54.751  13.838  1.00  0.00     0.088 A 
HETATM   18  N   UNL     1     -46.365 -53.683  14.202  1.00  0.00    -0.368 N 
HETATM   19  C   UNL     1     -45.922 -52.443  13.844  1.00  0.00     0.032 A 
ATOM     20  HN  UNL     1     -47.230 -53.799  14.729  1.00  0.00     0.165 HD
HETATM   21  C   UNL     1     -46.821 -51.322  14.279  1.00  0.00     0.070 C 
ENDBRANCH   3  14
TORSDOF 5
ENDMDL
MODEL 6
REMARK VINA RESULT:      -5.2      1.999      3.157
REMARK  5 active torsions:
REMARK  status: ('A' for Active; 'I' for Inactive)
REMARK    1  A    between atoms: C_2  and  C_3 
REMARK    2  A    between atoms: C_3  and  O_4 
REMARK    3  A    between atoms: C_3  and  C_10 
REMARK    4  A    between atoms: O_4  and  C_5 
REMARK       I    between atoms: C_10  and  N_12 
REMARK    5  A    between atoms: N_12  and  C_13 
ROOT
HETATM    1  C   UNL     1     -40.337 -52.304  13.284  1.00  0.00     0.251 C 
HETATM    2  O   UNL     1     -40.338 -51.702  14.354  1.00  0.00    -0.270 OA
HETATM    3  N   UNL     1     -40.315 -51.693  12.038  1.00  0.00    -0.323 N 
HETATM    4  H   UNL     1     -40.241 -52.308  11.233  1.00  0.00     0.169 HD
ENDROOT
BRANCH   1   5
HETATM    5  C   UNL     1     -40.344 -53.860  13.270  1.00  0.00     0.213 C 
BRANCH   5   6
HETATM    6  C   UNL     1     -39.446 -54.338  14.430  1.00  0.00     0.037 C 
HETATM    7  C   UNL     1     -40.152 -54.963  15.617  1.00  0.00     0.008 C 
ENDBRANCH   5   6
BRANCH   5   8
HETATM    8  O   UNL     1     -41.623 -54.487  13.190  1.00  0.00    -0.371 OA
BRANCH   8   9
HETATM    9  C   UNL     1     -42.779 -53.733  13.564  1.00  0.00     0.122 C 
HETATM   10  C   UNL     1     -43.685 -54.617  14.435  1.00  0.00     0.032 C 
HETATM   11  C   UNL     1     -45.119 -54.415  13.955  1.00  0.00     0.002 C 
HETATM   12  C   UNL     1     -45.078 -53.319  12.905  1.00  0.00     0.002 C 
HETATM   13  C   UNL     1     -43.657 -53.341  12.382  1.00  0.00     0.032 C 
ENDBRANCH   8   9
ENDBRANCH   5   8
ENDBRANCH   1   5
BRANCH   3  14
HETATM   14  C   UNL     1     -40.453 -50.291  11.802  1.00  0.00     0.057 A 
HETATM   15  C   UNL     1     -41.706 -49.666  11.752  1.00  0.00     0.033 A 
HETATM   16  C   UNL     1     -41.825 -48.297  11.541  1.00  0.00     0.019 A 
HETATM   17  C   UNL     1     -40.669 -47.568  11.367  1.00  0.00     0.088 A 
HETATM   18  N   UNL     1     -39.440 -48.120  11.373  1.00  0.00    -0.368 N 
HETATM   19  C   UNL     1     -39.339 -49.465  11.580  1.00  0.00     0.032 A 
ATOM     20  HN  UNL     1     -38.608 -47.549  11.226  1.00  0.00     0.165 HD
HETATM   21  C   UNL     1     -37.931 -49.986  11.550  1.00  0.00     0.070 C 
ENDBRANCH   3  14
TORSDOF 5
ENDMDL
MODEL 7
REMARK VINA RESULT:      -5.1      2.313      3.842
REMARK  5 active torsions:
REMARK  status: ('A' for Active; 'I' for Inactive)
REMARK    1  A    between atoms: C_2  and  C_3 
REMARK    2  A    between atoms: C_3  and  O_4 
REMARK    3  A    between atoms: C_3  and  C_10 
REMARK    4  A    between atoms: O_4  and  C_5 
REMARK       I    between atoms: C_10  and  N_12 
REMARK    5  A    between atoms: N_12  and  C_13 
ROOT
HETATM    1  C   UNL     1     -43.373 -50.408  13.230  1.00  0.00     0.251 C 
HETATM    2  O   UNL     1     -43.314 -49.666  14.206  1.00  0.00    -0.270 OA
HETATM    3  N   UNL     1     -42.658 -50.220  12.055  1.00  0.00    -0.323 N 
HETATM    4  H   UNL     1     -42.741 -50.949  11.352  1.00  0.00     0.169 HD
ENDROOT
BRANCH   1   5
HETATM    5  C   UNL     1     -44.286 -51.667  13.267  1.00  0.00     0.213 C 
BRANCH   5   6
HETATM    6  C   UNL     1     -45.748 -51.182  13.184  1.00  0.00     0.037 C 
HETATM    7  C   UNL     1     -46.652 -51.924  12.219  1.00  0.00     0.008 C 
ENDBRANCH   5   6
BRANCH   5   8
HETATM    8  O   UNL     1     -43.942 -52.726  12.374  1.00  0.00    -0.371 OA
BRANCH   8   9
HETATM    9  C   UNL     1     -43.433 -53.945  12.922  1.00  0.00     0.122 C 
HETATM   10  C   UNL     1     -44.333 -54.376  14.090  1.00  0.00     0.032 C 
HETATM   11  C   UNL     1     -43.420 -54.820  15.230  1.00  0.00     0.002 C 
HETATM   12  C   UNL     1     -42.001 -54.786  14.692  1.00  0.00     0.002 C 
HETATM   13  C   UNL     1     -42.049 -53.800  13.544  1.00  0.00     0.032 C 
ENDBRANCH   8   9
ENDBRANCH   5   8
ENDBRANCH   1   5
BRANCH   3  14
HETATM   14  C   UNL     1     -41.877 -49.066  11.738  1.00  0.00     0.057 A 
HETATM   15  C   UNL     1     -40.529 -48.961  12.103  1.00  0.00     0.033 A 
HETATM   16  C   UNL     1     -39.775 -47.840  11.771  1.00  0.00     0.019 A 
HETATM   17  C   UNL     1     -40.398 -46.824  11.081  1.00  0.00     0.088 A 
HETATM   18  N   UNL     1     -41.699 -46.857  10.733  1.00  0.00    -0.368 N 
HETATM   19  C   UNL     1     -42.427 -47.962  11.066  1.00  0.00     0.032 A 
ATOM     20  HN  UNL     1     -42.128 -46.079  10.234  1.00  0.00     0.165 HD
HETATM   21  C   UNL     1     -43.868 -47.896  10.651  1.00  0.00     0.070 C 
ENDBRANCH   3  14
TORSDOF 5
ENDMDL
MODEL 8
REMARK VINA RESULT:      -5.0      3.192      5.659
REMARK  5 active torsions:
REMARK  status: ('A' for Active; 'I' for Inactive)
REMARK    1  A    between atoms: C_2  and  C_3 
REMARK    2  A    between atoms: C_3  and  O_4 
REMARK    3  A    between atoms: C_3  and  C_10 
REMARK    4  A    between atoms: O_4  and  C_5 
REMARK       I    between atoms: C_10  and  N_12 
REMARK    5  A    between atoms: N_12  and  C_13 
ROOT
HETATM    1  C   UNL     1     -40.309 -48.652  11.901  1.00  0.00     0.251 C 
HETATM    2  O   UNL     1     -40.421 -48.348  13.085  1.00  0.00    -0.270 OA
HETATM    3  N   UNL     1     -40.521 -47.779  10.842  1.00  0.00    -0.323 N 
HETATM    4  H   UNL     1     -40.323 -48.138   9.912  1.00  0.00     0.169 HD
ENDROOT
BRANCH   1   5
HETATM    5  C   UNL     1     -39.891 -50.097  11.507  1.00  0.00     0.213 C 
BRANCH   5   6
HETATM    6  C   UNL     1     -38.466 -50.331  12.051  1.00  0.00     0.037 C 
HETATM    7  C   UNL     1     -37.321 -49.972  11.124  1.00  0.00     0.008 C 
ENDBRANCH   5   6
BRANCH   5   8
HETATM    8  O   UNL     1     -40.832 -51.131  11.797  1.00  0.00    -0.371 OA
BRANCH   8   9
HETATM    9  C   UNL     1     -40.586 -51.985  12.917  1.00  0.00     0.122 C 
HETATM   10  C   UNL     1     -40.898 -53.434  12.513  1.00  0.00     0.032 C 
HETATM   11  C   UNL     1     -41.684 -54.068  13.657  1.00  0.00     0.002 C 
HETATM   12  C   UNL     1     -41.715 -53.051  14.784  1.00  0.00     0.002 C 
HETATM   13  C   UNL     1     -41.508 -51.715  14.100  1.00  0.00     0.032 C 
ENDBRANCH   8   9
ENDBRANCH   5   8
ENDBRANCH   1   5
BRANCH   3  14
HETATM   14  C   UNL     1     -41.049 -46.456  10.953  1.00  0.00     0.057 A 
HETATM   15  C   UNL     1     -40.223 -45.341  11.142  1.00  0.00     0.033 A 
HETATM   16  C   UNL     1     -40.748 -44.057  11.230  1.00  0.00     0.019 A 
HETATM   17  C   UNL     1     -42.115 -43.911  11.138  1.00  0.00     0.088 A 
HETATM   18  N   UNL     1     -42.960 -44.950  10.988  1.00  0.00    -0.368 N 
HETATM   19  C   UNL     1     -42.430 -46.204  10.905  1.00  0.00     0.032 A 
ATOM     20  HN  UNL     1     -43.967 -44.803  10.938  1.00  0.00     0.165 HD
HETATM   21  C   UNL     1     -43.452 -47.294  10.759  1.00  0.00     0.070 C 
ENDBRANCH   3  14
TORSDOF 5
ENDMDL
MODEL 9
REMARK VINA RESULT:      -5.0      3.781      4.902
REMARK  5 active torsions:
REMARK  status: ('A' for Active; 'I' for Inactive)
REMARK    1  A    between atoms: C_2  and  C_3 
REMARK    2  A    between atoms: C_3  and  O_4 
REMARK    3  A    between atoms: C_3  and  C_10 
REMARK    4  A    between atoms: O_4  and  C_5 
REMARK       I    between atoms: C_10  and  N_12 
REMARK    5  A    between atoms: N_12  and  C_13 
ROOT
HETATM    1  C   UNL     1     -42.701 -55.133  15.541  1.00  0.00     0.251 C 
HETATM    2  O   UNL     1     -42.831 -56.330  15.779  1.00  0.00    -0.270 OA
HETATM    3  N   UNL     1     -41.505 -54.435  15.645  1.00  0.00    -0.323 N 
HETATM    4  H   UNL     1     -41.519 -53.464  15.348  1.00  0.00     0.169 HD
ENDROOT
BRANCH   1   5
HETATM    5  C   UNL     1     -43.928 -54.297  15.075  1.00  0.00     0.213 C 
BRANCH   5   6
HETATM    6  C   UNL     1     -44.023 -54.431  13.541  1.00  0.00     0.037 C 
HETATM    7  C   UNL     1     -44.062 -53.138  12.751  1.00  0.00     0.008 C 
ENDBRANCH   5   6
BRANCH   5   8
HETATM    8  O   UNL     1     -45.148 -54.513  15.784  1.00  0.00    -0.371 OA
BRANCH   8   9
HETATM    9  C   UNL     1     -45.894 -53.374  16.221  1.00  0.00     0.122 C 
HETATM   10  C   UNL     1     -46.909 -52.999  15.130  1.00  0.00     0.032 C 
HETATM   11  C   UNL     1     -46.870 -51.481  14.972  1.00  0.00     0.002 C 
HETATM   12  C   UNL     1     -45.947 -50.953  16.056  1.00  0.00     0.002 C 
HETATM   13  C   UNL     1     -45.045 -52.121  16.395  1.00  0.00     0.032 C 
ENDBRANCH   8   9
ENDBRANCH   5   8
ENDBRANCH   1   5
BRANCH   3  14
HETATM   14  C   UNL     1     -40.290 -54.954  16.190  1.00  0.00     0.057 A 
HETATM   15  C   UNL     1     -40.173 -55.304  17.541  1.00  0.00     0.033 A 
HETATM   16  C   UNL     1     -38.991 -55.825  18.055  1.00  0.00     0.019 A 
HETATM   17  C   UNL     1     -37.925 -55.976  17.195  1.00  0.00     0.088 A 
HETATM   18  N   UNL     1     -37.970 -55.627  15.895  1.00  0.00    -0.368 N 
HETATM   19  C   UNL     1     -39.136 -55.115  15.405  1.00  0.00     0.032 A 
ATOM     20  HN  UNL     1     -37.155 -55.741  15.293  1.00  0.00     0.165 HD
HETATM   21  C   UNL     1     -39.080 -54.740  13.952  1.00  0.00     0.070 C 
ENDBRANCH   3  14
TORSDOF 5
ENDMDL
