MODEL 1
REMARK VINA RESULT:      -5.5      0.000      0.000
REMARK  4 active torsions:
REMARK  status: ('A' for Active; 'I' for Inactive)
REMARK    1  A    between atoms: C_2  and  C_7 
REMARK       I    between atoms: C_7  and  N_9 
REMARK    2  A    between atoms: N_9  and  S_10 
REMARK    3  A    between atoms: S_10  and  C_13 
REMARK    4  A    between atoms: C_13  and  C_14 
ROOT
HETATM    1  C   UNL     1     -43.617 -53.265  13.169  1.00  0.00     0.265 C 
HETATM    2  O   UNL     1     -43.163 -52.730  12.163  1.00  0.00    -0.269 OA
HETATM    3  N   UNL     1     -42.793 -53.663  14.231  1.00  0.00    -0.252 N 
HETATM    4  H   UNL     1     -43.221 -54.016  15.089  1.00  0.00     0.181 HD
ENDROOT
BRANCH   3   5
HETATM    5  S   UNL     1     -41.136 -53.607  14.213  1.00  0.00     0.238 S 
HETATM    6  O   UNL     1     -40.737 -54.230  15.459  1.00  0.00    -0.205 OA
HETATM    7  O   UNL     1     -40.684 -54.141  12.946  1.00  0.00    -0.205 OA
BRANCH   5   8
HETATM    8  C   UNL     1     -40.808 -51.839  14.307  1.00  0.00     0.222 C 
BRANCH   8   9
HETATM    9  C   UNL     1     -39.574 -51.471  13.571  1.00  0.00     0.050 A 
HETATM   10  C   UNL     1     -38.269 -51.275  14.080  1.00  0.00     0.054 A 
HETATM   11  C   UNL     1     -37.520 -50.968  12.975  1.00  0.00     0.169 A 
HETATM   12  O   UNL     1     -38.303 -51.009  11.871  1.00  0.00    -0.250 OA
HETATM   13  N   UNL     1     -39.597 -51.341  12.237  1.00  0.00    -0.265 N 
ATOM     14  HN  UNL     1     -40.400 -51.462  11.620  1.00  0.00     0.194 HD
ENDBRANCH   8   9
ENDBRANCH   5   8
ENDBRANCH   3   5
BRANCH   1  15
HETATM   15  C   UNL     1     -45.129 -53.476  13.400  1.00  0.00     0.138 C 
HETATM   16  C   UNL     1     -45.337 -54.961  13.688  1.00  0.00     0.056 C 
HETATM   17  C   UNL     1     -45.621 -52.594  14.543  1.00  0.00     0.050 C 
HETATM   18  C   UNL     1     -46.488 -51.538  13.899  1.00  0.00     0.030 C 
HETATM   19  C   UNL     1     -46.484 -51.847  12.422  1.00  0.00     0.169 C 
HETATM   20  O   UNL     1     -45.903 -53.140  12.238  1.00  0.00    -0.371 OA
ENDBRANCH   1  15
TORSDOF 4
ENDMDL
MODEL 2
REMARK VINA RESULT:      -5.4      2.027      6.461
REMARK  4 active torsions:
REMARK  status: ('A' for Active; 'I' for Inactive)
REMARK    1  A    between atoms: C_2  and  C_7 
REMARK       I    between atoms: C_7  and  N_9 
REMARK    2  A    between atoms: N_9  and  S_10 
REMARK    3  A    between atoms: S_10  and  C_13 
REMARK    4  A    between atoms: C_13  and  C_14 
ROOT
HETATM    1  C   UNL     1     -38.894 -51.122  12.850  1.00  0.00     0.265 C 
HETATM    2  O   UNL     1     -38.100 -51.910  13.351  1.00  0.00    -0.269 OA
HETATM    3  N   UNL     1     -40.276 -51.360  12.857  1.00  0.00    -0.252 N 
HETATM    4  H   UNL     1     -40.909 -50.634  12.516  1.00  0.00     0.181 HD
ENDROOT
BRANCH   3   5
HETATM    5  S   UNL     1     -40.991 -52.758  13.390  1.00  0.00     0.238 S 
HETATM    6  O   UNL     1     -40.400 -53.801  12.576  1.00  0.00    -0.205 OA
HETATM    7  O   UNL     1     -40.877 -52.798  14.832  1.00  0.00    -0.205 OA
BRANCH   5   8
HETATM    8  C   UNL     1     -42.707 -52.527  12.897  1.00  0.00     0.222 C 
BRANCH   8   9
HETATM    9  C   UNL     1     -43.577 -53.607  13.421  1.00  0.00     0.050 A 
HETATM   10  C   UNL     1     -44.929 -53.883  13.108  1.00  0.00     0.054 A 
HETATM   11  C   UNL     1     -45.230 -54.988  13.858  1.00  0.00     0.169 A 
HETATM   12  O   UNL     1     -44.133 -55.378  14.551  1.00  0.00    -0.250 OA
HETATM   13  N   UNL     1     -43.083 -54.521  14.268  1.00  0.00    -0.265 N 
ATOM     14  HN  UNL     1     -42.130 -54.574  14.630  1.00  0.00     0.194 HD
ENDBRANCH   8   9
ENDBRANCH   5   8
ENDBRANCH   3   5
BRANCH   1  15
HETATM   15  C   UNL     1     -38.467 -49.768  12.242  1.00  0.00     0.138 C 
HETATM   16  C   UNL     1     -37.414 -50.066  11.177  1.00  0.00     0.056 C 
HETATM   17  C   UNL     1     -39.677 -49.038  11.669  1.00  0.00     0.050 C 
HETATM   18  C   UNL     1     -39.913 -47.859  12.583  1.00  0.00     0.030 C 
HETATM   19  C   UNL     1     -38.835 -47.934  13.638  1.00  0.00     0.169 C 
HETATM   20  O   UNL     1     -37.871 -48.903  13.222  1.00  0.00    -0.371 OA
ENDBRANCH   1  15
TORSDOF 4
ENDMDL
MODEL 3
REMARK VINA RESULT:      -5.4      2.882      4.023
REMARK  4 active torsions:
REMARK  status: ('A' for Active; 'I' for Inactive)
REMARK    1  A    between atoms: C_2  and  C_7 
REMARK       I    between atoms: C_7  and  N_9 
REMARK    2  A    between atoms: N_9  and  S_10 
REMARK    3  A    between atoms: S_10  and  C_13 
REMARK    4  A    between atoms: C_13  and  C_14 
ROOT
HETATM    1  C   UNL     1     -45.281 -53.163  15.945  1.00  0.00     0.265 C 
HETATM    2  O   UNL     1     -45.209 -54.188  16.612  1.00  0.00    -0.269 OA
HETATM    3  N   UNL     1     -45.102 -53.170  14.554  1.00  0.00    -0.252 N 
HETATM    4  H   UNL     1     -45.265 -52.312  14.026  1.00  0.00     0.181 HD
ENDROOT
BRANCH   3   5
HETATM    5  S   UNL     1     -44.633 -54.492  13.671  1.00  0.00     0.238 S 
HETATM    6  O   UNL     1     -45.566 -55.533  14.051  1.00  0.00    -0.205 OA
HETATM    7  O   UNL     1     -44.509 -54.085  12.287  1.00  0.00    -0.205 OA
BRANCH   5   8
HETATM    8  C   UNL     1     -43.015 -54.868  14.366  1.00  0.00     0.222 C 
BRANCH   8   9
HETATM    9  C   UNL     1     -41.958 -54.000  13.795  1.00  0.00     0.050 A 
HETATM   10  C   UNL     1     -41.327 -52.876  14.378  1.00  0.00     0.054 A 
HETATM   11  C   UNL     1     -40.428 -52.465  13.430  1.00  0.00     0.169 A 
HETATM   12  O   UNL     1     -40.482 -53.297  12.363  1.00  0.00    -0.250 OA
HETATM   13  N   UNL     1     -41.434 -54.277  12.592  1.00  0.00    -0.265 N 
ATOM     14  HN  UNL     1     -41.684 -55.050  11.974  1.00  0.00     0.194 HD
ENDBRANCH   8   9
ENDBRANCH   5   8
ENDBRANCH   3   5
BRANCH   1  15
HETATM   15  C   UNL     1     -45.655 -51.791  16.548  1.00  0.00     0.138 C 
HETATM   16  C   UNL     1     -44.446 -50.876  16.366  1.00  0.00     0.056 C 
HETATM   17  C   UNL     1     -46.905 -51.236  15.873  1.00  0.00     0.050 C 
HETATM   18  C   UNL     1     -47.997 -51.306  16.914  1.00  0.00     0.030 C 
HETATM   19  C   UNL     1     -47.349 -51.879  18.152  1.00  0.00     0.169 C 
HETATM   20  O   UNL     1     -45.933 -51.879  17.955  1.00  0.00    -0.371 OA
ENDBRANCH   1  15
TORSDOF 4
ENDMDL
MODEL 4
REMARK VINA RESULT:      -5.4      2.414      3.130
REMARK  4 active torsions:
REMARK  status: ('A' for Active; 'I' for Inactive)
REMARK    1  A    between atoms: C_2  and  C_7 
REMARK       I    between atoms: C_7  and  N_9 
REMARK    2  A    between atoms: N_9  and  S_10 
REMARK    3  A    between atoms: S_10  and  C_13 
REMARK    4  A    between atoms: C_13  and  C_14 
ROOT
HETATM    1  C   UNL     1     -43.120 -53.718  13.715  1.00  0.00     0.265 C 
HETATM    2  O   UNL     1     -43.614 -53.421  12.633  1.00  0.00    -0.269 OA
HETATM    3  N   UNL     1     -41.847 -53.270  14.096  1.00  0.00    -0.252 N 
HETATM    4  H   UNL     1     -41.514 -53.460  15.042  1.00  0.00     0.181 HD
ENDROOT
BRANCH   3   5
HETATM    5  S   UNL     1     -40.808 -52.433  13.112  1.00  0.00     0.238 S 
HETATM    6  O   UNL     1     -40.582 -53.317  11.986  1.00  0.00    -0.205 OA
HETATM    7  O   UNL     1     -41.353 -51.108  12.908  1.00  0.00    -0.205 OA
BRANCH   5   8
HETATM    8  C   UNL     1     -39.311 -52.354  14.109  1.00  0.00     0.222 C 
BRANCH   8   9
HETATM    9  C   UNL     1     -39.045 -53.638  14.800  1.00  0.00     0.050 A 
HETATM   10  C   UNL     1     -39.062 -53.915  16.188  1.00  0.00     0.054 A 
HETATM   11  C   UNL     1     -38.764 -55.249  16.269  1.00  0.00     0.169 A 
HETATM   12  O   UNL     1     -38.611 -55.756  15.022  1.00  0.00    -0.250 OA
HETATM   13  N   UNL     1     -38.802 -54.749  14.090  1.00  0.00    -0.265 N 
ATOM     14  HN  UNL     1     -38.766 -54.836  13.074  1.00  0.00     0.194 HD
ENDBRANCH   8   9
ENDBRANCH   5   8
ENDBRANCH   3   5
BRANCH   1  15
HETATM   15  C   UNL     1     -43.873 -54.535  14.788  1.00  0.00     0.138 C 
HETATM   16  C   UNL     1     -42.836 -55.399  15.504  1.00  0.00     0.056 C 
HETATM   17  C   UNL     1     -44.609 -53.605  15.746  1.00  0.00     0.050 C 
HETATM   18  C   UNL     1     -46.078 -53.792  15.449  1.00  0.00     0.030 C 
HETATM   19  C   UNL     1     -46.147 -54.825  14.350  1.00  0.00     0.169 C 
HETATM   20  O   UNL     1     -44.852 -55.412  14.207  1.00  0.00    -0.371 OA
ENDBRANCH   1  15
TORSDOF 4
ENDMDL
MODEL 5
REMARK VINA RESULT:      -5.4      4.903      7.669
REMARK  4 active torsions:
REMARK  status: ('A' for Active; 'I' for Inactive)
REMARK    1  A    between atoms: C_2  and  C_7 
REMARK       I    between atoms: C_7  and  N_9 
REMARK    2  A    between atoms: N_9  and  S_10 
REMARK    3  A    between atoms: S_10  and  C_13 
REMARK    4  A    between atoms: C_13  and  C_14 
ROOT
HETATM    1  C   UNL     1     -38.983 -48.889  12.471  1.00  0.00     0.265 C 
HETATM    2  O   UNL     1     -38.608 -47.980  13.201  1.00  0.00    -0.269 OA
HETATM    3  N   UNL     1     -39.987 -48.701  11.510  1.00  0.00    -0.252 N 
HETATM    4  H   UNL     1     -40.202 -49.457  10.858  1.00  0.00     0.181 HD
ENDROOT
BRANCH   3   5
HETATM    5  S   UNL     1     -40.879 -47.314  11.337  1.00  0.00     0.238 S 
HETATM    6  O   UNL     1     -41.410 -47.056  12.660  1.00  0.00    -0.205 OA
HETATM    7  O   UNL     1     -40.053 -46.329  10.672  1.00  0.00    -0.205 OA
BRANCH   5   8
HETATM    8  C   UNL     1     -42.218 -47.847  10.258  1.00  0.00     0.222 C 
BRANCH   8   9
HETATM    9  C   UNL     1     -43.033 -46.701   9.789  1.00  0.00     0.050 A 
HETATM   10  C   UNL     1     -44.140 -46.706   8.908  1.00  0.00     0.054 A 
HETATM   11  C   UNL     1     -44.516 -45.391   8.832  1.00  0.00     0.169 A 
HETATM   12  O   UNL     1     -43.720 -44.645   9.635  1.00  0.00    -0.250 OA
HETATM   13  N   UNL     1     -42.792 -45.466  10.253  1.00  0.00    -0.265 N 
ATOM     14  HN  UNL     1     -42.074 -45.190  10.923  1.00  0.00     0.194 HD
ENDBRANCH   8   9
ENDBRANCH   5   8
ENDBRANCH   3   5
BRANCH   1  15
HETATM   15  C   UNL     1     -38.341 -50.294  12.476  1.00  0.00     0.138 C 
HETATM   16  C   UNL     1     -37.310 -50.321  11.350  1.00  0.00     0.056 C 
HETATM   17  C   UNL     1     -37.716 -50.588  13.836  1.00  0.00     0.050 C 
HETATM   18  C   UNL     1     -38.585 -51.652  14.463  1.00  0.00     0.030 C 
HETATM   19  C   UNL     1     -39.666 -51.949  13.452  1.00  0.00     0.169 C 
HETATM   20  O   UNL     1     -39.305 -51.327  12.217  1.00  0.00    -0.371 OA
ENDBRANCH   1  15
TORSDOF 4
ENDMDL
MODEL 6
REMARK VINA RESULT:      -5.2      5.096      7.613
REMARK  4 active torsions:
REMARK  status: ('A' for Active; 'I' for Inactive)
REMARK    1  A    between atoms: C_2  and  C_7 
REMARK       I    between atoms: C_7  and  N_9 
REMARK    2  A    between atoms: N_9  and  S_10 
REMARK    3  A    between atoms: S_10  and  C_13 
REMARK    4  A    between atoms: C_13  and  C_14 
ROOT
HETATM    1  C   UNL     1     -39.079 -48.666  12.385  1.00  0.00     0.265 C 
HETATM    2  O   UNL     1     -38.838 -47.806  13.225  1.00  0.00    -0.269 OA
HETATM    3  N   UNL     1     -40.007 -48.455  11.355  1.00  0.00    -0.252 N 
HETATM    4  H   UNL     1     -40.107 -49.159  10.622  1.00  0.00     0.181 HD
ENDROOT
BRANCH   3   5
HETATM    5  S   UNL     1     -40.981 -47.120  11.221  1.00  0.00     0.238 S 
HETATM    6  O   UNL     1     -41.892 -47.441  10.142  1.00  0.00    -0.205 OA
HETATM    7  O   UNL     1     -41.486 -46.801  12.539  1.00  0.00    -0.205 OA
BRANCH   5   8
HETATM    8  C   UNL     1     -39.828 -45.854  10.663  1.00  0.00     0.222 C 
BRANCH   8   9
HETATM    9  C   UNL     1     -39.747 -44.726  11.622  1.00  0.00     0.050 A 
HETATM   10  C   UNL     1     -40.323 -43.438  11.522  1.00  0.00     0.054 A 
HETATM   11  C   UNL     1     -39.947 -42.810  12.679  1.00  0.00     0.169 A 
HETATM   12  O   UNL     1     -39.225 -43.663  13.444  1.00  0.00    -0.250 OA
HETATM   13  N   UNL     1     -39.108 -44.879  12.791  1.00  0.00    -0.265 N 
ATOM     14  HN  UNL     1     -38.633 -45.717  13.129  1.00  0.00     0.194 HD
ENDBRANCH   8   9
ENDBRANCH   5   8
ENDBRANCH   3   5
BRANCH   1  15
HETATM   15  C   UNL     1     -38.337 -50.019  12.328  1.00  0.00     0.138 C 
HETATM   16  C   UNL     1     -37.361 -49.947  11.155  1.00  0.00     0.056 C 
HETATM   17  C   UNL     1     -37.629 -50.295  13.650  1.00  0.00     0.050 C 
HETATM   18  C   UNL     1     -38.388 -51.433  14.291  1.00  0.00     0.030 C 
HETATM   19  C   UNL     1     -39.491 -51.788  13.323  1.00  0.00     0.169 C 
HETATM   20  O   UNL     1     -39.234 -51.115  12.088  1.00  0.00    -0.371 OA
ENDBRANCH   1  15
TORSDOF 4
ENDMDL
MODEL 7
REMARK VINA RESULT:      -5.2      1.871      2.222
REMARK  4 active torsions:
REMARK  status: ('A' for Active; 'I' for Inactive)
REMARK    1  A    between atoms: C_2  and  C_7 
REMARK       I    between atoms: C_7  and  N_9 
REMARK    2  A    between atoms: N_9  and  S_10 
REMARK    3  A    between atoms: S_10  and  C_13 
REMARK    4  A    between atoms: C_13  and  C_14 
ROOT
HETATM    1  C   UNL     1     -43.377 -53.816  13.558  1.00  0.00     0.265 C 
HETATM    2  O   UNL     1     -43.886 -53.732  12.446  1.00  0.00    -0.269 OA
HETATM    3  N   UNL     1     -42.178 -53.160  13.875  1.00  0.00    -0.252 N 
HETATM    4  H   UNL     1     -41.840 -53.178  14.838  1.00  0.00     0.181 HD
ENDROOT
BRANCH   3   5
HETATM    5  S   UNL     1     -41.238 -52.334  12.786  1.00  0.00     0.238 S 
HETATM    6  O   UNL     1     -40.670 -53.365  11.942  1.00  0.00    -0.205 OA
HETATM    7  O   UNL     1     -42.041 -51.275  12.215  1.00  0.00    -0.205 OA
BRANCH   5   8
HETATM    8  C   UNL     1     -39.944 -51.651  13.835  1.00  0.00     0.222 C 
BRANCH   8   9
HETATM    9  C   UNL     1     -39.099 -50.680  13.098  1.00  0.00     0.050 A 
HETATM   10  C   UNL     1     -38.271 -49.657  13.618  1.00  0.00     0.054 A 
HETATM   11  C   UNL     1     -37.716 -49.077  12.509  1.00  0.00     0.169 A 
HETATM   12  O   UNL     1     -38.146 -49.721  11.397  1.00  0.00    -0.250 OA
HETATM   13  N   UNL     1     -39.006 -50.743  11.762  1.00  0.00    -0.265 N 
ATOM     14  HN  UNL     1     -39.473 -51.406  11.143  1.00  0.00     0.194 HD
ENDBRANCH   8   9
ENDBRANCH   5   8
ENDBRANCH   3   5
BRANCH   1  15
HETATM   15  C   UNL     1     -44.036 -54.573  14.731  1.00  0.00     0.138 C 
HETATM   16  C   UNL     1     -42.971 -55.488  15.331  1.00  0.00     0.056 C 
HETATM   17  C   UNL     1     -44.593 -53.589  15.754  1.00  0.00     0.050 C 
HETATM   18  C   UNL     1     -46.096 -53.692  15.644  1.00  0.00     0.030 C 
HETATM   19  C   UNL     1     -46.360 -54.732  14.582  1.00  0.00     0.169 C 
HETATM   20  O   UNL     1     -45.129 -55.397  14.293  1.00  0.00    -0.371 OA
ENDBRANCH   1  15
TORSDOF 4
ENDMDL
MODEL 8
REMARK VINA RESULT:      -5.0      4.121      4.770
REMARK  4 active torsions:
REMARK  status: ('A' for Active; 'I' for Inactive)
REMARK    1  A    between atoms: C_2  and  C_7 
REMARK       I    between atoms: C_7  and  N_9 
REMARK    2  A    between atoms: N_9  and  S_10 
REMARK    3  A    between atoms: S_10  and  C_13 
REMARK    4  A    between atoms: C_13  and  C_14 
ROOT
HETATM    1  C   UNL     1     -42.638 -51.385  13.055  1.00  0.00     0.265 C 
HETATM    2  O   UNL     1     -41.566 -51.854  13.420  1.00  0.00    -0.269 OA
HETATM    3  N   UNL     1     -42.708 -50.253  12.230  1.00  0.00    -0.252 N 
HETATM    4  H   UNL     1     -43.615 -49.953  11.870  1.00  0.00     0.181 HD
ENDROOT
BRANCH   3   5
HETATM    5  S   UNL     1     -41.404 -49.335  11.775  1.00  0.00     0.238 S 
HETATM    6  O   UNL     1     -41.039 -48.604  12.972  1.00  0.00    -0.205 OA
HETATM    7  O   UNL     1     -40.448 -50.205  11.126  1.00  0.00    -0.205 OA
BRANCH   5   8
HETATM    8  C   UNL     1     -42.130 -48.194  10.587  1.00  0.00     0.222 C 
BRANCH   8   9
HETATM    9  C   UNL     1     -41.510 -46.849  10.669  1.00  0.00     0.050 A 
HETATM   10  C   UNL     1     -42.125 -45.609  10.962  1.00  0.00     0.054 A 
HETATM   11  C   UNL     1     -41.097 -44.706  10.920  1.00  0.00     0.169 A 
HETATM   12  O   UNL     1     -39.936 -45.352  10.657  1.00  0.00    -0.250 OA
HETATM   13  N   UNL     1     -40.187 -46.706  10.513  1.00  0.00    -0.265 N 
ATOM     14  HN  UNL     1     -39.505 -47.442  10.326  1.00  0.00     0.194 HD
ENDBRANCH   8   9
ENDBRANCH   5   8
ENDBRANCH   3   5
BRANCH   1  15
HETATM   15  C   UNL     1     -43.999 -52.033  13.391  1.00  0.00     0.138 C 
HETATM   16  C   UNL     1     -45.054 -50.933  13.299  1.00  0.00     0.056 C 
HETATM   17  C   UNL     1     -44.287 -53.190  12.441  1.00  0.00     0.050 C 
HETATM   18  C   UNL     1     -44.174 -54.443  13.276  1.00  0.00     0.030 C 
HETATM   19  C   UNL     1     -43.843 -53.977  14.674  1.00  0.00     0.169 C 
HETATM   20  O   UNL     1     -44.027 -52.561  14.727  1.00  0.00    -0.371 OA
ENDBRANCH   1  15
TORSDOF 4
ENDMDL
MODEL 9
REMARK VINA RESULT:      -5.0      2.544      3.181
REMARK  4 active torsions:
REMARK  status: ('A' for Active; 'I' for Inactive)
REMARK    1  A    between atoms: C_2  and  C_7 
REMARK       I    between atoms: C_7  and  N_9 
REMARK    2  A    between atoms: N_9  and  S_10 
REMARK    3  A    between atoms: S_10  and  C_13 
REMARK    4  A    between atoms: C_13  and  C_14 
ROOT
HETATM    1  C   UNL     1     -44.812 -51.493  13.661  1.00  0.00     0.265 C 
HETATM    2  O   UNL     1     -44.991 -50.832  14.678  1.00  0.00    -0.269 OA
HETATM    3  N   UNL     1     -43.648 -51.363  12.889  1.00  0.00    -0.252 N 
HETATM    4  H   UNL     1     -43.497 -51.999  12.105  1.00  0.00     0.181 HD
ENDROOT
BRANCH   3   5
HETATM    5  S   UNL     1     -42.464 -50.232  13.150  1.00  0.00     0.238 S 
HETATM    6  O   UNL     1     -43.067 -48.976  12.750  1.00  0.00    -0.205 OA
HETATM    7  O   UNL     1     -41.962 -50.411  14.495  1.00  0.00    -0.205 OA
BRANCH   5   8
HETATM    8  C   UNL     1     -41.214 -50.696  11.941  1.00  0.00     0.222 C 
BRANCH   8   9
HETATM    9  C   UNL     1     -39.931 -49.992  12.182  1.00  0.00     0.050 A 
HETATM   10  C   UNL     1     -38.630 -50.357  11.763  1.00  0.00     0.054 A 
HETATM   11  C   UNL     1     -37.829 -49.355  12.241  1.00  0.00     0.169 A 
HETATM   12  O   UNL     1     -38.589 -48.430  12.873  1.00  0.00    -0.250 OA
HETATM   13  N   UNL     1     -39.918 -48.817  12.827  1.00  0.00    -0.265 N 
ATOM     14  HN  UNL     1     -40.720 -48.312  13.205  1.00  0.00     0.194 HD
ENDBRANCH   8   9
ENDBRANCH   5   8
ENDBRANCH   3   5
BRANCH   1  15
HETATM   15  C   UNL     1     -45.798 -52.579  13.179  1.00  0.00     0.138 C 
HETATM   16  C   UNL     1     -46.630 -51.964  12.055  1.00  0.00     0.056 C 
HETATM   17  C   UNL     1     -45.039 -53.821  12.721  1.00  0.00     0.050 C 
HETATM   18  C   UNL     1     -45.330 -54.882  13.756  1.00  0.00     0.030 C 
HETATM   19  C   UNL     1     -46.250 -54.233  14.762  1.00  0.00     0.169 C 
HETATM   20  O   UNL     1     -46.698 -52.989  14.220  1.00  0.00    -0.371 OA
ENDBRANCH   1  15
TORSDOF 4
ENDMDL
