MODEL 1
REMARK VINA RESULT:      -6.4      0.000      0.000
REMARK  3 active torsions:
REMARK  status: ('A' for Active; 'I' for Inactive)
REMARK    1  A    between atoms: O_2  and  C_3 
REMARK    2  A    between atoms: C_4  and  N_5 
REMARK       I    between atoms: N_5  and  C_6 
REMARK       I    between atoms: C_6  and  N_8 
REMARK    3  A    between atoms: N_8  and  C_9 
ROOT
HETATM    1  N   UNL     1     -41.952 -51.418  11.738  1.00  0.00    -0.303 N 
HETATM    2  C   UNL     1     -42.601 -51.738  12.908  1.00  0.00     0.321 C 
HETATM    3  O   UNL     1     -42.285 -51.351  14.028  1.00  0.00    -0.247 OA
HETATM    4  N   UNL     1     -43.681 -52.558  12.681  1.00  0.00    -0.338 N 
HETATM    5  H   UNL     1     -41.940 -52.125  11.020  1.00  0.00     0.171 HD
HETATM    6  H   UNL     1     -43.821 -52.922  11.752  1.00  0.00     0.164 HD
ENDROOT
BRANCH   1   7
HETATM    7  C   UNL     1     -40.902 -50.514  11.725  1.00  0.00     0.113 A 
HETATM    8  C   UNL     1     -39.593 -50.807  12.066  1.00  0.00     0.188 A 
HETATM    9  N   UNL     1     -38.895 -49.650  11.819  1.00  0.00    -0.273 N 
HETATM   10  N   UNL     1     -39.654 -48.632  11.365  1.00  0.00    -0.299 N 
HETATM   11  C   UNL     1     -37.482 -49.433  12.010  1.00  0.00     0.180 C 
HETATM   12  C   UNL     1     -40.886 -49.154  11.302  1.00  0.00     0.053 A 
ATOM     13  HN  UNL     1     -39.358 -47.686  11.126  1.00  0.00     0.187 HD
HETATM   14  C   UNL     1     -41.983 -48.339  10.720  1.00  0.00     0.072 C 
BRANCH   8  15
HETATM   15  O   UNL     1     -38.972 -51.894  12.542  1.00  0.00    -0.338 OA
HETATM   16  C   UNL     1     -38.956 -52.028  13.963  1.00  0.00     0.211 C 
ENDBRANCH   8  15
ENDBRANCH   1   7
BRANCH   4  17
HETATM   17  C   UNL     1     -44.490 -53.065  13.773  1.00  0.00     0.093 C 
HETATM   18  C   UNL     1     -44.692 -54.584  13.690  1.00  0.00     0.026 C 
HETATM   19  C   UNL     1     -46.131 -54.847  14.123  1.00  0.00     0.003 C 
HETATM   20  C   UNL     1     -46.652 -53.520  14.667  1.00  0.00     0.011 C 
HETATM   21  C   UNL     1     -45.903 -52.446  13.863  1.00  0.00    -0.027 C 
HETATM   22  C   UNL     1     -45.865 -51.114  14.621  1.00  0.00     0.017 C 
HETATM   23  C   UNL     1     -46.582 -52.224  12.498  1.00  0.00     0.017 C 
ENDBRANCH   4  17
TORSDOF 3
ENDMDL
MODEL 2
REMARK VINA RESULT:      -6.3      1.433      2.656
REMARK  3 active torsions:
REMARK  status: ('A' for Active; 'I' for Inactive)
REMARK    1  A    between atoms: O_2  and  C_3 
REMARK    2  A    between atoms: C_4  and  N_5 
REMARK       I    between atoms: N_5  and  C_6 
REMARK       I    between atoms: C_6  and  N_8 
REMARK    3  A    between atoms: N_8  and  C_9 
ROOT
HETATM    1  N   UNL     1     -41.914 -50.763  11.611  1.00  0.00    -0.303 N 
HETATM    2  C   UNL     1     -42.509 -51.226  12.763  1.00  0.00     0.321 C 
HETATM    3  O   UNL     1     -42.267 -50.830  13.898  1.00  0.00    -0.247 OA
HETATM    4  N   UNL     1     -43.437 -52.204  12.498  1.00  0.00    -0.338 N 
HETATM    5  H   UNL     1     -41.781 -51.434  10.871  1.00  0.00     0.171 HD
HETATM    6  H   UNL     1     -43.509 -52.555  11.556  1.00  0.00     0.164 HD
ENDROOT
BRANCH   1   7
HETATM    7  C   UNL     1     -41.028 -49.699  11.639  1.00  0.00     0.113 A 
HETATM    8  C   UNL     1     -41.363 -48.376  11.405  1.00  0.00     0.188 A 
HETATM    9  N   UNL     1     -40.204 -47.673  11.628  1.00  0.00    -0.273 N 
HETATM   10  N   UNL     1     -39.149 -48.438  11.968  1.00  0.00    -0.299 N 
HETATM   11  C   UNL     1     -40.022 -46.246  11.519  1.00  0.00     0.180 C 
HETATM   12  C   UNL     1     -39.646 -49.683  11.981  1.00  0.00     0.053 A 
ATOM     13  HN  UNL     1     -38.194 -48.140  12.169  1.00  0.00     0.187 HD
HETATM   14  C   UNL     1     -38.779 -50.799  12.438  1.00  0.00     0.072 C 
BRANCH   8  15
HETATM   15  O   UNL     1     -42.487 -47.747  11.038  1.00  0.00    -0.338 OA
HETATM   16  C   UNL     1     -42.769 -47.744   9.638  1.00  0.00     0.211 C 
ENDBRANCH   8  15
ENDBRANCH   1   7
BRANCH   4  17
HETATM   17  C   UNL     1     -44.157 -52.874  13.563  1.00  0.00     0.093 C 
HETATM   18  C   UNL     1     -44.142 -54.401  13.404  1.00  0.00     0.026 C 
HETATM   19  C   UNL     1     -45.527 -54.886  13.825  1.00  0.00     0.003 C 
HETATM   20  C   UNL     1     -46.226 -53.675  14.435  1.00  0.00     0.011 C 
HETATM   21  C   UNL     1     -45.643 -52.467  13.685  1.00  0.00    -0.027 C 
HETATM   22  C   UNL     1     -45.787 -51.183  14.509  1.00  0.00     0.017 C 
HETATM   23  C   UNL     1     -46.357 -52.276  12.334  1.00  0.00     0.017 C 
ENDBRANCH   4  17
TORSDOF 3
ENDMDL
MODEL 3
REMARK VINA RESULT:      -6.2      2.006      6.800
REMARK  3 active torsions:
REMARK  status: ('A' for Active; 'I' for Inactive)
REMARK    1  A    between atoms: O_2  and  C_3 
REMARK    2  A    between atoms: C_4  and  N_5 
REMARK       I    between atoms: N_5  and  C_6 
REMARK       I    between atoms: C_6  and  N_8 
REMARK    3  A    between atoms: N_8  and  C_9 
ROOT
HETATM    1  N   UNL     1     -42.561 -52.059  12.010  1.00  0.00    -0.303 N 
HETATM    2  C   UNL     1     -42.453 -50.775  12.494  1.00  0.00     0.321 C 
HETATM    3  O   UNL     1     -42.900 -50.376  13.564  1.00  0.00    -0.247 OA
HETATM    4  N   UNL     1     -41.762 -49.963  11.627  1.00  0.00    -0.338 N 
HETATM    5  H   UNL     1     -42.641 -52.161  11.011  1.00  0.00     0.171 HD
HETATM    6  H   UNL     1     -41.515 -50.327  10.720  1.00  0.00     0.164 HD
ENDROOT
BRANCH   1   7
HETATM    7  C   UNL     1     -43.124 -53.068  12.775  1.00  0.00     0.113 A 
HETATM    8  C   UNL     1     -44.454 -53.448  12.739  1.00  0.00     0.188 A 
HETATM    9  N   UNL     1     -44.536 -54.531  13.580  1.00  0.00    -0.273 N 
HETATM   10  N   UNL     1     -43.370 -54.865  14.168  1.00  0.00    -0.299 N 
HETATM   11  C   UNL     1     -45.717 -55.300  13.889  1.00  0.00     0.180 C 
HETATM   12  C   UNL     1     -42.497 -53.974  13.677  1.00  0.00     0.053 A 
ATOM     13  HN  UNL     1     -43.193 -55.619  14.831  1.00  0.00     0.187 HD
HETATM   14  C   UNL     1     -41.058 -54.114  14.020  1.00  0.00     0.072 C 
BRANCH   8  15
HETATM   15  O   UNL     1     -45.541 -52.990  12.103  1.00  0.00    -0.338 OA
HETATM   16  C   UNL     1     -46.164 -51.845  12.685  1.00  0.00     0.211 C 
ENDBRANCH   8  15
ENDBRANCH   1   7
BRANCH   4  17
HETATM   17  C   UNL     1     -41.564 -48.553  11.903  1.00  0.00     0.093 C 
HETATM   18  C   UNL     1     -41.802 -47.679  10.665  1.00  0.00     0.026 C 
HETATM   19  C   UNL     1     -40.743 -46.580  10.711  1.00  0.00     0.003 C 
HETATM   20  C   UNL     1     -40.076 -46.699  12.077  1.00  0.00     0.011 C 
HETATM   21  C   UNL     1     -40.153 -48.195  12.421  1.00  0.00    -0.027 C 
HETATM   22  C   UNL     1     -40.057 -48.420  13.935  1.00  0.00     0.017 C 
HETATM   23  C   UNL     1     -39.013 -48.966  11.729  1.00  0.00     0.017 C 
ENDBRANCH   4  17
TORSDOF 3
ENDMDL
MODEL 4
REMARK VINA RESULT:      -5.7      2.970      5.816
REMARK  3 active torsions:
REMARK  status: ('A' for Active; 'I' for Inactive)
REMARK    1  A    between atoms: O_2  and  C_3 
REMARK    2  A    between atoms: C_4  and  N_5 
REMARK       I    between atoms: N_5  and  C_6 
REMARK       I    between atoms: C_6  and  N_8 
REMARK    3  A    between atoms: N_8  and  C_9 
ROOT
HETATM    1  N   UNL     1     -40.002 -50.129  11.390  1.00  0.00    -0.303 N 
HETATM    2  C   UNL     1     -41.159 -49.387  11.476  1.00  0.00     0.321 C 
HETATM    3  O   UNL     1     -41.935 -49.383  12.425  1.00  0.00    -0.247 OA
HETATM    4  N   UNL     1     -41.354 -48.621  10.351  1.00  0.00    -0.338 N 
HETATM    5  H   UNL     1     -39.742 -50.457  10.473  1.00  0.00     0.171 HD
HETATM    6  H   UNL     1     -40.735 -48.752   9.567  1.00  0.00     0.164 HD
ENDROOT
BRANCH   1   7
HETATM    7  C   UNL     1     -39.558 -50.888  12.460  1.00  0.00     0.113 A 
HETATM    8  C   UNL     1     -39.911 -52.203  12.708  1.00  0.00     0.188 A 
HETATM    9  N   UNL     1     -39.170 -52.569  13.805  1.00  0.00    -0.273 N 
HETATM   10  N   UNL     1     -38.383 -51.590  14.293  1.00  0.00    -0.299 N 
HETATM   11  C   UNL     1     -39.171 -53.853  14.462  1.00  0.00     0.180 C 
HETATM   12  C   UNL     1     -38.612 -50.555  13.472  1.00  0.00     0.053 A 
ATOM     13  HN  UNL     1     -37.759 -51.628  15.098  1.00  0.00     0.187 HD
HETATM   14  C   UNL     1     -37.812 -49.315  13.638  1.00  0.00     0.072 C 
BRANCH   8  15
HETATM   15  O   UNL     1     -40.755 -53.069  12.131  1.00  0.00    -0.338 OA
HETATM   16  C   UNL     1     -42.134 -52.907  12.461  1.00  0.00     0.211 C 
ENDBRANCH   8  15
ENDBRANCH   1   7
BRANCH   4  17
HETATM   17  C   UNL     1     -42.532 -47.791  10.195  1.00  0.00     0.093 C 
HETATM   18  C   UNL     1     -43.031 -47.756   8.744  1.00  0.00     0.026 C 
HETATM   19  C   UNL     1     -43.490 -46.323   8.486  1.00  0.00     0.003 C 
HETATM   20  C   UNL     1     -43.471 -45.628   9.844  1.00  0.00     0.011 C 
HETATM   21  C   UNL     1     -42.339 -46.318  10.621  1.00  0.00    -0.027 C 
HETATM   22  C   UNL     1     -42.532 -46.162  12.134  1.00  0.00     0.017 C 
HETATM   23  C   UNL     1     -40.974 -45.722  10.228  1.00  0.00     0.017 C 
ENDBRANCH   4  17
TORSDOF 3
ENDMDL
MODEL 5
REMARK VINA RESULT:      -5.7      2.327      5.755
REMARK  3 active torsions:
REMARK  status: ('A' for Active; 'I' for Inactive)
REMARK    1  A    between atoms: O_2  and  C_3 
REMARK    2  A    between atoms: C_4  and  N_5 
REMARK       I    between atoms: N_5  and  C_6 
REMARK       I    between atoms: C_6  and  N_8 
REMARK    3  A    between atoms: N_8  and  C_9 
ROOT
HETATM    1  N   UNL     1     -41.467 -51.472  11.744  1.00  0.00    -0.303 N 
HETATM    2  C   UNL     1     -42.067 -50.307  12.165  1.00  0.00     0.321 C 
HETATM    3  O   UNL     1     -42.617 -50.139  13.248  1.00  0.00    -0.247 OA
HETATM    4  N   UNL     1     -41.976 -49.318  11.214  1.00  0.00    -0.338 N 
HETATM    5  H   UNL     1     -41.519 -51.677  10.759  1.00  0.00     0.171 HD
HETATM    6  H   UNL     1     -41.606 -49.556  10.308  1.00  0.00     0.164 HD
ENDROOT
BRANCH   1   7
HETATM    7  C   UNL     1     -41.348 -52.562  12.591  1.00  0.00     0.113 A 
HETATM    8  C   UNL     1     -40.212 -52.896  13.307  1.00  0.00     0.188 A 
HETATM    9  N   UNL     1     -40.578 -53.979  14.069  1.00  0.00    -0.273 N 
HETATM   10  N   UNL     1     -41.852 -54.378  13.886  1.00  0.00    -0.299 N 
HETATM   11  C   UNL     1     -39.747 -54.705  14.998  1.00  0.00     0.180 C 
HETATM   12  C   UNL     1     -42.333 -53.513  12.983  1.00  0.00     0.053 A 
ATOM     13  HN  UNL     1     -42.336 -55.157  14.332  1.00  0.00     0.187 HD
HETATM   14  C   UNL     1     -43.773 -53.577  12.623  1.00  0.00     0.072 C 
BRANCH   8  15
HETATM   15  O   UNL     1     -38.967 -52.404  13.369  1.00  0.00    -0.338 OA
HETATM   16  C   UNL     1     -38.808 -51.211  14.137  1.00  0.00     0.211 C 
ENDBRANCH   8  15
ENDBRANCH   1   7
BRANCH   4  17
HETATM   17  C   UNL     1     -42.578 -48.015  11.416  1.00  0.00     0.093 C 
HETATM   18  C   UNL     1     -43.292 -47.503  10.158  1.00  0.00     0.026 C 
HETATM   19  C   UNL     1     -43.011 -46.004  10.090  1.00  0.00     0.003 C 
HETATM   20  C   UNL     1     -42.352 -45.642  11.417  1.00  0.00     0.011 C 
HETATM   21  C   UNL     1     -41.583 -46.907  11.830  1.00  0.00    -0.027 C 
HETATM   22  C   UNL     1     -41.338 -46.935  13.343  1.00  0.00     0.017 C 
HETATM   23  C   UNL     1     -40.227 -46.975  11.103  1.00  0.00     0.017 C 
ENDBRANCH   4  17
TORSDOF 3
ENDMDL
MODEL 6
REMARK VINA RESULT:      -5.5      1.278      1.998
REMARK  3 active torsions:
REMARK  status: ('A' for Active; 'I' for Inactive)
REMARK    1  A    between atoms: O_2  and  C_3 
REMARK    2  A    between atoms: C_4  and  N_5 
REMARK       I    between atoms: N_5  and  C_6 
REMARK       I    between atoms: C_6  and  N_8 
REMARK    3  A    between atoms: N_8  and  C_9 
ROOT
HETATM    1  N   UNL     1     -41.825 -50.447  13.365  1.00  0.00    -0.303 N 
HETATM    2  C   UNL     1     -42.681 -51.484  13.072  1.00  0.00     0.321 C 
HETATM    3  O   UNL     1     -42.560 -52.266  12.135  1.00  0.00    -0.247 OA
HETATM    4  N   UNL     1     -43.715 -51.559  13.975  1.00  0.00    -0.338 N 
HETATM    5  H   UNL     1     -42.237 -49.621  13.768  1.00  0.00     0.171 HD
HETATM    6  H   UNL     1     -43.812 -50.823  14.656  1.00  0.00     0.164 HD
ENDROOT
BRANCH   1   7
HETATM    7  C   UNL     1     -40.655 -50.259  12.646  1.00  0.00     0.113 A 
HETATM    8  C   UNL     1     -39.444 -50.870  12.921  1.00  0.00     0.188 A 
HETATM    9  N   UNL     1     -38.607 -50.466  11.909  1.00  0.00    -0.273 N 
HETATM   10  N   UNL     1     -39.177 -49.631  11.019  1.00  0.00    -0.299 N 
HETATM   11  C   UNL     1     -37.222 -50.831  11.733  1.00  0.00     0.180 C 
HETATM   12  C   UNL     1     -40.435 -49.501  11.461  1.00  0.00     0.053 A 
ATOM     13  HN  UNL     1     -38.751 -49.199  10.199  1.00  0.00     0.187 HD
HETATM   14  C   UNL     1     -41.408 -48.731  10.645  1.00  0.00     0.072 C 
BRANCH   8  15
HETATM   15  O   UNL     1     -39.005 -51.684  13.890  1.00  0.00    -0.338 OA
HETATM   16  C   UNL     1     -38.821 -51.082  15.171  1.00  0.00     0.211 C 
ENDBRANCH   8  15
ENDBRANCH   1   7
BRANCH   4  17
HETATM   17  C   UNL     1     -44.769 -52.546  13.841  1.00  0.00     0.093 C 
HETATM   18  C   UNL     1     -46.166 -51.927  13.980  1.00  0.00     0.026 C 
HETATM   19  C   UNL     1     -47.001 -52.936  14.764  1.00  0.00     0.003 C 
HETATM   20  C   UNL     1     -46.154 -54.200  14.855  1.00  0.00     0.011 C 
HETATM   21  C   UNL     1     -44.701 -53.697  14.869  1.00  0.00    -0.027 C 
HETATM   22  C   UNL     1     -43.733 -54.789  14.398  1.00  0.00     0.017 C 
HETATM   23  C   UNL     1     -44.299 -53.252  16.288  1.00  0.00     0.017 C 
ENDBRANCH   4  17
TORSDOF 3
ENDMDL
MODEL 7
REMARK VINA RESULT:      -5.4      2.437      6.267
REMARK  3 active torsions:
REMARK  status: ('A' for Active; 'I' for Inactive)
REMARK    1  A    between atoms: O_2  and  C_3 
REMARK    2  A    between atoms: C_4  and  N_5 
REMARK       I    between atoms: N_5  and  C_6 
REMARK       I    between atoms: C_6  and  N_8 
REMARK    3  A    between atoms: N_8  and  C_9 
ROOT
HETATM    1  N   UNL     1     -41.936 -51.031  12.002  1.00  0.00    -0.303 N 
HETATM    2  C   UNL     1     -42.624 -49.845  12.114  1.00  0.00     0.321 C 
HETATM    3  O   UNL     1     -43.382 -49.544  13.030  1.00  0.00    -0.247 OA
HETATM    4  N   UNL     1     -42.359 -49.003  11.060  1.00  0.00    -0.338 N 
HETATM    5  H   UNL     1     -41.786 -51.380  11.068  1.00  0.00     0.171 HD
HETATM    6  H   UNL     1     -41.812 -49.354  10.291  1.00  0.00     0.164 HD
ENDROOT
BRANCH   1   7
HETATM    7  C   UNL     1     -41.972 -51.979  13.011  1.00  0.00     0.113 A 
HETATM    8  C   UNL     1     -42.874 -53.027  13.090  1.00  0.00     0.188 A 
HETATM    9  N   UNL     1     -42.480 -53.751  14.188  1.00  0.00    -0.273 N 
HETATM   10  N   UNL     1     -41.411 -53.243  14.833  1.00  0.00    -0.299 N 
HETATM   11  C   UNL     1     -43.096 -54.951  14.701  1.00  0.00     0.180 C 
HETATM   12  C   UNL     1     -41.091 -52.157  14.115  1.00  0.00     0.053 A 
ATOM     13  HN  UNL     1     -40.953 -53.601  15.670  1.00  0.00     0.187 HD
HETATM   14  C   UNL     1     -39.864 -51.398  14.470  1.00  0.00     0.072 C 
BRANCH   8  15
HETATM   15  O   UNL     1     -43.936 -53.402  12.366  1.00  0.00    -0.338 OA
HETATM   16  C   UNL     1     -45.162 -52.737  12.670  1.00  0.00     0.211 C 
ENDBRANCH   8  15
ENDBRANCH   1   7
BRANCH   4  17
HETATM   17  C   UNL     1     -43.009 -47.712  10.940  1.00  0.00     0.093 C 
HETATM   18  C   UNL     1     -43.527 -47.452   9.519  1.00  0.00     0.026 C 
HETATM   19  C   UNL     1     -43.266 -45.976   9.234  1.00  0.00     0.003 C 
HETATM   20  C   UNL     1     -42.827 -45.365  10.561  1.00  0.00     0.011 C 
HETATM   21  C   UNL     1     -42.110 -46.507  11.299  1.00  0.00    -0.027 C 
HETATM   22  C   UNL     1     -42.103 -46.268  12.813  1.00  0.00     0.017 C 
HETATM   23  C   UNL     1     -40.656 -46.637  10.807  1.00  0.00     0.017 C 
ENDBRANCH   4  17
TORSDOF 3
ENDMDL
MODEL 8
REMARK VINA RESULT:      -5.3      2.640      3.435
REMARK  3 active torsions:
REMARK  status: ('A' for Active; 'I' for Inactive)
REMARK    1  A    between atoms: O_2  and  C_3 
REMARK    2  A    between atoms: C_4  and  N_5 
REMARK       I    between atoms: N_5  and  C_6 
REMARK       I    between atoms: C_6  and  N_8 
REMARK    3  A    between atoms: N_8  and  C_9 
ROOT
HETATM    1  N   UNL     1     -43.618 -49.147  12.230  1.00  0.00    -0.303 N 
HETATM    2  C   UNL     1     -43.303 -50.261  12.975  1.00  0.00     0.321 C 
HETATM    3  O   UNL     1     -42.243 -50.450  13.560  1.00  0.00    -0.247 OA
HETATM    4  N   UNL     1     -44.340 -51.164  13.000  1.00  0.00    -0.338 N 
HETATM    5  H   UNL     1     -44.215 -49.292  11.431  1.00  0.00     0.171 HD
HETATM    6  H   UNL     1     -45.140 -50.993  12.412  1.00  0.00     0.164 HD
ENDROOT
BRANCH   1   7
HETATM    7  C   UNL     1     -42.758 -48.063  12.163  1.00  0.00     0.113 A 
HETATM    8  C   UNL     1     -42.145 -47.601  11.011  1.00  0.00     0.188 A 
HETATM    9  N   UNL     1     -41.469 -46.470  11.399  1.00  0.00    -0.273 N 
HETATM   10  N   UNL     1     -41.582 -46.180  12.710  1.00  0.00    -0.299 N 
HETATM   11  C   UNL     1     -40.668 -45.610  10.563  1.00  0.00     0.180 C 
HETATM   12  C   UNL     1     -42.375 -47.150  13.186  1.00  0.00     0.053 A 
ATOM     13  HN  UNL     1     -41.164 -45.403  13.221  1.00  0.00     0.187 HD
HETATM   14  C   UNL     1     -42.821 -47.084  14.602  1.00  0.00     0.072 C 
BRANCH   8  15
HETATM   15  O   UNL     1     -42.103 -48.023   9.741  1.00  0.00    -0.338 OA
HETATM   16  C   UNL     1     -43.209 -47.642   8.922  1.00  0.00     0.211 C 
ENDBRANCH   8  15
ENDBRANCH   1   7
BRANCH   4  17
HETATM   17  C   UNL     1     -44.220 -52.436  13.686  1.00  0.00     0.093 C 
HETATM   18  C   UNL     1     -44.413 -53.627  12.738  1.00  0.00     0.026 C 
HETATM   19  C   UNL     1     -45.204 -54.671  13.523  1.00  0.00     0.003 C 
HETATM   20  C   UNL     1     -45.244 -54.169  14.962  1.00  0.00     0.011 C 
HETATM   21  C   UNL     1     -45.224 -52.636  14.843  1.00  0.00    -0.027 C 
HETATM   22  C   UNL     1     -44.703 -51.988  16.131  1.00  0.00     0.017 C 
HETATM   23  C   UNL     1     -46.637 -52.100  14.550  1.00  0.00     0.017 C 
ENDBRANCH   4  17
TORSDOF 3
ENDMDL
MODEL 9
REMARK VINA RESULT:      -5.3      1.919      6.298
REMARK  3 active torsions:
REMARK  status: ('A' for Active; 'I' for Inactive)
REMARK    1  A    between atoms: O_2  and  C_3 
REMARK    2  A    between atoms: C_4  and  N_5 
REMARK       I    between atoms: N_5  and  C_6 
REMARK       I    between atoms: C_6  and  N_8 
REMARK    3  A    between atoms: N_8  and  C_9 
ROOT
HETATM    1  N   UNL     1     -42.525 -51.931  12.024  1.00  0.00    -0.303 N 
HETATM    2  C   UNL     1     -42.409 -50.643  12.496  1.00  0.00     0.321 C 
HETATM    3  O   UNL     1     -42.805 -50.245  13.586  1.00  0.00    -0.247 OA
HETATM    4  N   UNL     1     -41.777 -49.826  11.590  1.00  0.00    -0.338 N 
HETATM    5  H   UNL     1     -42.656 -52.039  11.031  1.00  0.00     0.171 HD
HETATM    6  H   UNL     1     -41.574 -50.192  10.673  1.00  0.00     0.164 HD
ENDROOT
BRANCH   1   7
HETATM    7  C   UNL     1     -43.032 -52.943  12.822  1.00  0.00     0.113 A 
HETATM    8  C   UNL     1     -42.283 -53.746  13.665  1.00  0.00     0.188 A 
HETATM    9  N   UNL     1     -43.203 -54.532  14.316  1.00  0.00    -0.273 N 
HETATM   10  N   UNL     1     -44.480 -54.312  13.945  1.00  0.00    -0.299 N 
HETATM   11  C   UNL     1     -42.931 -55.543  15.309  1.00  0.00     0.180 C 
HETATM   12  C   UNL     1     -44.385 -53.336  13.031  1.00  0.00     0.053 A 
ATOM     13  HN  UNL     1     -45.321 -54.779  14.281  1.00  0.00     0.187 HD
HETATM   14  C   UNL     1     -45.631 -52.745  12.480  1.00  0.00     0.072 C 
BRANCH   8  15
HETATM   15  O   UNL     1     -40.974 -53.872  13.917  1.00  0.00    -0.338 OA
HETATM   16  C   UNL     1     -40.406 -52.876  14.768  1.00  0.00     0.211 C 
ENDBRANCH   8  15
ENDBRANCH   1   7
BRANCH   4  17
HETATM   17  C   UNL     1     -41.585 -48.412  11.849  1.00  0.00     0.093 C 
HETATM   18  C   UNL     1     -41.817 -47.554  10.598  1.00  0.00     0.026 C 
HETATM   19  C   UNL     1     -40.762 -46.452  10.636  1.00  0.00     0.003 C 
HETATM   20  C   UNL     1     -40.103 -46.551  12.008  1.00  0.00     0.011 C 
HETATM   21  C   UNL     1     -40.178 -48.043  12.371  1.00  0.00    -0.027 C 
HETATM   22  C   UNL     1     -40.092 -48.247  13.888  1.00  0.00     0.017 C 
HETATM   23  C   UNL     1     -39.032 -48.820  11.697  1.00  0.00     0.017 C 
ENDBRANCH   4  17
TORSDOF 3
ENDMDL
