MODEL 1
REMARK VINA RESULT:      -6.0      0.000      0.000
REMARK  4 active torsions:
REMARK  status: ('A' for Active; 'I' for Inactive)
REMARK    1  A    between atoms: C_2  and  C_3 
REMARK    2  A    between atoms: C_2  and  C_14 
REMARK    3  A    between atoms: C_3  and  N_4 
REMARK       I    between atoms: N_4  and  C_5 
REMARK       I    between atoms: C_5  and  N_7 
REMARK    4  A    between atoms: N_7  and  C_8 
ROOT
HETATM    1  N   UNL     1     -41.590 -50.692  11.928  1.00  0.00    -0.342 N 
HETATM    2  C   UNL     1     -41.618 -52.045  12.161  1.00  0.00     0.316 C 
HETATM    3  O   UNL     1     -40.647 -52.781  12.072  1.00  0.00    -0.247 OA
HETATM    4  N   UNL     1     -42.881 -52.458  12.508  1.00  0.00    -0.338 N 
HETATM    5  H   UNL     1     -42.456 -50.314  11.554  1.00  0.00     0.164 HD
HETATM    6  H   UNL     1     -43.456 -51.732  12.910  1.00  0.00     0.164 HD
ENDROOT
BRANCH   1   7
HETATM    7  C   UNL     1     -40.380 -50.087  11.397  1.00  0.00     0.135 C 
BRANCH   7   8
HETATM    8  C   UNL     1     -40.400 -48.549  11.391  1.00  0.00     0.057 C 
HETATM    9  C   UNL     1     -40.303 -47.962  12.800  1.00  0.00     0.018 C 
BRANCH   8  10
HETATM   10  C   UNL     1     -41.633 -48.033  10.692  1.00  0.00     0.056 A 
HETATM   11  N   UNL     1     -41.904 -48.240   9.418  1.00  0.00    -0.357 N 
HETATM   12  C   UNL     1     -43.127 -47.673   9.094  1.00  0.00     0.012 A 
ATOM     13  HN  UNL     1     -41.301 -48.743   8.767  1.00  0.00     0.166 HD
HETATM   14  C   UNL     1     -43.646 -47.822   7.711  1.00  0.00     0.068 C 
HETATM   15  C   UNL     1     -43.754 -47.017  10.135  1.00  0.00     0.076 A 
HETATM   16  S   UNL     1     -42.805 -47.117  11.555  1.00  0.00    -0.086 SA
ENDBRANCH   8  10
ENDBRANCH   7   8
ENDBRANCH   1   7
BRANCH   4  17
HETATM   17  C   UNL     1     -43.159 -53.848  12.859  1.00  0.00     0.090 C 
HETATM   18  C   UNL     1     -44.643 -54.169  12.669  1.00  0.00     0.051 C 
HETATM   19  C   UNL     1     -45.490 -53.571  13.783  1.00  0.00     0.169 C 
HETATM   20  O   UNL     1     -45.017 -53.990  15.061  1.00  0.00    -0.391 OA
HETATM   21  C   UNL     1     -43.675 -53.571  15.310  1.00  0.00     0.169 C 
HETATM   22  C   UNL     1     -42.722 -54.175  14.289  1.00  0.00     0.051 C 
ENDBRANCH   4  17
TORSDOF 4
ENDMDL
MODEL 2
REMARK VINA RESULT:      -5.9      1.507      1.592
REMARK  4 active torsions:
REMARK  status: ('A' for Active; 'I' for Inactive)
REMARK    1  A    between atoms: C_2  and  C_3 
REMARK    2  A    between atoms: C_2  and  C_14 
REMARK    3  A    between atoms: C_3  and  N_4 
REMARK       I    between atoms: N_4  and  C_5 
REMARK       I    between atoms: C_5  and  N_7 
REMARK    4  A    between atoms: N_7  and  C_8 
ROOT
HETATM    1  N   UNL     1     -42.656 -50.371  12.555  1.00  0.00    -0.342 N 
HETATM    2  C   UNL     1     -42.453 -51.723  12.430  1.00  0.00     0.316 C 
HETATM    3  O   UNL     1     -41.561 -52.228  11.765  1.00  0.00    -0.247 OA
HETATM    4  N   UNL     1     -43.384 -52.429  13.151  1.00  0.00    -0.338 N 
HETATM    5  H   UNL     1     -43.629 -50.105  12.681  1.00  0.00     0.164 HD
HETATM    6  H   UNL     1     -43.783 -51.917  13.923  1.00  0.00     0.164 HD
ENDROOT
BRANCH   1   7
HETATM    7  C   UNL     1     -41.873 -49.456  11.742  1.00  0.00     0.135 C 
BRANCH   7   8
HETATM    8  C   UNL     1     -42.249 -47.976  11.928  1.00  0.00     0.057 C 
HETATM    9  C   UNL     1     -42.918 -47.712  13.278  1.00  0.00     0.018 C 
BRANCH   8  10
HETATM   10  C   UNL     1     -43.137 -47.505  10.803  1.00  0.00     0.056 A 
HETATM   11  N   UNL     1     -44.274 -48.083  10.466  1.00  0.00    -0.357 N 
HETATM   12  C   UNL     1     -44.870 -47.387   9.425  1.00  0.00     0.012 A 
ATOM     13  HN  UNL     1     -44.658 -48.919  10.907  1.00  0.00     0.166 HD
HETATM   14  C   UNL     1     -46.186 -47.847   8.912  1.00  0.00     0.068 C 
HETATM   15  C   UNL     1     -44.152 -46.299   8.971  1.00  0.00     0.076 A 
HETATM   16  S   UNL     1     -42.705 -46.129   9.867  1.00  0.00    -0.086 SA
ENDBRANCH   8  10
ENDBRANCH   7   8
ENDBRANCH   1   7
BRANCH   4  17
HETATM   17  C   UNL     1     -43.346 -53.887  13.223  1.00  0.00     0.090 C 
HETATM   18  C   UNL     1     -44.761 -54.468  13.216  1.00  0.00     0.051 C 
HETATM   19  C   UNL     1     -45.449 -54.279  14.560  1.00  0.00     0.169 C 
HETATM   20  O   UNL     1     -44.658 -54.824  15.615  1.00  0.00    -0.391 OA
HETATM   21  C   UNL     1     -43.384 -54.190  15.724  1.00  0.00     0.169 C 
HETATM   22  C   UNL     1     -42.574 -54.380  14.450  1.00  0.00     0.051 C 
ENDBRANCH   4  17
TORSDOF 4
ENDMDL
MODEL 3
REMARK VINA RESULT:      -5.8      1.498      1.923
REMARK  4 active torsions:
REMARK  status: ('A' for Active; 'I' for Inactive)
REMARK    1  A    between atoms: C_2  and  C_3 
REMARK    2  A    between atoms: C_2  and  C_14 
REMARK    3  A    between atoms: C_3  and  N_4 
REMARK       I    between atoms: N_4  and  C_5 
REMARK       I    between atoms: C_5  and  N_7 
REMARK    4  A    between atoms: N_7  and  C_8 
ROOT
HETATM    1  N   UNL     1     -40.453 -51.207  13.529  1.00  0.00    -0.342 N 
HETATM    2  C   UNL     1     -40.810 -52.506  13.261  1.00  0.00     0.316 C 
HETATM    3  O   UNL     1     -40.040 -53.365  12.859  1.00  0.00    -0.247 OA
HETATM    4  N   UNL     1     -42.146 -52.709  13.506  1.00  0.00    -0.338 N 
HETATM    5  H   UNL     1     -41.191 -50.529  13.364  1.00  0.00     0.164 HD
HETATM    6  H   UNL     1     -42.545 -52.066  14.173  1.00  0.00     0.164 HD
ENDROOT
BRANCH   1   7
HETATM    7  C   UNL     1     -39.117 -50.752  13.183  1.00  0.00     0.135 C 
BRANCH   7   8
HETATM    8  C   UNL     1     -38.981 -50.255  11.734  1.00  0.00     0.057 C 
HETATM    9  C   UNL     1     -37.547 -49.845  11.394  1.00  0.00     0.018 C 
BRANCH   8  10
HETATM   10  C   UNL     1     -39.928 -49.111  11.469  1.00  0.00     0.056 A 
HETATM   11  N   UNL     1     -40.877 -49.133  10.553  1.00  0.00    -0.357 N 
HETATM   12  C   UNL     1     -41.599 -47.950  10.589  1.00  0.00     0.012 A 
ATOM     13  HN  UNL     1     -41.052 -49.907   9.912  1.00  0.00     0.166 HD
HETATM   14  C   UNL     1     -42.745 -47.778   9.660  1.00  0.00     0.068 C 
HETATM   15  C   UNL     1     -41.161 -47.034  11.524  1.00  0.00     0.076 A 
HETATM   16  S   UNL     1     -39.826 -47.663  12.389  1.00  0.00    -0.086 SA
ENDBRANCH   8  10
ENDBRANCH   7   8
ENDBRANCH   1   7
BRANCH   4  17
HETATM   17  C   UNL     1     -42.758 -54.025  13.349  1.00  0.00     0.090 C 
HETATM   18  C   UNL     1     -44.120 -53.912  12.660  1.00  0.00     0.051 C 
HETATM   19  C   UNL     1     -45.182 -53.376  13.610  1.00  0.00     0.169 C 
HETATM   20  O   UNL     1     -45.251 -54.168  14.793  1.00  0.00    -0.391 OA
HETATM   21  C   UNL     1     -44.024 -54.166  15.523  1.00  0.00     0.169 C 
HETATM   22  C   UNL     1     -42.897 -54.756  14.688  1.00  0.00     0.051 C 
ENDBRANCH   4  17
TORSDOF 4
ENDMDL
MODEL 4
REMARK VINA RESULT:      -5.3      2.482      3.370
REMARK  4 active torsions:
REMARK  status: ('A' for Active; 'I' for Inactive)
REMARK    1  A    between atoms: C_2  and  C_3 
REMARK    2  A    between atoms: C_2  and  C_14 
REMARK    3  A    between atoms: C_3  and  N_4 
REMARK       I    between atoms: N_4  and  C_5 
REMARK       I    between atoms: C_5  and  N_7 
REMARK    4  A    between atoms: N_7  and  C_8 
ROOT
HETATM    1  N   UNL     1     -41.872 -49.584  11.300  1.00  0.00    -0.342 N 
HETATM    2  C   UNL     1     -40.852 -50.390  11.742  1.00  0.00     0.316 C 
HETATM    3  O   UNL     1     -39.665 -50.141  11.601  1.00  0.00    -0.247 OA
HETATM    4  N   UNL     1     -41.346 -51.511  12.363  1.00  0.00    -0.338 N 
HETATM    5  H   UNL     1     -42.713 -50.085  11.028  1.00  0.00     0.164 HD
HETATM    6  H   UNL     1     -42.275 -51.397  12.742  1.00  0.00     0.164 HD
ENDROOT
BRANCH   1   7
HETATM    7  C   UNL     1     -41.558 -48.427  10.478  1.00  0.00     0.135 C 
BRANCH   7   8
HETATM    8  C   UNL     1     -42.729 -47.447  10.304  1.00  0.00     0.057 C 
HETATM    9  C   UNL     1     -43.345 -47.521   8.905  1.00  0.00     0.018 C 
BRANCH   8  10
HETATM   10  C   UNL     1     -42.295 -46.034  10.608  1.00  0.00     0.056 A 
HETATM   11  N   UNL     1     -43.124 -45.015  10.729  1.00  0.00    -0.357 N 
HETATM   12  C   UNL     1     -42.419 -43.865  11.052  1.00  0.00     0.012 A 
ATOM     13  HN  UNL     1     -44.135 -45.066  10.604  1.00  0.00     0.166 HD
HETATM   14  C   UNL     1     -43.165 -42.600  11.273  1.00  0.00     0.068 C 
HETATM   15  C   UNL     1     -41.051 -44.032  11.143  1.00  0.00     0.076 A 
HETATM   16  S   UNL     1     -40.632 -45.661  10.832  1.00  0.00    -0.086 SA
ENDBRANCH   8  10
ENDBRANCH   7   8
ENDBRANCH   1   7
BRANCH   4  17
HETATM   17  C   UNL     1     -40.459 -52.499  12.970  1.00  0.00     0.090 C 
HETATM   18  C   UNL     1     -41.011 -53.913  12.780  1.00  0.00     0.051 C 
HETATM   19  C   UNL     1     -42.183 -54.185  13.713  1.00  0.00     0.169 C 
HETATM   20  O   UNL     1     -41.819 -53.936  15.070  1.00  0.00    -0.391 OA
HETATM   21  C   UNL     1     -41.437 -52.579  15.291  1.00  0.00     0.169 C 
HETATM   22  C   UNL     1     -40.218 -52.217  14.456  1.00  0.00     0.051 C 
ENDBRANCH   4  17
TORSDOF 4
ENDMDL
MODEL 5
REMARK VINA RESULT:      -5.2      2.700      4.094
REMARK  4 active torsions:
REMARK  status: ('A' for Active; 'I' for Inactive)
REMARK    1  A    between atoms: C_2  and  C_3 
REMARK    2  A    between atoms: C_2  and  C_14 
REMARK    3  A    between atoms: C_3  and  N_4 
REMARK       I    between atoms: N_4  and  C_5 
REMARK       I    between atoms: C_5  and  N_7 
REMARK    4  A    between atoms: N_7  and  C_8 
ROOT
HETATM    1  N   UNL     1     -42.880 -48.437  12.855  1.00  0.00    -0.342 N 
HETATM    2  C   UNL     1     -43.331 -49.322  13.804  1.00  0.00     0.316 C 
HETATM    3  O   UNL     1     -43.206 -49.164  15.009  1.00  0.00    -0.247 OA
HETATM    4  N   UNL     1     -43.940 -50.403  13.218  1.00  0.00    -0.338 N 
HETATM    5  H   UNL     1     -42.595 -48.871  11.982  1.00  0.00     0.164 HD
HETATM    6  H   UNL     1     -44.307 -50.220  12.295  1.00  0.00     0.164 HD
ENDROOT
BRANCH   1   7
HETATM    7  C   UNL     1     -42.068 -47.305  13.268  1.00  0.00     0.135 C 
BRANCH   7   8
HETATM    8  C   UNL     1     -40.906 -46.987  12.312  1.00  0.00     0.057 C 
HETATM    9  C   UNL     1     -41.353 -46.947  10.849  1.00  0.00     0.018 C 
BRANCH   8  10
HETATM   10  C   UNL     1     -39.781 -47.977  12.488  1.00  0.00     0.056 A 
HETATM   11  N   UNL     1     -39.150 -48.565  11.491  1.00  0.00    -0.357 N 
HETATM   12  C   UNL     1     -38.144 -49.383  11.981  1.00  0.00     0.012 A 
ATOM     13  HN  UNL     1     -39.370 -48.437  10.503  1.00  0.00     0.166 HD
HETATM   14  C   UNL     1     -37.279 -50.116  11.022  1.00  0.00     0.068 C 
HETATM   15  C   UNL     1     -38.049 -49.420  13.358  1.00  0.00     0.076 A 
HETATM   16  S   UNL     1     -39.232 -48.403  14.060  1.00  0.00    -0.086 SA
ENDBRANCH   8  10
ENDBRANCH   7   8
ENDBRANCH   1   7
BRANCH   4  17
HETATM   17  C   UNL     1     -44.553 -51.460  14.018  1.00  0.00     0.090 C 
HETATM   18  C   UNL     1     -43.825 -52.789  13.811  1.00  0.00     0.051 C 
HETATM   19  C   UNL     1     -44.174 -53.412  12.466  1.00  0.00     0.169 C 
HETATM   20  O   UNL     1     -45.586 -53.553  12.323  1.00  0.00    -0.391 OA
HETATM   21  C   UNL     1     -46.266 -52.300  12.372  1.00  0.00     0.169 C 
HETATM   22  C   UNL     1     -46.046 -51.616  13.713  1.00  0.00     0.051 C 
ENDBRANCH   4  17
TORSDOF 4
ENDMDL
MODEL 6
REMARK VINA RESULT:      -5.2      3.091      6.429
REMARK  4 active torsions:
REMARK  status: ('A' for Active; 'I' for Inactive)
REMARK    1  A    between atoms: C_2  and  C_3 
REMARK    2  A    between atoms: C_2  and  C_14 
REMARK    3  A    between atoms: C_3  and  N_4 
REMARK       I    between atoms: N_4  and  C_5 
REMARK       I    between atoms: C_5  and  N_7 
REMARK    4  A    between atoms: N_7  and  C_8 
ROOT
HETATM    1  N   UNL     1     -41.653 -50.781  11.704  1.00  0.00    -0.342 N 
HETATM    2  C   UNL     1     -42.395 -49.699  12.110  1.00  0.00     0.316 C 
HETATM    3  O   UNL     1     -42.749 -49.498  13.262  1.00  0.00    -0.247 OA
HETATM    4  N   UNL     1     -42.683 -48.875  11.051  1.00  0.00    -0.338 N 
HETATM    5  H   UNL     1     -41.848 -51.089  10.756  1.00  0.00     0.164 HD
HETATM    6  H   UNL     1     -42.030 -48.945  10.284  1.00  0.00     0.164 HD
ENDROOT
BRANCH   1   7
HETATM    7  C   UNL     1     -41.380 -51.851  12.649  1.00  0.00     0.135 C 
BRANCH   7   8
HETATM    8  C   UNL     1     -39.893 -52.000  13.013  1.00  0.00     0.057 C 
HETATM    9  C   UNL     1     -39.666 -53.044  14.108  1.00  0.00     0.018 C 
BRANCH   8  10
HETATM   10  C   UNL     1     -39.307 -50.672  13.427  1.00  0.00     0.056 A 
HETATM   11  N   UNL     1     -39.697 -49.990  14.486  1.00  0.00    -0.357 N 
HETATM   12  C   UNL     1     -38.937 -48.837  14.614  1.00  0.00     0.012 A 
ATOM     13  HN  UNL     1     -40.447 -50.269  15.118  1.00  0.00     0.166 HD
HETATM   14  C   UNL     1     -39.184 -47.936  15.768  1.00  0.00     0.068 C 
HETATM   15  C   UNL     1     -37.994 -48.654  13.623  1.00  0.00     0.076 A 
HETATM   16  S   UNL     1     -38.045 -49.952  12.510  1.00  0.00    -0.086 SA
ENDBRANCH   8  10
ENDBRANCH   7   8
ENDBRANCH   1   7
BRANCH   4  17
HETATM   17  C   UNL     1     -43.416 -47.626  11.234  1.00  0.00     0.090 C 
HETATM   18  C   UNL     1     -44.273 -47.314  10.005  1.00  0.00     0.051 C 
HETATM   19  C   UNL     1     -43.425 -46.810   8.847  1.00  0.00     0.169 C 
HETATM   20  O   UNL     1     -42.640 -45.687   9.244  1.00  0.00    -0.391 OA
HETATM   21  C   UNL     1     -41.731 -46.003  10.298  1.00  0.00     0.169 C 
HETATM   22  C   UNL     1     -42.481 -46.453  11.543  1.00  0.00     0.051 C 
ENDBRANCH   4  17
TORSDOF 4
ENDMDL
MODEL 7
REMARK VINA RESULT:      -5.1      3.334      7.547
REMARK  4 active torsions:
REMARK  status: ('A' for Active; 'I' for Inactive)
REMARK    1  A    between atoms: C_2  and  C_3 
REMARK    2  A    between atoms: C_2  and  C_14 
REMARK    3  A    between atoms: C_3  and  N_4 
REMARK       I    between atoms: N_4  and  C_5 
REMARK       I    between atoms: C_5  and  N_7 
REMARK    4  A    between atoms: N_7  and  C_8 
ROOT
HETATM    1  N   UNL     1     -43.697 -49.643  12.735  1.00  0.00    -0.342 N 
HETATM    2  C   UNL     1     -42.767 -49.254  11.802  1.00  0.00     0.316 C 
HETATM    3  O   UNL     1     -41.661 -49.760  11.678  1.00  0.00    -0.247 OA
HETATM    4  N   UNL     1     -43.245 -48.225  11.030  1.00  0.00    -0.338 N 
HETATM    5  H   UNL     1     -44.299 -48.893  13.062  1.00  0.00     0.164 HD
HETATM    6  H   UNL     1     -44.253 -48.182  10.978  1.00  0.00     0.164 HD
ENDROOT
BRANCH   1   7
HETATM    7  C   UNL     1     -43.322 -50.612  13.751  1.00  0.00     0.135 C 
BRANCH   7   8
HETATM    8  C   UNL     1     -44.256 -51.832  13.827  1.00  0.00     0.057 C 
HETATM    9  C   UNL     1     -45.494 -51.563  14.685  1.00  0.00     0.018 C 
BRANCH   8  10
HETATM   10  C   UNL     1     -43.516 -53.042  14.342  1.00  0.00     0.056 A 
HETATM   11  N   UNL     1     -42.202 -53.122  14.432  1.00  0.00    -0.357 N 
HETATM   12  C   UNL     1     -41.838 -54.342  14.982  1.00  0.00     0.012 A 
ATOM     13  HN  UNL     1     -41.550 -52.394  14.140  1.00  0.00     0.166 HD
HETATM   14  C   UNL     1     -40.398 -54.629  15.209  1.00  0.00     0.068 C 
HETATM   15  C   UNL     1     -42.893 -55.182  15.276  1.00  0.00     0.076 A 
HETATM   16  S   UNL     1     -44.377 -54.432  14.871  1.00  0.00    -0.086 SA
ENDBRANCH   8  10
ENDBRANCH   7   8
ENDBRANCH   1   7
BRANCH   4  17
HETATM   17  C   UNL     1     -42.463 -47.671   9.929  1.00  0.00     0.090 C 
HETATM   18  C   UNL     1     -41.726 -46.405  10.370  1.00  0.00     0.051 C 
HETATM   19  C   UNL     1     -42.672 -45.218  10.481  1.00  0.00     0.169 C 
HETATM   20  O   UNL     1     -43.382 -45.019   9.260  1.00  0.00    -0.391 OA
HETATM   21  C   UNL     1     -44.189 -46.143   8.910  1.00  0.00     0.169 C 
HETATM   22  C   UNL     1     -43.330 -47.382   8.700  1.00  0.00     0.051 C 
ENDBRANCH   4  17
TORSDOF 4
ENDMDL
MODEL 8
REMARK VINA RESULT:      -5.1      2.495      3.137
REMARK  4 active torsions:
REMARK  status: ('A' for Active; 'I' for Inactive)
REMARK    1  A    between atoms: C_2  and  C_3 
REMARK    2  A    between atoms: C_2  and  C_14 
REMARK    3  A    between atoms: C_3  and  N_4 
REMARK       I    between atoms: N_4  and  C_5 
REMARK       I    between atoms: C_5  and  N_7 
REMARK    4  A    between atoms: N_7  and  C_8 
ROOT
HETATM    1  N   UNL     1     -40.259 -51.329  13.575  1.00  0.00    -0.342 N 
HETATM    2  C   UNL     1     -40.789 -52.525  13.158  1.00  0.00     0.316 C 
HETATM    3  O   UNL     1     -40.166 -53.379  12.545  1.00  0.00    -0.247 OA
HETATM    4  N   UNL     1     -42.109 -52.632  13.521  1.00  0.00    -0.338 N 
HETATM    5  H   UNL     1     -40.927 -50.563  13.601  1.00  0.00     0.164 HD
HETATM    6  H   UNL     1     -42.364 -52.069  14.319  1.00  0.00     0.164 HD
ENDROOT
BRANCH   1   7
HETATM    7  C   UNL     1     -38.920 -50.958  13.151  1.00  0.00     0.135 C 
BRANCH   7   8
HETATM    8  C   UNL     1     -38.886 -50.050  11.910  1.00  0.00     0.057 C 
HETATM    9  C   UNL     1     -37.489 -49.966  11.291  1.00  0.00     0.018 C 
BRANCH   8  10
HETATM   10  C   UNL     1     -39.393 -48.668  12.244  1.00  0.00     0.056 A 
HETATM   11  N   UNL     1     -38.848 -47.878  13.148  1.00  0.00    -0.357 N 
HETATM   12  C   UNL     1     -39.519 -46.666  13.187  1.00  0.00     0.012 A 
ATOM     13  HN  UNL     1     -38.049 -48.124  13.733  1.00  0.00     0.166 HD
HETATM   14  C   UNL     1     -39.044 -45.608  14.114  1.00  0.00     0.068 C 
HETATM   15  C   UNL     1     -40.590 -46.570  12.320  1.00  0.00     0.076 A 
HETATM   16  S   UNL     1     -40.759 -48.019  11.426  1.00  0.00    -0.086 SA
ENDBRANCH   8  10
ENDBRANCH   7   8
ENDBRANCH   1   7
BRANCH   4  17
HETATM   17  C   UNL     1     -42.882 -53.838  13.239  1.00  0.00     0.090 C 
HETATM   18  C   UNL     1     -44.135 -53.502  12.428  1.00  0.00     0.051 C 
HETATM   19  C   UNL     1     -45.203 -52.851  13.296  1.00  0.00     0.169 C 
HETATM   20  O   UNL     1     -45.506 -53.668  14.426  1.00  0.00    -0.391 OA
HETATM   21  C   UNL     1     -44.373 -53.871  15.270  1.00  0.00     0.169 C 
HETATM   22  C   UNL     1     -43.260 -54.588  14.519  1.00  0.00     0.051 C 
ENDBRANCH   4  17
TORSDOF 4
ENDMDL
MODEL 9
REMARK VINA RESULT:      -5.1      2.285      3.332
REMARK  4 active torsions:
REMARK  status: ('A' for Active; 'I' for Inactive)
REMARK    1  A    between atoms: C_2  and  C_3 
REMARK    2  A    between atoms: C_2  and  C_14 
REMARK    3  A    between atoms: C_3  and  N_4 
REMARK       I    between atoms: N_4  and  C_5 
REMARK       I    between atoms: C_5  and  N_7 
REMARK    4  A    between atoms: N_7  and  C_8 
ROOT
HETATM    1  N   UNL     1     -43.275 -49.970  12.571  1.00  0.00    -0.342 N 
HETATM    2  C   UNL     1     -42.791 -51.253  12.491  1.00  0.00     0.316 C 
HETATM    3  O   UNL     1     -41.661 -51.543  12.127  1.00  0.00    -0.247 OA
HETATM    4  N   UNL     1     -43.744 -52.163  12.875  1.00  0.00    -0.338 N 
HETATM    5  H   UNL     1     -44.272 -49.888  12.392  1.00  0.00     0.164 HD
HETATM    6  H   UNL     1     -44.448 -51.787  13.494  1.00  0.00     0.164 HD
ENDROOT
BRANCH   1   7
HETATM    7  C   UNL     1     -42.471 -48.874  12.057  1.00  0.00     0.135 C 
BRANCH   7   8
HETATM    8  C   UNL     1     -41.680 -48.118  13.138  1.00  0.00     0.057 C 
HETATM    9  C   UNL     1     -41.859 -46.602  13.034  1.00  0.00     0.018 C 
BRANCH   8  10
HETATM   10  C   UNL     1     -40.216 -48.477  13.081  1.00  0.00     0.056 A 
HETATM   11  N   UNL     1     -39.657 -49.145  12.091  1.00  0.00    -0.357 N 
HETATM   12  C   UNL     1     -38.295 -49.276  12.315  1.00  0.00     0.012 A 
ATOM     13  HN  UNL     1     -40.154 -49.512  11.279  1.00  0.00     0.166 HD
HETATM   14  C   UNL     1     -37.460 -49.967  11.300  1.00  0.00     0.068 C 
HETATM   15  C   UNL     1     -37.848 -48.720  13.498  1.00  0.00     0.076 A 
HETATM   16  S   UNL     1     -39.152 -48.008  14.347  1.00  0.00    -0.086 SA
ENDBRANCH   8  10
ENDBRANCH   7   8
ENDBRANCH   1   7
BRANCH   4  17
HETATM   17  C   UNL     1     -43.455 -53.593  12.930  1.00  0.00     0.090 C 
HETATM   18  C   UNL     1     -44.746 -54.411  12.853  1.00  0.00     0.051 C 
HETATM   19  C   UNL     1     -45.510 -54.372  14.168  1.00  0.00     0.169 C 
HETATM   20  O   UNL     1     -44.680 -54.792  15.250  1.00  0.00    -0.391 OA
HETATM   21  C   UNL     1     -43.542 -53.948  15.423  1.00  0.00     0.169 C 
HETATM   22  C   UNL     1     -42.660 -53.969  14.183  1.00  0.00     0.051 C 
ENDBRANCH   4  17
TORSDOF 4
ENDMDL
