MODEL 1
REMARK VINA RESULT:      -6.3      0.000      0.000
REMARK  5 active torsions:
REMARK  status: ('A' for Active; 'I' for Inactive)
REMARK    1  A    between atoms: C_8  and  C_9 
REMARK    2  A    between atoms: C_9  and  C_10 
REMARK       I    between atoms: C_10  and  N_12 
REMARK    3  A    between atoms: N_12  and  C_13 
REMARK    4  A    between atoms: C_13  and  C_14 
REMARK    5  A    between atoms: C_14  and  N_15 
ROOT
HETATM    1  C   UNL     1     -42.338 -48.868  11.517  1.00  0.00     0.222 C 
HETATM    2  O   UNL     1     -43.110 -48.394  12.344  1.00  0.00    -0.273 OA
HETATM    3  N   UNL     1     -41.840 -50.151  11.603  1.00  0.00    -0.359 N 
HETATM    4  H   UNL     1     -41.114 -50.443  10.959  1.00  0.00     0.162 HD
ENDROOT
BRANCH   1   5
HETATM    5  C   UNL     1     -41.869 -48.076  10.311  1.00  0.00     0.146 C 
BRANCH   5   6
HETATM    6  C   UNL     1     -42.623 -46.815  10.038  1.00  0.00     0.006 A 
HETATM    7  C   UNL     1     -43.871 -46.578   9.384  1.00  0.00     0.038 A 
HETATM    8  C   UNL     1     -44.833 -47.534   8.782  1.00  0.00     0.071 C 
HETATM    9  N   UNL     1     -44.154 -45.270   9.334  1.00  0.00    -0.265 N 
HETATM   10  O   UNL     1     -43.093 -44.625   9.921  1.00  0.00    -0.242 OA
ATOM     11  HN  UNL     1     -44.990 -44.839   8.940  1.00  0.00     0.194 HD
HETATM   12  C   UNL     1     -42.182 -45.537  10.335  1.00  0.00     0.081 A 
HETATM   13  C   UNL     1     -40.963 -44.992  10.965  1.00  0.00     0.079 C 
ENDBRANCH   5   6
ENDBRANCH   1   5
BRANCH   3  14
HETATM   14  C   UNL     1     -42.123 -51.006  12.749  1.00  0.00     0.152 C 
BRANCH  14  15
HETATM   15  C   UNL     1     -42.621 -52.422  12.372  1.00  0.00     0.292 C 
BRANCH  15  16
HETATM   16  N   UNL     1     -44.040 -52.695  12.728  1.00  0.00     0.090 N 
HETATM   17  C   UNL     1     -44.640 -51.612  13.519  1.00  0.00     0.272 C 
HETATM   18  C   UNL     1     -46.169 -51.645  13.482  1.00  0.00     0.030 C 
HETATM   19  C   UNL     1     -46.819 -52.453  14.597  1.00  0.00     0.002 C 
HETATM   20  C   UNL     1     -46.133 -53.766  14.949  1.00  0.00     0.002 C 
HETATM   21  C   UNL     1     -45.546 -54.504  13.752  1.00  0.00     0.030 C 
HETATM   22  C   UNL     1     -44.138 -54.021  13.367  1.00  0.00     0.272 C 
ENDBRANCH  15  16
ENDBRANCH  14  15
ENDBRANCH   3  14
TORSDOF 5
ENDMDL
MODEL 2
REMARK VINA RESULT:      -6.2      0.698      1.749
REMARK  5 active torsions:
REMARK  status: ('A' for Active; 'I' for Inactive)
REMARK    1  A    between atoms: C_8  and  C_9 
REMARK    2  A    between atoms: C_9  and  C_10 
REMARK       I    between atoms: C_10  and  N_12 
REMARK    3  A    between atoms: N_12  and  C_13 
REMARK    4  A    between atoms: C_13  and  C_14 
REMARK    5  A    between atoms: C_14  and  N_15 
ROOT
HETATM    1  C   UNL     1     -42.301 -48.867  11.626  1.00  0.00     0.222 C 
HETATM    2  O   UNL     1     -43.127 -48.385  12.395  1.00  0.00    -0.273 OA
HETATM    3  N   UNL     1     -41.877 -50.177  11.705  1.00  0.00    -0.359 N 
HETATM    4  H   UNL     1     -41.106 -50.481  11.122  1.00  0.00     0.162 HD
ENDROOT
BRANCH   1   5
HETATM    5  C   UNL     1     -41.679 -48.055  10.505  1.00  0.00     0.146 C 
BRANCH   5   6
HETATM    6  C   UNL     1     -42.450 -46.848  10.081  1.00  0.00     0.006 A 
HETATM    7  C   UNL     1     -42.622 -45.568  10.693  1.00  0.00     0.038 A 
HETATM    8  C   UNL     1     -42.055 -45.026  11.953  1.00  0.00     0.071 C 
HETATM    9  N   UNL     1     -43.436 -44.788   9.971  1.00  0.00    -0.265 N 
HETATM   10  O   UNL     1     -43.838 -45.544   8.895  1.00  0.00    -0.242 OA
ATOM     11  HN  UNL     1     -43.704 -43.826  10.177  1.00  0.00     0.194 HD
HETATM   12  C   UNL     1     -43.259 -46.766   8.960  1.00  0.00     0.081 A 
HETATM   13  C   UNL     1     -43.618 -47.708   7.882  1.00  0.00     0.079 C 
ENDBRANCH   5   6
ENDBRANCH   1   5
BRANCH   3  14
HETATM   14  C   UNL     1     -42.312 -51.057  12.781  1.00  0.00     0.152 C 
BRANCH  14  15
HETATM   15  C   UNL     1     -42.743 -52.466  12.308  1.00  0.00     0.292 C 
BRANCH  15  16
HETATM   16  N   UNL     1     -44.132 -52.848  12.682  1.00  0.00     0.090 N 
HETATM   17  C   UNL     1     -44.811 -51.805  13.462  1.00  0.00     0.272 C 
HETATM   18  C   UNL     1     -46.333 -51.961  13.441  1.00  0.00     0.030 C 
HETATM   19  C   UNL     1     -46.905 -52.802  14.575  1.00  0.00     0.002 C 
HETATM   20  C   UNL     1     -46.112 -54.049  14.940  1.00  0.00     0.002 C 
HETATM   21  C   UNL     1     -45.478 -54.756  13.747  1.00  0.00     0.030 C 
HETATM   22  C   UNL     1     -44.118 -54.167  13.341  1.00  0.00     0.272 C 
ENDBRANCH  15  16
ENDBRANCH  14  15
ENDBRANCH   3  14
TORSDOF 5
ENDMDL
MODEL 3
REMARK VINA RESULT:      -5.9      3.628      4.863
REMARK  5 active torsions:
REMARK  status: ('A' for Active; 'I' for Inactive)
REMARK    1  A    between atoms: C_8  and  C_9 
REMARK    2  A    between atoms: C_9  and  C_10 
REMARK       I    between atoms: C_10  and  N_12 
REMARK    3  A    between atoms: N_12  and  C_13 
REMARK    4  A    between atoms: C_13  and  C_14 
REMARK    5  A    between atoms: C_14  and  N_15 
ROOT
HETATM    1  C   UNL     1     -39.935 -53.009  14.068  1.00  0.00     0.222 C 
HETATM    2  O   UNL     1     -39.220 -53.858  13.544  1.00  0.00    -0.273 OA
HETATM    3  N   UNL     1     -41.116 -53.315  14.711  1.00  0.00    -0.359 N 
HETATM    4  H   UNL     1     -41.720 -52.561  15.016  1.00  0.00     0.162 HD
ENDROOT
BRANCH   1   5
HETATM    5  C   UNL     1     -39.569 -51.536  14.060  1.00  0.00     0.146 C 
BRANCH   5   6
HETATM    6  C   UNL     1     -39.780 -50.829  12.761  1.00  0.00     0.006 A 
HETATM    7  C   UNL     1     -38.857 -50.357  11.776  1.00  0.00     0.038 A 
HETATM    8  C   UNL     1     -37.377 -50.448  11.730  1.00  0.00     0.071 C 
HETATM    9  N   UNL     1     -39.491 -49.743  10.770  1.00  0.00    -0.265 N 
HETATM   10  O   UNL     1     -40.829 -49.769  11.085  1.00  0.00    -0.242 OA
ATOM     11  HN  UNL     1     -39.067 -49.336   9.936  1.00  0.00     0.194 HD
HETATM   12  C   UNL     1     -41.002 -50.408  12.266  1.00  0.00     0.081 A 
HETATM   13  C   UNL     1     -42.392 -50.494  12.756  1.00  0.00     0.079 C 
ENDBRANCH   5   6
ENDBRANCH   1   5
BRANCH   3  14
HETATM   14  C   UNL     1     -41.650 -54.670  14.725  1.00  0.00     0.152 C 
BRANCH  14  15
HETATM   15  C   UNL     1     -43.187 -54.741  14.893  1.00  0.00     0.292 C 
BRANCH  15  16
HETATM   16  N   UNL     1     -43.917 -53.531  14.429  1.00  0.00     0.090 N 
HETATM   17  C   UNL     1     -44.809 -52.982  15.459  1.00  0.00     0.272 C 
HETATM   18  C   UNL     1     -45.184 -51.524  15.185  1.00  0.00     0.030 C 
HETATM   19  C   UNL     1     -46.455 -51.333  14.369  1.00  0.00     0.002 C 
HETATM   20  C   UNL     1     -46.648 -52.300  13.208  1.00  0.00     0.002 C 
HETATM   21  C   UNL     1     -45.359 -52.673  12.486  1.00  0.00     0.030 C 
HETATM   22  C   UNL     1     -44.597 -53.828  13.154  1.00  0.00     0.272 C 
ENDBRANCH  15  16
ENDBRANCH  14  15
ENDBRANCH   3  14
TORSDOF 5
ENDMDL
MODEL 4
REMARK VINA RESULT:      -5.7      3.290      7.530
REMARK  5 active torsions:
REMARK  status: ('A' for Active; 'I' for Inactive)
REMARK    1  A    between atoms: C_8  and  C_9 
REMARK    2  A    between atoms: C_9  and  C_10 
REMARK       I    between atoms: C_10  and  N_12 
REMARK    3  A    between atoms: N_12  and  C_13 
REMARK    4  A    between atoms: C_13  and  C_14 
REMARK    5  A    between atoms: C_14  and  N_15 
ROOT
HETATM    1  C   UNL     1     -42.697 -51.586  13.033  1.00  0.00     0.222 C 
HETATM    2  O   UNL     1     -42.363 -51.417  14.202  1.00  0.00    -0.273 OA
HETATM    3  N   UNL     1     -42.655 -50.584  12.088  1.00  0.00    -0.359 N 
HETATM    4  H   UNL     1     -43.058 -50.752  11.173  1.00  0.00     0.162 HD
ENDROOT
BRANCH   1   5
HETATM    5  C   UNL     1     -43.181 -52.932  12.524  1.00  0.00     0.146 C 
BRANCH   5   6
HETATM    6  C   UNL     1     -44.358 -53.505  13.243  1.00  0.00     0.006 A 
HETATM    7  C   UNL     1     -45.752 -53.200  13.175  1.00  0.00     0.038 A 
HETATM    8  C   UNL     1     -46.477 -52.215  12.334  1.00  0.00     0.071 C 
HETATM    9  N   UNL     1     -46.457 -53.949  14.031  1.00  0.00    -0.265 N 
HETATM   10  O   UNL     1     -45.545 -54.733  14.697  1.00  0.00    -0.242 OA
ATOM     11  HN  UNL     1     -47.469 -53.941  14.164  1.00  0.00     0.194 HD
HETATM   12  C   UNL     1     -44.300 -54.469  14.235  1.00  0.00     0.081 A 
HETATM   13  C   UNL     1     -43.201 -55.217  14.877  1.00  0.00     0.079 C 
ENDBRANCH   5   6
ENDBRANCH   1   5
BRANCH   3  14
HETATM   14  C   UNL     1     -42.301 -49.215  12.440  1.00  0.00     0.152 C 
BRANCH  14  15
HETATM   15  C   UNL     1     -41.150 -48.623  11.592  1.00  0.00     0.292 C 
BRANCH  15  16
HETATM   16  N   UNL     1     -39.785 -48.927  12.101  1.00  0.00     0.090 N 
HETATM   17  C   UNL     1     -39.194 -50.106  11.455  1.00  0.00     0.272 C 
HETATM   18  C   UNL     1     -37.672 -50.147  11.603  1.00  0.00     0.030 C 
HETATM   19  C   UNL     1     -37.168 -50.902  12.827  1.00  0.00     0.002 C 
HETATM   20  C   UNL     1     -37.957 -50.683  14.111  1.00  0.00     0.002 C 
HETATM   21  C   UNL     1     -38.481 -49.262  14.286  1.00  0.00     0.030 C 
HETATM   22  C   UNL     1     -39.819 -49.012  13.573  1.00  0.00     0.272 C 
ENDBRANCH  15  16
ENDBRANCH  14  15
ENDBRANCH   3  14
TORSDOF 5
ENDMDL
MODEL 5
REMARK VINA RESULT:      -5.6      2.639      8.039
REMARK  5 active torsions:
REMARK  status: ('A' for Active; 'I' for Inactive)
REMARK    1  A    between atoms: C_8  and  C_9 
REMARK    2  A    between atoms: C_9  and  C_10 
REMARK       I    between atoms: C_10  and  N_12 
REMARK    3  A    between atoms: N_12  and  C_13 
REMARK    4  A    between atoms: C_13  and  C_14 
REMARK    5  A    between atoms: C_14  and  N_15 
ROOT
HETATM    1  C   UNL     1     -42.825 -51.362  12.944  1.00  0.00     0.222 C 
HETATM    2  O   UNL     1     -43.087 -50.901  14.051  1.00  0.00    -0.273 OA
HETATM    3  N   UNL     1     -42.310 -50.600  11.916  1.00  0.00    -0.359 N 
HETATM    4  H   UNL     1     -42.229 -51.010  10.992  1.00  0.00     0.162 HD
ENDROOT
BRANCH   1   5
HETATM    5  C   UNL     1     -43.039 -52.828  12.615  1.00  0.00     0.146 C 
BRANCH   5   6
HETATM    6  C   UNL     1     -44.207 -53.473  13.287  1.00  0.00     0.006 A 
HETATM    7  C   UNL     1     -45.613 -53.248  13.169  1.00  0.00     0.038 A 
HETATM    8  C   UNL     1     -46.362 -52.301  12.306  1.00  0.00     0.071 C 
HETATM    9  N   UNL     1     -46.305 -54.042  13.995  1.00  0.00    -0.265 N 
HETATM   10  O   UNL     1     -45.374 -54.777  14.690  1.00  0.00    -0.242 OA
ATOM     11  HN  UNL     1     -47.319 -54.093  14.090  1.00  0.00     0.194 HD
HETATM   12  C   UNL     1     -44.130 -54.438  14.276  1.00  0.00     0.081 A 
HETATM   13  C   UNL     1     -43.014 -55.126  14.954  1.00  0.00     0.079 C 
ENDBRANCH   5   6
ENDBRANCH   1   5
BRANCH   3  14
HETATM   14  C   UNL     1     -42.133 -49.160  12.046  1.00  0.00     0.152 C 
BRANCH  14  15
HETATM   15  C   UNL     1     -41.000 -48.581  11.165  1.00  0.00     0.292 C 
BRANCH  15  16
HETATM   16  N   UNL     1     -41.115 -47.125  10.884  1.00  0.00     0.090 N 
HETATM   17  C   UNL     1     -39.832 -46.422  11.022  1.00  0.00     0.272 C 
HETATM   18  C   UNL     1     -39.828 -45.075  10.296  1.00  0.00     0.030 C 
HETATM   19  C   UNL     1     -40.260 -43.888  11.147  1.00  0.00     0.002 C 
HETATM   20  C   UNL     1     -41.436 -44.137  12.081  1.00  0.00     0.002 C 
HETATM   21  C   UNL     1     -42.505 -45.059  11.507  1.00  0.00     0.030 C 
HETATM   22  C   UNL     1     -42.197 -46.551  11.706  1.00  0.00     0.272 C 
ENDBRANCH  15  16
ENDBRANCH  14  15
ENDBRANCH   3  14
TORSDOF 5
ENDMDL
MODEL 6
REMARK VINA RESULT:      -5.5      4.466      7.523
REMARK  5 active torsions:
REMARK  status: ('A' for Active; 'I' for Inactive)
REMARK    1  A    between atoms: C_8  and  C_9 
REMARK    2  A    between atoms: C_9  and  C_10 
REMARK       I    between atoms: C_10  and  N_12 
REMARK    3  A    between atoms: N_12  and  C_13 
REMARK    4  A    between atoms: C_13  and  C_14 
REMARK    5  A    between atoms: C_14  and  N_15 
ROOT
HETATM    1  C   UNL     1     -43.930 -54.659  14.066  1.00  0.00     0.222 C 
HETATM    2  O   UNL     1     -43.554 -55.418  14.953  1.00  0.00    -0.273 OA
HETATM    3  N   UNL     1     -43.060 -53.950  13.264  1.00  0.00    -0.359 N 
HETATM    4  H   UNL     1     -43.431 -53.249  12.633  1.00  0.00     0.162 HD
ENDROOT
BRANCH   1   5
HETATM    5  C   UNL     1     -45.402 -54.441  13.767  1.00  0.00     0.146 C 
BRANCH   5   6
HETATM    6  C   UNL     1     -45.992 -53.187  14.325  1.00  0.00     0.006 A 
HETATM    7  C   UNL     1     -46.234 -52.767  15.669  1.00  0.00     0.038 A 
HETATM    8  C   UNL     1     -45.946 -53.454  16.953  1.00  0.00     0.071 C 
HETATM    9  N   UNL     1     -46.818 -51.563  15.706  1.00  0.00    -0.265 N 
HETATM   10  O   UNL     1     -46.999 -51.184  14.398  1.00  0.00    -0.242 OA
ATOM     11  HN  UNL     1     -47.077 -51.033  16.539  1.00  0.00     0.194 HD
HETATM   12  C   UNL     1     -46.515 -52.145  13.577  1.00  0.00     0.081 A 
HETATM   13  C   UNL     1     -46.663 -51.894  12.130  1.00  0.00     0.079 C 
ENDBRANCH   5   6
ENDBRANCH   1   5
BRANCH   3  14
HETATM   14  C   UNL     1     -41.620 -53.981  13.485  1.00  0.00     0.152 C 
BRANCH  14  15
HETATM   15  C   UNL     1     -41.128 -52.997  14.574  1.00  0.00     0.292 C 
BRANCH  15  16
HETATM   16  N   UNL     1     -40.293 -51.876  14.064  1.00  0.00     0.090 N 
HETATM   17  C   UNL     1     -40.292 -51.797  12.596  1.00  0.00     0.272 C 
HETATM   18  C   UNL     1     -39.857 -50.421  12.089  1.00  0.00     0.030 C 
HETATM   19  C   UNL     1     -38.363 -50.280  11.827  1.00  0.00     0.002 C 
HETATM   20  C   UNL     1     -37.446 -50.932  12.852  1.00  0.00     0.002 C 
HETATM   21  C   UNL     1     -37.953 -50.845  14.287  1.00  0.00     0.030 C 
HETATM   22  C   UNL     1     -38.944 -51.961  14.654  1.00  0.00     0.272 C 
ENDBRANCH  15  16
ENDBRANCH  14  15
ENDBRANCH   3  14
TORSDOF 5
ENDMDL
MODEL 7
REMARK VINA RESULT:      -5.5      3.961      7.353
REMARK  5 active torsions:
REMARK  status: ('A' for Active; 'I' for Inactive)
REMARK    1  A    between atoms: C_8  and  C_9 
REMARK    2  A    between atoms: C_9  and  C_10 
REMARK       I    between atoms: C_10  and  N_12 
REMARK    3  A    between atoms: N_12  and  C_13 
REMARK    4  A    between atoms: C_13  and  C_14 
REMARK    5  A    between atoms: C_14  and  N_15 
ROOT
HETATM    1  C   UNL     1     -43.126 -53.500  12.825  1.00  0.00     0.222 C 
HETATM    2  O   UNL     1     -42.361 -54.050  13.612  1.00  0.00    -0.273 OA
HETATM    3  N   UNL     1     -42.700 -52.610  11.862  1.00  0.00    -0.359 N 
HETATM    4  H   UNL     1     -43.390 -52.098  11.324  1.00  0.00     0.162 HD
ENDROOT
BRANCH   1   5
HETATM    5  C   UNL     1     -44.620 -53.765  12.842  1.00  0.00     0.146 C 
BRANCH   5   6
HETATM    6  C   UNL     1     -45.439 -52.777  13.605  1.00  0.00     0.006 A 
HETATM    7  C   UNL     1     -45.510 -52.479  15.001  1.00  0.00     0.038 A 
HETATM    8  C   UNL     1     -44.757 -53.057  16.142  1.00  0.00     0.071 C 
HETATM    9  N   UNL     1     -46.418 -51.528  15.251  1.00  0.00    -0.265 N 
HETATM   10  O   UNL     1     -46.981 -51.207  14.039  1.00  0.00    -0.242 OA
ATOM     11  HN  UNL     1     -46.647 -51.123  16.159  1.00  0.00     0.194 HD
HETATM   12  C   UNL     1     -46.406 -51.948  13.063  1.00  0.00     0.081 A 
HETATM   13  C   UNL     1     -46.928 -51.735  11.699  1.00  0.00     0.079 C 
ENDBRANCH   5   6
ENDBRANCH   1   5
BRANCH   3  14
HETATM   14  C   UNL     1     -41.310 -52.182  11.777  1.00  0.00     0.152 C 
BRANCH  14  15
HETATM   15  C   UNL     1     -41.115 -50.650  11.872  1.00  0.00     0.292 C 
BRANCH  15  16
HETATM   16  N   UNL     1     -39.771 -50.224  12.350  1.00  0.00     0.090 N 
HETATM   17  C   UNL     1     -39.132 -51.235  13.204  1.00  0.00     0.272 C 
HETATM   18  C   UNL     1     -37.619 -51.037  13.303  1.00  0.00     0.030 C 
HETATM   19  C   UNL     1     -37.162 -50.162  14.463  1.00  0.00     0.002 C 
HETATM   20  C   UNL     1     -38.014 -48.930  14.737  1.00  0.00     0.002 C 
HETATM   21  C   UNL     1     -38.567 -48.262  13.483  1.00  0.00     0.030 C 
HETATM   22  C   UNL     1     -39.873 -48.894  12.980  1.00  0.00     0.272 C 
ENDBRANCH  15  16
ENDBRANCH  14  15
ENDBRANCH   3  14
TORSDOF 5
ENDMDL
MODEL 8
REMARK VINA RESULT:      -5.5      2.921      8.108
REMARK  5 active torsions:
REMARK  status: ('A' for Active; 'I' for Inactive)
REMARK    1  A    between atoms: C_8  and  C_9 
REMARK    2  A    between atoms: C_9  and  C_10 
REMARK       I    between atoms: C_10  and  N_12 
REMARK    3  A    between atoms: N_12  and  C_13 
REMARK    4  A    between atoms: C_13  and  C_14 
REMARK    5  A    between atoms: C_14  and  N_15 
ROOT
HETATM    1  C   UNL     1     -40.566 -51.674  12.342  1.00  0.00     0.222 C 
HETATM    2  O   UNL     1     -40.201 -51.249  13.434  1.00  0.00    -0.273 OA
HETATM    3  N   UNL     1     -40.677 -50.874  11.225  1.00  0.00    -0.359 N 
HETATM    4  H   UNL     1     -41.099 -51.256  10.385  1.00  0.00     0.162 HD
ENDROOT
BRANCH   1   5
HETATM    5  C   UNL     1     -40.919 -53.134  12.127  1.00  0.00     0.146 C 
BRANCH   5   6
HETATM    6  C   UNL     1     -41.773 -53.752  13.186  1.00  0.00     0.006 A 
HETATM    7  C   UNL     1     -43.192 -53.846  13.325  1.00  0.00     0.038 A 
HETATM    8  C   UNL     1     -44.276 -53.371  12.429  1.00  0.00     0.071 C 
HETATM    9  N   UNL     1     -43.530 -54.464  14.463  1.00  0.00    -0.265 N 
HETATM   10  O   UNL     1     -42.351 -54.758  15.105  1.00  0.00    -0.242 OA
ATOM     11  HN  UNL     1     -44.473 -54.676  14.789  1.00  0.00     0.194 HD
HETATM   12  C   UNL     1     -41.308 -54.333  14.353  1.00  0.00     0.081 A 
HETATM   13  C   UNL     1     -39.966 -54.553  14.926  1.00  0.00     0.079 C 
ENDBRANCH   5   6
ENDBRANCH   1   5
BRANCH   3  14
HETATM   14  C   UNL     1     -40.462 -49.435  11.290  1.00  0.00     0.152 C 
BRANCH  14  15
HETATM   15  C   UNL     1     -41.743 -48.595  11.067  1.00  0.00     0.292 C 
BRANCH  15  16
HETATM   16  N   UNL     1     -41.496 -47.177  10.689  1.00  0.00     0.090 N 
HETATM   17  C   UNL     1     -40.195 -46.686  11.163  1.00  0.00     0.272 C 
HETATM   18  C   UNL     1     -39.731 -45.444  10.401  1.00  0.00     0.030 C 
HETATM   19  C   UNL     1     -40.152 -44.118  11.022  1.00  0.00     0.002 C 
HETATM   20  C   UNL     1     -41.569 -44.068  11.578  1.00  0.00     0.002 C 
HETATM   21  C   UNL     1     -42.587 -44.855  10.762  1.00  0.00     0.030 C 
HETATM   22  C   UNL     1     -42.637 -46.348  11.122  1.00  0.00     0.272 C 
ENDBRANCH  15  16
ENDBRANCH  14  15
ENDBRANCH   3  14
TORSDOF 5
ENDMDL
MODEL 9
REMARK VINA RESULT:      -5.4      3.989      7.378
REMARK  5 active torsions:
REMARK  status: ('A' for Active; 'I' for Inactive)
REMARK    1  A    between atoms: C_8  and  C_9 
REMARK    2  A    between atoms: C_9  and  C_10 
REMARK       I    between atoms: C_10  and  N_12 
REMARK    3  A    between atoms: N_12  and  C_13 
REMARK    4  A    between atoms: C_13  and  C_14 
REMARK    5  A    between atoms: C_14  and  N_15 
ROOT
HETATM    1  C   UNL     1     -44.379 -51.134  13.477  1.00  0.00     0.222 C 
HETATM    2  O   UNL     1     -44.055 -50.118  14.084  1.00  0.00    -0.273 OA
HETATM    3  N   UNL     1     -43.522 -51.812  12.636  1.00  0.00    -0.359 N 
HETATM    4  H   UNL     1     -43.884 -52.571  12.071  1.00  0.00     0.162 HD
ENDROOT
BRANCH   1   5
HETATM    5  C   UNL     1     -45.764 -51.741  13.611  1.00  0.00     0.146 C 
BRANCH   5   6
HETATM    6  C   UNL     1     -45.960 -52.638  14.789  1.00  0.00     0.006 A 
HETATM    7  C   UNL     1     -46.306 -52.359  16.147  1.00  0.00     0.038 A 
HETATM    8  C   UNL     1     -46.606 -51.067  16.813  1.00  0.00     0.071 C 
HETATM    9  N   UNL     1     -46.343 -53.479  16.880  1.00  0.00    -0.265 N 
HETATM   10  O   UNL     1     -45.994 -54.504  16.034  1.00  0.00    -0.242 OA
ATOM     11  HN  UNL     1     -46.582 -53.556  17.869  1.00  0.00     0.194 HD
HETATM   12  C   UNL     1     -45.762 -54.008  14.795  1.00  0.00     0.081 A 
HETATM   13  C   UNL     1     -45.347 -54.990  13.774  1.00  0.00     0.079 C 
ENDBRANCH   5   6
ENDBRANCH   1   5
BRANCH   3  14
HETATM   14  C   UNL     1     -42.190 -51.305  12.332  1.00  0.00     0.152 C 
BRANCH  14  15
HETATM   15  C   UNL     1     -41.188 -52.396  11.881  1.00  0.00     0.292 C 
BRANCH  15  16
HETATM   16  N   UNL     1     -40.177 -52.770  12.905  1.00  0.00     0.090 N 
HETATM   17  C   UNL     1     -40.450 -54.080  13.514  1.00  0.00     0.272 C 
HETATM   18  C   UNL     1     -39.213 -54.677  14.186  1.00  0.00     0.030 C 
HETATM   19  C   UNL     1     -39.055 -54.328  15.661  1.00  0.00     0.002 C 
HETATM   20  C   UNL     1     -39.393 -52.893  16.041  1.00  0.00     0.002 C 
HETATM   21  C   UNL     1     -38.994 -51.860  14.994  1.00  0.00     0.030 C 
HETATM   22  C   UNL     1     -40.044 -51.677  13.886  1.00  0.00     0.272 C 
ENDBRANCH  15  16
ENDBRANCH  14  15
ENDBRANCH   3  14
TORSDOF 5
ENDMDL
