MODEL 1
REMARK VINA RESULT:      -6.2      0.000      0.000
REMARK  5 active torsions:
REMARK  status: ('A' for Active; 'I' for Inactive)
REMARK    1  A    between atoms: C_2  and  C_3 
REMARK    2  A    between atoms: C_2  and  N_16 
REMARK       I    between atoms: C_3  and  N_5 
REMARK    3  A    between atoms: N_5  and  C_6 
REMARK    4  A    between atoms: C_6  and  C_7 
REMARK    5  A    between atoms: C_7  and  N_8 
ROOT
HETATM    1  C   UNL     1     -42.350 -48.413  11.494  1.00  0.00     0.242 C 
HETATM    2  O   UNL     1     -42.757 -47.847  12.508  1.00  0.00    -0.271 OA
HETATM    3  N   UNL     1     -41.875 -49.712  11.522  1.00  0.00    -0.358 N 
HETATM    4  H   UNL     1     -41.823 -50.217  10.637  1.00  0.00     0.162 HD
ENDROOT
BRANCH   3   5
HETATM    5  C   UNL     1     -41.980 -50.442  12.772  1.00  0.00     0.152 C 
BRANCH   5   6
HETATM    6  C   UNL     1     -43.188 -51.386  12.884  1.00  0.00     0.292 C 
BRANCH   6   7
HETATM    7  N   UNL     1     -42.930 -52.726  12.313  1.00  0.00     0.095 N 
HETATM    8  C   UNL     1     -44.116 -53.610  12.415  1.00  0.00     0.303 C 
HETATM    9  C   UNL     1     -44.400 -54.133  13.848  1.00  0.00     0.146 C 
HETATM   10  C   UNL     1     -45.495 -55.191  13.824  1.00  0.00     0.041 C 
HETATM   11  O   UNL     1     -43.234 -54.730  14.448  1.00  0.00    -0.378 OA
HETATM   12  C   UNL     1     -42.116 -53.827  14.417  1.00  0.00     0.146 C 
HETATM   13  C   UNL     1     -40.919 -54.499  15.075  1.00  0.00     0.041 C 
HETATM   14  C   UNL     1     -41.805 -53.445  12.958  1.00  0.00     0.303 C 
ENDBRANCH   6   7
ENDBRANCH   5   6
ENDBRANCH   3   5
BRANCH   1  15
HETATM   15  C   UNL     1     -42.281 -47.693  10.152  1.00  0.00     0.196 C 
HETATM   16  C   UNL     1     -41.684 -46.292  10.324  1.00  0.00     0.044 C 
BRANCH  15  17
HETATM   17  N   UNL     1     -43.582 -47.681   9.507  1.00  0.00    -0.273 N 
HETATM   18  C   UNL     1     -43.891 -47.768   8.184  1.00  0.00     0.202 A 
HETATM   19  N   UNL     1     -45.195 -47.803   8.036  1.00  0.00    -0.346 N 
HETATM   20  C   UNL     1     -45.653 -47.717   9.318  1.00  0.00     0.198 A 
ATOM     21  HN  UNL     1     -45.733 -47.876   7.173  1.00  0.00     0.167 HD
HETATM   22  N   UNL     1     -44.706 -47.602  10.254  1.00  0.00    -0.292 N 
ATOM     23  HN  UNL     1     -44.805 -47.486  11.262  1.00  0.00     0.188 HD
ENDBRANCH  15  17
ENDBRANCH   1  15
TORSDOF 5
ENDMDL
MODEL 2
REMARK VINA RESULT:      -6.0      1.251      2.410
REMARK  5 active torsions:
REMARK  status: ('A' for Active; 'I' for Inactive)
REMARK    1  A    between atoms: C_2  and  C_3 
REMARK    2  A    between atoms: C_2  and  N_16 
REMARK       I    between atoms: C_3  and  N_5 
REMARK    3  A    between atoms: N_5  and  C_6 
REMARK    4  A    between atoms: C_6  and  C_7 
REMARK    5  A    between atoms: C_7  and  N_8 
ROOT
HETATM    1  C   UNL     1     -41.619 -48.913  11.234  1.00  0.00     0.242 C 
HETATM    2  O   UNL     1     -40.464 -49.075  10.838  1.00  0.00    -0.271 OA
HETATM    3  N   UNL     1     -42.332 -49.928  11.846  1.00  0.00    -0.358 N 
HETATM    4  H   UNL     1     -43.150 -49.668  12.398  1.00  0.00     0.162 HD
ENDROOT
BRANCH   3   5
HETATM    5  C   UNL     1     -41.635 -51.171  12.120  1.00  0.00     0.152 C 
BRANCH   5   6
HETATM    6  C   UNL     1     -42.536 -52.375  12.440  1.00  0.00     0.292 C 
BRANCH   6   7
HETATM    7  N   UNL     1     -43.092 -52.334  13.811  1.00  0.00     0.095 N 
HETATM    8  C   UNL     1     -42.170 -52.939  14.801  1.00  0.00     0.303 C 
HETATM    9  C   UNL     1     -42.094 -54.488  14.739  1.00  0.00     0.146 C 
HETATM   10  C   UNL     1     -41.297 -55.033  15.917  1.00  0.00     0.041 C 
HETATM   11  O   UNL     1     -43.400 -55.097  14.781  1.00  0.00    -0.378 OA
HETATM   12  C   UNL     1     -44.255 -54.559  13.757  1.00  0.00     0.146 C 
HETATM   13  C   UNL     1     -45.611 -55.245  13.836  1.00  0.00     0.041 C 
HETATM   14  C   UNL     1     -44.390 -53.037  13.950  1.00  0.00     0.303 C 
ENDBRANCH   6   7
ENDBRANCH   5   6
ENDBRANCH   3   5
BRANCH   1  15
HETATM   15  C   UNL     1     -42.360 -47.599  11.015  1.00  0.00     0.196 C 
HETATM   16  C   UNL     1     -43.166 -47.222  12.263  1.00  0.00     0.044 C 
BRANCH  15  17
HETATM   17  N   UNL     1     -43.171 -47.660   9.812  1.00  0.00    -0.273 N 
HETATM   18  C   UNL     1     -44.459 -47.267   9.618  1.00  0.00     0.202 A 
HETATM   19  N   UNL     1     -44.783 -47.423   8.355  1.00  0.00    -0.346 N 
HETATM   20  C   UNL     1     -43.646 -47.938   7.806  1.00  0.00     0.198 A 
ATOM     21  HN  UNL     1     -45.669 -47.209   7.897  1.00  0.00     0.167 HD
HETATM   22  N   UNL     1     -42.641 -48.139   8.663  1.00  0.00    -0.292 N 
ATOM     23  HN  UNL     1     -41.721 -48.546   8.496  1.00  0.00     0.188 HD
ENDBRANCH  15  17
ENDBRANCH   1  15
TORSDOF 5
ENDMDL
MODEL 3
REMARK VINA RESULT:      -5.9      1.931      2.604
REMARK  5 active torsions:
REMARK  status: ('A' for Active; 'I' for Inactive)
REMARK    1  A    between atoms: C_2  and  C_3 
REMARK    2  A    between atoms: C_2  and  N_16 
REMARK       I    between atoms: C_3  and  N_5 
REMARK    3  A    between atoms: N_5  and  C_6 
REMARK    4  A    between atoms: C_6  and  C_7 
REMARK    5  A    between atoms: C_7  and  N_8 
ROOT
HETATM    1  C   UNL     1     -42.673 -48.149  11.902  1.00  0.00     0.242 C 
HETATM    2  O   UNL     1     -43.036 -47.300  12.716  1.00  0.00    -0.271 OA
HETATM    3  N   UNL     1     -42.784 -49.504  12.160  1.00  0.00    -0.358 N 
HETATM    4  H   UNL     1     -42.740 -50.143  11.366  1.00  0.00     0.162 HD
ENDROOT
BRANCH   3   5
HETATM    5  C   UNL     1     -43.457 -49.905  13.381  1.00  0.00     0.152 C 
BRANCH   5   6
HETATM    6  C   UNL     1     -43.811 -51.398  13.479  1.00  0.00     0.292 C 
BRANCH   6   7
HETATM    7  N   UNL     1     -45.197 -51.693  13.051  1.00  0.00     0.095 N 
HETATM    8  C   UNL     1     -46.194 -51.239  14.048  1.00  0.00     0.303 C 
HETATM    9  C   UNL     1     -46.264 -52.117  15.326  1.00  0.00     0.146 C 
HETATM   10  C   UNL     1     -47.449 -51.708  16.192  1.00  0.00     0.041 C 
HETATM   11  O   UNL     1     -46.417 -53.515  15.015  1.00  0.00    -0.378 OA
HETATM   12  C   UNL     1     -45.390 -53.961  14.112  1.00  0.00     0.146 C 
HETATM   13  C   UNL     1     -45.589 -55.443  13.830  1.00  0.00     0.041 C 
HETATM   14  C   UNL     1     -45.455 -53.134  12.814  1.00  0.00     0.303 C 
ENDBRANCH   6   7
ENDBRANCH   5   6
ENDBRANCH   3   5
BRANCH   1  15
HETATM   15  C   UNL     1     -42.014 -47.761  10.583  1.00  0.00     0.196 C 
HETATM   16  C   UNL     1     -41.291 -46.417  10.720  1.00  0.00     0.044 C 
BRANCH  15  17
HETATM   17  N   UNL     1     -42.981 -47.778   9.500  1.00  0.00    -0.273 N 
HETATM   18  C   UNL     1     -44.293 -47.415   9.507  1.00  0.00     0.202 A 
HETATM   19  N   UNL     1     -44.783 -47.508   8.293  1.00  0.00    -0.346 N 
HETATM   20  C   UNL     1     -43.721 -47.956   7.564  1.00  0.00     0.198 A 
ATOM     21  HN  UNL     1     -45.729 -47.296   7.973  1.00  0.00     0.167 HD
HETATM   22  N   UNL     1     -42.604 -48.174   8.263  1.00  0.00    -0.292 N 
ATOM     23  HN  UNL     1     -41.705 -48.541   7.948  1.00  0.00     0.188 HD
ENDBRANCH  15  17
ENDBRANCH   1  15
TORSDOF 5
ENDMDL
MODEL 4
REMARK VINA RESULT:      -5.9      1.325      2.196
REMARK  5 active torsions:
REMARK  status: ('A' for Active; 'I' for Inactive)
REMARK    1  A    between atoms: C_2  and  C_3 
REMARK    2  A    between atoms: C_2  and  N_16 
REMARK       I    between atoms: C_3  and  N_5 
REMARK    3  A    between atoms: N_5  and  C_6 
REMARK    4  A    between atoms: C_6  and  C_7 
REMARK    5  A    between atoms: C_7  and  N_8 
ROOT
HETATM    1  C   UNL     1     -41.954 -48.235  11.153  1.00  0.00     0.242 C 
HETATM    2  O   UNL     1     -42.308 -47.922  12.290  1.00  0.00    -0.271 OA
HETATM    3  N   UNL     1     -41.245 -49.396  10.901  1.00  0.00    -0.358 N 
HETATM    4  H   UNL     1     -41.228 -49.743   9.942  1.00  0.00     0.162 HD
ENDROOT
BRANCH   3   5
HETATM    5  C   UNL     1     -41.028 -50.307  12.009  1.00  0.00     0.152 C 
BRANCH   5   6
HETATM    6  C   UNL     1     -42.160 -51.314  12.266  1.00  0.00     0.292 C 
BRANCH   6   7
HETATM    7  N   UNL     1     -42.655 -51.286  13.660  1.00  0.00     0.095 N 
HETATM    8  C   UNL     1     -42.499 -52.598  14.331  1.00  0.00     0.303 C 
HETATM    9  C   UNL     1     -43.506 -53.680  13.859  1.00  0.00     0.146 C 
HETATM   10  C   UNL     1     -43.414 -54.918  14.742  1.00  0.00     0.041 C 
HETATM   11  O   UNL     1     -44.868 -53.211  13.910  1.00  0.00    -0.378 OA
HETATM   12  C   UNL     1     -45.020 -51.981  13.181  1.00  0.00     0.146 C 
HETATM   13  C   UNL     1     -46.475 -51.541  13.254  1.00  0.00     0.041 C 
HETATM   14  C   UNL     1     -44.086 -50.913  13.779  1.00  0.00     0.303 C 
ENDBRANCH   6   7
ENDBRANCH   5   6
ENDBRANCH   3   5
BRANCH   1  15
HETATM   15  C   UNL     1     -42.218 -47.327   9.957  1.00  0.00     0.196 C 
HETATM   16  C   UNL     1     -41.986 -45.860  10.335  1.00  0.00     0.044 C 
BRANCH  15  17
HETATM   17  N   UNL     1     -43.539 -47.570   9.408  1.00  0.00    -0.273 N 
HETATM   18  C   UNL     1     -43.906 -47.835   8.124  1.00  0.00     0.202 A 
HETATM   19  N   UNL     1     -45.196 -48.073   8.073  1.00  0.00    -0.346 N 
HETATM   20  C   UNL     1     -45.589 -47.926   9.371  1.00  0.00     0.198 A 
ATOM     21  HN  UNL     1     -45.765 -48.311   7.261  1.00  0.00     0.167 HD
HETATM   22  N   UNL     1     -44.619 -47.580  10.223  1.00  0.00    -0.292 N 
ATOM     23  HN  UNL     1     -44.677 -47.378  11.221  1.00  0.00     0.188 HD
ENDBRANCH  15  17
ENDBRANCH   1  15
TORSDOF 5
ENDMDL
MODEL 5
REMARK VINA RESULT:      -5.8      2.290      2.976
REMARK  5 active torsions:
REMARK  status: ('A' for Active; 'I' for Inactive)
REMARK    1  A    between atoms: C_2  and  C_3 
REMARK    2  A    between atoms: C_2  and  N_16 
REMARK       I    between atoms: C_3  and  N_5 
REMARK    3  A    between atoms: N_5  and  C_6 
REMARK    4  A    between atoms: C_6  and  C_7 
REMARK    5  A    between atoms: C_7  and  N_8 
ROOT
HETATM    1  C   UNL     1     -42.910 -48.000  11.545  1.00  0.00     0.242 C 
HETATM    2  O   UNL     1     -43.103 -47.314  12.549  1.00  0.00    -0.271 OA
HETATM    3  N   UNL     1     -42.775 -49.375  11.614  1.00  0.00    -0.358 N 
HETATM    4  H   UNL     1     -42.902 -49.909  10.754  1.00  0.00     0.162 HD
ENDROOT
BRANCH   3   5
HETATM    5  C   UNL     1     -42.989 -50.010  12.902  1.00  0.00     0.152 C 
BRANCH   5   6
HETATM    6  C   UNL     1     -41.791 -50.800  13.454  1.00  0.00     0.292 C 
BRANCH   6   7
HETATM    7  N   UNL     1     -41.032 -51.511  12.401  1.00  0.00     0.095 N 
HETATM    8  C   UNL     1     -40.807 -52.935  12.745  1.00  0.00     0.303 C 
HETATM    9  C   UNL     1     -39.742 -53.164  13.850  1.00  0.00     0.146 C 
HETATM   10  C   UNL     1     -39.424 -54.648  13.987  1.00  0.00     0.041 C 
HETATM   11  O   UNL     1     -38.506 -52.482  13.560  1.00  0.00    -0.378 OA
HETATM   12  C   UNL     1     -38.732 -51.084  13.314  1.00  0.00     0.146 C 
HETATM   13  C   UNL     1     -37.397 -50.410  13.030  1.00  0.00     0.041 C 
HETATM   14  C   UNL     1     -39.699 -50.922  12.126  1.00  0.00     0.303 C 
ENDBRANCH   6   7
ENDBRANCH   5   6
ENDBRANCH   3   5
BRANCH   1  15
HETATM   15  C   UNL     1     -42.739 -47.370  10.168  1.00  0.00     0.196 C 
HETATM   16  C   UNL     1     -42.297 -45.908  10.298  1.00  0.00     0.044 C 
BRANCH  15  17
HETATM   17  N   UNL     1     -43.944 -47.531   9.375  1.00  0.00    -0.273 N 
HETATM   18  C   UNL     1     -44.079 -47.924   8.079  1.00  0.00     0.202 A 
HETATM   19  N   UNL     1     -45.353 -48.016   7.776  1.00  0.00    -0.346 N 
HETATM   20  C   UNL     1     -45.974 -47.648   8.934  1.00  0.00     0.198 A 
ATOM     21  HN  UNL     1     -45.776 -48.296   6.891  1.00  0.00     0.167 HD
HETATM   22  N   UNL     1     -45.155 -47.304   9.932  1.00  0.00    -0.292 N 
ATOM     23  HN  UNL     1     -45.383 -46.961  10.866  1.00  0.00     0.188 HD
ENDBRANCH  15  17
ENDBRANCH   1  15
TORSDOF 5
ENDMDL
MODEL 6
REMARK VINA RESULT:      -5.8      2.060      3.218
REMARK  5 active torsions:
REMARK  status: ('A' for Active; 'I' for Inactive)
REMARK    1  A    between atoms: C_2  and  C_3 
REMARK    2  A    between atoms: C_2  and  N_16 
REMARK       I    between atoms: C_3  and  N_5 
REMARK    3  A    between atoms: N_5  and  C_6 
REMARK    4  A    between atoms: C_6  and  C_7 
REMARK    5  A    between atoms: C_7  and  N_8 
ROOT
HETATM    1  C   UNL     1     -40.157 -50.757  12.066  1.00  0.00     0.242 C 
HETATM    2  O   UNL     1     -39.619 -50.864  13.169  1.00  0.00    -0.271 OA
HETATM    3  N   UNL     1     -40.833 -51.810  11.477  1.00  0.00    -0.358 N 
HETATM    4  H   UNL     1     -41.485 -51.593  10.723  1.00  0.00     0.162 HD
ENDROOT
BRANCH   3   5
HETATM    5  C   UNL     1     -40.998 -53.025  12.254  1.00  0.00     0.152 C 
BRANCH   5   6
HETATM    6  C   UNL     1     -42.117 -52.987  13.307  1.00  0.00     0.292 C 
BRANCH   6   7
HETATM    7  N   UNL     1     -43.433 -52.614  12.741  1.00  0.00     0.095 N 
HETATM    8  C   UNL     1     -44.115 -51.583  13.557  1.00  0.00     0.303 C 
HETATM    9  C   UNL     1     -44.695 -52.111  14.897  1.00  0.00     0.146 C 
HETATM   10  C   UNL     1     -45.555 -51.044  15.564  1.00  0.00     0.041 C 
HETATM   11  O   UNL     1     -45.521 -53.276  14.707  1.00  0.00    -0.378 OA
HETATM   12  C   UNL     1     -44.814 -54.301  13.988  1.00  0.00     0.146 C 
HETATM   13  C   UNL     1     -45.723 -55.511  13.829  1.00  0.00     0.041 C 
HETATM   14  C   UNL     1     -44.374 -53.754  12.617  1.00  0.00     0.303 C 
ENDBRANCH   6   7
ENDBRANCH   5   6
ENDBRANCH   3   5
BRANCH   1  15
HETATM   15  C   UNL     1     -40.053 -49.474  11.249  1.00  0.00     0.196 C 
HETATM   16  C   UNL     1     -39.083 -48.491  11.914  1.00  0.00     0.044 C 
BRANCH  15  17
HETATM   17  N   UNL     1     -41.367 -48.905  11.014  1.00  0.00    -0.273 N 
HETATM   18  C   UNL     1     -42.425 -48.794  11.864  1.00  0.00     0.202 A 
HETATM   19  N   UNL     1     -43.398 -48.140  11.274  1.00  0.00    -0.346 N 
HETATM   20  C   UNL     1     -42.889 -47.878  10.036  1.00  0.00     0.198 A 
ATOM     21  HN  UNL     1     -44.312 -47.888  11.651  1.00  0.00     0.167 HD
HETATM   22  N   UNL     1     -41.663 -48.359   9.813  1.00  0.00    -0.292 N 
ATOM     23  HN  UNL     1     -41.100 -48.323   8.963  1.00  0.00     0.188 HD
ENDBRANCH  15  17
ENDBRANCH   1  15
TORSDOF 5
ENDMDL
MODEL 7
REMARK VINA RESULT:      -5.8      1.815      3.062
REMARK  5 active torsions:
REMARK  status: ('A' for Active; 'I' for Inactive)
REMARK    1  A    between atoms: C_2  and  C_3 
REMARK    2  A    between atoms: C_2  and  N_16 
REMARK       I    between atoms: C_3  and  N_5 
REMARK    3  A    between atoms: N_5  and  C_6 
REMARK    4  A    between atoms: C_6  and  C_7 
REMARK    5  A    between atoms: C_7  and  N_8 
ROOT
HETATM    1  C   UNL     1     -41.401 -50.238  11.886  1.00  0.00     0.242 C 
HETATM    2  O   UNL     1     -42.325 -49.966  12.654  1.00  0.00    -0.271 OA
HETATM    3  N   UNL     1     -41.095 -51.543  11.544  1.00  0.00    -0.358 N 
HETATM    4  H   UNL     1     -40.528 -51.695  10.710  1.00  0.00     0.162 HD
ENDROOT
BRANCH   3   5
HETATM    5  C   UNL     1     -41.976 -52.591  12.026  1.00  0.00     0.152 C 
BRANCH   5   6
HETATM    6  C   UNL     1     -41.487 -53.342  13.275  1.00  0.00     0.292 C 
BRANCH   6   7
HETATM    7  N   UNL     1     -42.282 -53.033  14.484  1.00  0.00     0.095 N 
HETATM    8  C   UNL     1     -41.852 -53.838  15.651  1.00  0.00     0.303 C 
HETATM    9  C   UNL     1     -42.281 -55.329  15.591  1.00  0.00     0.146 C 
HETATM   10  C   UNL     1     -41.986 -56.024  16.914  1.00  0.00     0.041 C 
HETATM   11  O   UNL     1     -43.690 -55.476  15.329  1.00  0.00    -0.378 OA
HETATM   12  C   UNL     1     -44.075 -54.758  14.144  1.00  0.00     0.146 C 
HETATM   13  C   UNL     1     -45.564 -54.960  13.906  1.00  0.00     0.041 C 
HETATM   14  C   UNL     1     -43.737 -53.266  14.317  1.00  0.00     0.303 C 
ENDBRANCH   6   7
ENDBRANCH   5   6
ENDBRANCH   3   5
BRANCH   1  15
HETATM   15  C   UNL     1     -40.492 -49.156  11.316  1.00  0.00     0.196 C 
HETATM   16  C   UNL     1     -39.519 -48.651  12.387  1.00  0.00     0.044 C 
BRANCH  15  17
HETATM   17  N   UNL     1     -41.274 -48.092  10.713  1.00  0.00    -0.273 N 
HETATM   18  C   UNL     1     -41.018 -46.756  10.657  1.00  0.00     0.202 A 
HETATM   19  N   UNL     1     -41.945 -46.158   9.944  1.00  0.00    -0.346 N 
HETATM   20  C   UNL     1     -42.772 -47.183   9.590  1.00  0.00     0.198 A 
ATOM     21  HN  UNL     1     -42.025 -45.168   9.712  1.00  0.00     0.167 HD
HETATM   22  N   UNL     1     -42.427 -48.383  10.067  1.00  0.00    -0.292 N 
ATOM     23  HN  UNL     1     -42.905 -49.279   9.971  1.00  0.00     0.188 HD
ENDBRANCH  15  17
ENDBRANCH   1  15
TORSDOF 5
ENDMDL
MODEL 8
REMARK VINA RESULT:      -5.6      2.274      3.295
REMARK  5 active torsions:
REMARK  status: ('A' for Active; 'I' for Inactive)
REMARK    1  A    between atoms: C_2  and  C_3 
REMARK    2  A    between atoms: C_2  and  N_16 
REMARK       I    between atoms: C_3  and  N_5 
REMARK    3  A    between atoms: N_5  and  C_6 
REMARK    4  A    between atoms: C_6  and  C_7 
REMARK    5  A    between atoms: C_7  and  N_8 
ROOT
HETATM    1  C   UNL     1     -42.785 -48.423  11.733  1.00  0.00     0.242 C 
HETATM    2  O   UNL     1     -43.098 -47.769  12.728  1.00  0.00    -0.271 OA
HETATM    3  N   UNL     1     -42.588 -49.791  11.790  1.00  0.00    -0.358 N 
HETATM    4  H   UNL     1     -42.613 -50.311  10.913  1.00  0.00     0.162 HD
ENDROOT
BRANCH   3   5
HETATM    5  C   UNL     1     -42.879 -50.463  13.043  1.00  0.00     0.152 C 
BRANCH   5   6
HETATM    6  C   UNL     1     -42.031 -51.712  13.333  1.00  0.00     0.292 C 
BRANCH   6   7
HETATM    7  N   UNL     1     -41.065 -51.513  14.436  1.00  0.00     0.095 N 
HETATM    8  C   UNL     1     -39.919 -50.669  14.023  1.00  0.00     0.303 C 
HETATM    9  C   UNL     1     -38.905 -51.383  13.090  1.00  0.00     0.146 C 
HETATM   10  C   UNL     1     -37.664 -50.522  12.890  1.00  0.00     0.041 C 
HETATM   11  O   UNL     1     -38.472 -52.648  13.628  1.00  0.00    -0.378 OA
HETATM   12  C   UNL     1     -39.595 -53.488  13.944  1.00  0.00     0.146 C 
HETATM   13  C   UNL     1     -39.084 -54.813  14.492  1.00  0.00     0.041 C 
HETATM   14  C   UNL     1     -40.497 -52.775  14.969  1.00  0.00     0.303 C 
ENDBRANCH   6   7
ENDBRANCH   5   6
ENDBRANCH   3   5
BRANCH   1  15
HETATM   15  C   UNL     1     -42.529 -47.755  10.387  1.00  0.00     0.196 C 
HETATM   16  C   UNL     1     -41.431 -46.693  10.515  1.00  0.00     0.044 C 
BRANCH  15  17
HETATM   17  N   UNL     1     -43.762 -47.232   9.829  1.00  0.00    -0.273 N 
HETATM   18  C   UNL     1     -43.975 -46.086   9.127  1.00  0.00     0.202 A 
HETATM   19  N   UNL     1     -45.228 -46.034   8.735  1.00  0.00    -0.346 N 
HETATM   20  C   UNL     1     -45.758 -47.183   9.243  1.00  0.00     0.198 A 
ATOM     21  HN  UNL     1     -45.690 -45.310   8.185  1.00  0.00     0.167 HD
HETATM   22  N   UNL     1     -44.912 -47.935   9.954  1.00  0.00    -0.292 N 
ATOM     23  HN  UNL     1     -45.086 -48.805  10.456  1.00  0.00     0.188 HD
ENDBRANCH  15  17
ENDBRANCH   1  15
TORSDOF 5
ENDMDL
MODEL 9
REMARK VINA RESULT:      -5.5      3.681      5.775
REMARK  5 active torsions:
REMARK  status: ('A' for Active; 'I' for Inactive)
REMARK    1  A    between atoms: C_2  and  C_3 
REMARK    2  A    between atoms: C_2  and  N_16 
REMARK       I    between atoms: C_3  and  N_5 
REMARK    3  A    between atoms: N_5  and  C_6 
REMARK    4  A    between atoms: C_6  and  C_7 
REMARK    5  A    between atoms: C_7  and  N_8 
ROOT
HETATM    1  C   UNL     1     -42.070 -53.851  13.259  1.00  0.00     0.242 C 
HETATM    2  O   UNL     1     -43.034 -53.422  12.625  1.00  0.00    -0.271 OA
HETATM    3  N   UNL     1     -42.226 -54.569  14.431  1.00  0.00    -0.358 N 
HETATM    4  H   UNL     1     -41.437 -55.131  14.752  1.00  0.00     0.162 HD
ENDROOT
BRANCH   3   5
HETATM    5  C   UNL     1     -43.576 -54.911  14.838  1.00  0.00     0.152 C 
BRANCH   5   6
HETATM    6  C   UNL     1     -44.220 -53.955  15.855  1.00  0.00     0.292 C 
BRANCH   6   7
HETATM    7  N   UNL     1     -45.695 -53.900  15.743  1.00  0.00     0.095 N 
HETATM    8  C   UNL     1     -46.134 -53.516  14.380  1.00  0.00     0.303 C 
HETATM    9  C   UNL     1     -45.921 -52.017  14.040  1.00  0.00     0.146 C 
HETATM   10  C   UNL     1     -46.588 -51.669  12.715  1.00  0.00     0.041 C 
HETATM   11  O   UNL     1     -46.480 -51.149  15.046  1.00  0.00    -0.378 OA
HETATM   12  C   UNL     1     -45.977 -51.480  16.352  1.00  0.00     0.146 C 
HETATM   13  C   UNL     1     -46.584 -50.527  17.371  1.00  0.00     0.041 C 
HETATM   14  C   UNL     1     -46.330 -52.943  16.681  1.00  0.00     0.303 C 
ENDBRANCH   6   7
ENDBRANCH   5   6
ENDBRANCH   3   5
BRANCH   1  15
HETATM   15  C   UNL     1     -40.637 -53.559  12.826  1.00  0.00     0.196 C 
HETATM   16  C   UNL     1     -39.643 -54.116  13.851  1.00  0.00     0.044 C 
BRANCH  15  17
HETATM   17  N   UNL     1     -40.455 -52.142  12.570  1.00  0.00    -0.273 N 
HETATM   18  C   UNL     1     -39.810 -51.205  13.318  1.00  0.00     0.202 A 
HETATM   19  N   UNL     1     -39.809 -50.057  12.681  1.00  0.00    -0.346 N 
HETATM   20  C   UNL     1     -40.491 -50.339  11.534  1.00  0.00     0.198 A 
ATOM     21  HN  UNL     1     -39.398 -49.170  12.973  1.00  0.00     0.167 HD
HETATM   22  N   UNL     1     -40.942 -51.593  11.434  1.00  0.00    -0.292 N 
ATOM     23  HN  UNL     1     -41.503 -52.021  10.698  1.00  0.00     0.188 HD
ENDBRANCH  15  17
ENDBRANCH   1  15
TORSDOF 5
ENDMDL
