MODEL 1
REMARK VINA RESULT:      -5.7      0.000      0.000
REMARK  3 active torsions:
REMARK  status: ('A' for Active; 'I' for Inactive)
REMARK    1  A    between atoms: C_2  and  C_4 
REMARK       I    between atoms: C_4  and  N_6 
REMARK    2  A    between atoms: N_6  and  C_7 
REMARK    3  A    between atoms: C_10  and  N_14 
ROOT
HETATM    1  C   UNL     1     -42.712 -51.086  13.114  1.00  0.00     0.050 A 
HETATM    2  C   UNL     1     -43.402 -49.888  13.182  1.00  0.00     0.035 A 
HETATM    3  C   UNL     1     -43.060 -48.856  12.301  1.00  0.00     0.051 A 
HETATM    4  C   UNL     1     -42.010 -49.007  11.388  1.00  0.00     0.103 A 
HETATM    5  N   UNL     1     -41.282 -50.143  11.390  1.00  0.00    -0.350 N 
ATOM      6  HN  UNL     1     -40.473 -50.243  10.776  1.00  0.00     0.166 HD
HETATM    7  C   UNL     1     -41.646 -51.150  12.226  1.00  0.00     0.119 A 
ENDROOT
BRANCH   1   8
HETATM    8  N   UNL     1     -43.135 -52.172  13.905  1.00  0.00    -0.326 N 
HETATM    9  C   UNL     1     -44.015 -53.125  13.423  1.00  0.00     0.225 C 
HETATM   10  O   UNL     1     -44.488 -53.118  12.283  1.00  0.00    -0.273 OA
HETATM   11  H   UNL     1     -43.079 -52.067  14.912  1.00  0.00     0.169 HD
BRANCH   9  12
HETATM   12  C   UNL     1     -44.374 -54.210  14.428  1.00  0.00     0.070 C 
HETATM   13  C   UNL     1     -45.406 -55.167  13.827  1.00  0.00     0.019 C 
HETATM   14  C   UNL     1     -43.109 -54.962  14.823  1.00  0.00     0.019 C 
ENDBRANCH   9  12
ENDBRANCH   1   8
BRANCH   4  15
HETATM   15  N   UNL     1     -41.655 -47.984  10.524  1.00  0.00    -0.363 N 
HETATM   16  C   UNL     1     -40.763 -46.898  10.957  1.00  0.00     0.150 C 
HETATM   17  C   UNL     1     -41.544 -45.599  11.215  1.00  0.00     0.187 C 
HETATM   18  O   UNL     1     -42.340 -45.225  10.081  1.00  0.00    -0.388 OA
HETATM   19  C   UNL     1     -43.300 -46.258   9.803  1.00  0.00     0.187 C 
HETATM   20  C   UNL     1     -42.611 -47.589   9.470  1.00  0.00     0.150 C 
ENDBRANCH   4  15
TORSDOF 3
ENDMDL
MODEL 2
REMARK VINA RESULT:      -5.6      3.548      6.890
REMARK  3 active torsions:
REMARK  status: ('A' for Active; 'I' for Inactive)
REMARK    1  A    between atoms: C_2  and  C_4 
REMARK       I    between atoms: C_4  and  N_6 
REMARK    2  A    between atoms: N_6  and  C_7 
REMARK    3  A    between atoms: C_10  and  N_14 
ROOT
HETATM    1  C   UNL     1     -40.976 -51.853  12.513  1.00  0.00     0.050 A 
HETATM    2  C   UNL     1     -41.126 -53.201  12.786  1.00  0.00     0.035 A 
HETATM    3  C   UNL     1     -42.414 -53.743  12.847  1.00  0.00     0.051 A 
HETATM    4  C   UNL     1     -43.544 -52.935  12.677  1.00  0.00     0.103 A 
HETATM    5  N   UNL     1     -43.394 -51.605  12.503  1.00  0.00    -0.350 N 
ATOM      6  HN  UNL     1     -44.207 -50.994  12.442  1.00  0.00     0.166 HD
HETATM    7  C   UNL     1     -42.137 -51.098  12.410  1.00  0.00     0.119 A 
ENDROOT
BRANCH   1   8
HETATM    8  N   UNL     1     -39.683 -51.327  12.320  1.00  0.00    -0.326 N 
HETATM    9  C   UNL     1     -38.959 -50.774  13.363  1.00  0.00     0.225 C 
HETATM   10  O   UNL     1     -39.364 -50.703  14.526  1.00  0.00    -0.273 OA
HETATM   11  H   UNL     1     -39.431 -51.036  11.382  1.00  0.00     0.169 HD
BRANCH   9  12
HETATM   12  C   UNL     1     -37.594 -50.236  12.959  1.00  0.00     0.070 C 
HETATM   13  C   UNL     1     -37.486 -50.155  11.435  1.00  0.00     0.019 C 
HETATM   14  C   UNL     1     -37.395 -48.861  13.587  1.00  0.00     0.019 C 
ENDBRANCH   9  12
ENDBRANCH   1   8
BRANCH   4  15
HETATM   15  N   UNL     1     -44.823 -53.461  12.753  1.00  0.00    -0.363 N 
HETATM   16  C   UNL     1     -46.009 -52.601  12.627  1.00  0.00     0.150 C 
HETATM   17  C   UNL     1     -46.675 -52.360  13.991  1.00  0.00     0.187 C 
HETATM   18  O   UNL     1     -46.972 -53.593  14.662  1.00  0.00    -0.388 OA
HETATM   19  C   UNL     1     -45.754 -54.319  14.899  1.00  0.00     0.187 C 
HETATM   20  C   UNL     1     -45.041 -54.663  13.583  1.00  0.00     0.150 C 
ENDBRANCH   4  15
TORSDOF 3
ENDMDL
MODEL 3
REMARK VINA RESULT:      -5.4      4.565      5.761
REMARK  3 active torsions:
REMARK  status: ('A' for Active; 'I' for Inactive)
REMARK    1  A    between atoms: C_2  and  C_4 
REMARK       I    between atoms: C_4  and  N_6 
REMARK    2  A    between atoms: N_6  and  C_7 
REMARK    3  A    between atoms: C_10  and  N_14 
ROOT
HETATM    1  C   UNL     1     -43.409 -47.282  10.234  1.00  0.00     0.050 A 
HETATM    2  C   UNL     1     -42.724 -48.137  11.079  1.00  0.00     0.035 A 
HETATM    3  C   UNL     1     -41.559 -47.684  11.708  1.00  0.00     0.051 A 
HETATM    4  C   UNL     1     -41.062 -46.399  11.461  1.00  0.00     0.103 A 
HETATM    5  N   UNL     1     -41.682 -45.603  10.567  1.00  0.00    -0.350 N 
ATOM      6  HN  UNL     1     -41.297 -44.690  10.327  1.00  0.00     0.166 HD
HETATM    7  C   UNL     1     -42.832 -46.042   9.990  1.00  0.00     0.119 A 
ENDROOT
BRANCH   1   8
HETATM    8  N   UNL     1     -44.649 -47.684   9.701  1.00  0.00    -0.326 N 
HETATM    9  C   UNL     1     -44.791 -48.029   8.369  1.00  0.00     0.225 C 
HETATM   10  O   UNL     1     -43.868 -48.027   7.550  1.00  0.00    -0.273 OA
HETATM   11  H   UNL     1     -45.486 -47.387  10.190  1.00  0.00     0.169 HD
BRANCH   9  12
HETATM   12  C   UNL     1     -46.209 -48.414   7.970  1.00  0.00     0.070 C 
HETATM   13  C   UNL     1     -46.181 -49.393   6.794  1.00  0.00     0.019 C 
HETATM   14  C   UNL     1     -46.913 -49.036   9.172  1.00  0.00     0.019 C 
ENDBRANCH   9  12
ENDBRANCH   1   8
BRANCH   4  15
HETATM   15  N   UNL     1     -39.899 -45.949  12.067  1.00  0.00    -0.363 N 
HETATM   16  C   UNL     1     -39.384 -46.582  13.290  1.00  0.00     0.150 C 
HETATM   17  C   UNL     1     -39.653 -45.712  14.529  1.00  0.00     0.187 C 
HETATM   18  O   UNL     1     -39.153 -44.378  14.358  1.00  0.00    -0.388 OA
HETATM   19  C   UNL     1     -39.809 -43.754  13.242  1.00  0.00     0.187 C 
HETATM   20  C   UNL     1     -39.546 -44.520  11.938  1.00  0.00     0.150 C 
ENDBRANCH   4  15
TORSDOF 3
ENDMDL
MODEL 4
REMARK VINA RESULT:      -5.4      3.815      6.543
REMARK  3 active torsions:
REMARK  status: ('A' for Active; 'I' for Inactive)
REMARK    1  A    between atoms: C_2  and  C_4 
REMARK       I    between atoms: C_4  and  N_6 
REMARK    2  A    between atoms: N_6  and  C_7 
REMARK    3  A    between atoms: C_10  and  N_14 
ROOT
HETATM    1  C   UNL     1     -40.981 -48.583  10.733  1.00  0.00     0.050 A 
HETATM    2  C   UNL     1     -40.293 -47.677  11.521  1.00  0.00     0.035 A 
HETATM    3  C   UNL     1     -39.321 -48.150  12.409  1.00  0.00     0.051 A 
HETATM    4  C   UNL     1     -39.069 -49.521  12.538  1.00  0.00     0.103 A 
HETATM    5  N   UNL     1     -39.807 -50.404  11.835  1.00  0.00    -0.350 N 
ATOM      6  HN  UNL     1     -39.681 -51.408  11.966  1.00  0.00     0.166 HD
HETATM    7  C   UNL     1     -40.723 -49.931  10.950  1.00  0.00     0.119 A 
ENDROOT
BRANCH   1   8
HETATM    8  N   UNL     1     -41.866 -48.108   9.745  1.00  0.00    -0.326 N 
HETATM    9  C   UNL     1     -43.165 -47.737  10.048  1.00  0.00     0.225 C 
HETATM   10  O   UNL     1     -43.650 -47.777  11.182  1.00  0.00    -0.273 OA
HETATM   11  H   UNL     1     -41.675 -48.365   8.783  1.00  0.00     0.169 HD
BRANCH   9  12
HETATM   12  C   UNL     1     -43.977 -47.270   8.849  1.00  0.00     0.070 C 
HETATM   13  C   UNL     1     -43.487 -47.964   7.576  1.00  0.00     0.019 C 
HETATM   14  C   UNL     1     -45.450 -47.577   9.095  1.00  0.00     0.019 C 
ENDBRANCH   9  12
ENDBRANCH   1   8
BRANCH   4  15
HETATM   15  N   UNL     1     -38.120 -49.997  13.428  1.00  0.00    -0.363 N 
HETATM   16  C   UNL     1     -38.098 -51.411  13.831  1.00  0.00     0.150 C 
HETATM   17  C   UNL     1     -38.651 -51.599  15.253  1.00  0.00     0.187 C 
HETATM   18  O   UNL     1     -37.979 -50.756  16.200  1.00  0.00    -0.388 OA
HETATM   19  C   UNL     1     -38.170 -49.377  15.841  1.00  0.00     0.187 C 
HETATM   20  C   UNL     1     -37.589 -49.074  14.452  1.00  0.00     0.150 C 
ENDBRANCH   4  15
TORSDOF 3
ENDMDL
MODEL 5
REMARK VINA RESULT:      -5.3      1.775      7.299
REMARK  3 active torsions:
REMARK  status: ('A' for Active; 'I' for Inactive)
REMARK    1  A    between atoms: C_2  and  C_4 
REMARK       I    between atoms: C_4  and  N_6 
REMARK    2  A    between atoms: N_6  and  C_7 
REMARK    3  A    between atoms: C_10  and  N_14 
ROOT
HETATM    1  C   UNL     1     -40.889 -48.664  11.913  1.00  0.00     0.050 A 
HETATM    2  C   UNL     1     -41.918 -49.002  12.774  1.00  0.00     0.035 A 
HETATM    3  C   UNL     1     -42.291 -50.346  12.893  1.00  0.00     0.051 A 
HETATM    4  C   UNL     1     -41.667 -51.336  12.126  1.00  0.00     0.103 A 
HETATM    5  N   UNL     1     -40.728 -50.989  11.223  1.00  0.00    -0.350 N 
ATOM      6  HN  UNL     1     -40.310 -51.690  10.611  1.00  0.00     0.166 HD
HETATM    7  C   UNL     1     -40.350 -49.686  11.142  1.00  0.00     0.119 A 
ENDROOT
BRANCH   1   8
HETATM    8  N   UNL     1     -40.420 -47.336  11.885  1.00  0.00    -0.326 N 
HETATM    9  C   UNL     1     -40.936 -46.400  11.005  1.00  0.00     0.225 C 
HETATM   10  O   UNL     1     -41.837 -46.634  10.194  1.00  0.00    -0.273 OA
HETATM   11  H   UNL     1     -39.490 -47.160  12.248  1.00  0.00     0.169 HD
BRANCH   9  12
HETATM   12  C   UNL     1     -40.291 -45.025  11.105  1.00  0.00     0.070 C 
HETATM   13  C   UNL     1     -39.496 -44.907  12.407  1.00  0.00     0.019 C 
HETATM   14  C   UNL     1     -39.382 -44.813   9.899  1.00  0.00     0.019 C 
ENDBRANCH   9  12
ENDBRANCH   1   8
BRANCH   4  15
HETATM   15  N   UNL     1     -42.042 -52.667  12.226  1.00  0.00    -0.363 N 
HETATM   16  C   UNL     1     -43.429 -53.045  12.537  1.00  0.00     0.150 C 
HETATM   17  C   UNL     1     -43.568 -53.520  13.993  1.00  0.00     0.187 C 
HETATM   18  O   UNL     1     -42.640 -54.570  14.299  1.00  0.00    -0.388 OA
HETATM   19  C   UNL     1     -41.295 -54.092  14.128  1.00  0.00     0.187 C 
HETATM   20  C   UNL     1     -41.038 -53.649  12.681  1.00  0.00     0.150 C 
ENDBRANCH   4  15
TORSDOF 3
ENDMDL
MODEL 6
REMARK VINA RESULT:      -5.2      4.775      7.806
REMARK  3 active torsions:
REMARK  status: ('A' for Active; 'I' for Inactive)
REMARK    1  A    between atoms: C_2  and  C_4 
REMARK       I    between atoms: C_4  and  N_6 
REMARK    2  A    between atoms: N_6  and  C_7 
REMARK    3  A    between atoms: C_10  and  N_14 
ROOT
HETATM    1  C   UNL     1     -43.150 -53.346  14.666  1.00  0.00     0.050 A 
HETATM    2  C   UNL     1     -43.433 -54.563  15.262  1.00  0.00     0.035 A 
HETATM    3  C   UNL     1     -42.375 -55.363  15.708  1.00  0.00     0.051 A 
HETATM    4  C   UNL     1     -41.046 -54.968  15.521  1.00  0.00     0.103 A 
HETATM    5  N   UNL     1     -40.775 -53.825  14.858  1.00  0.00    -0.350 N 
ATOM      6  HN  UNL     1     -39.812 -53.556  14.656  1.00  0.00     0.166 HD
HETATM    7  C   UNL     1     -41.811 -53.041  14.462  1.00  0.00     0.119 A 
ENDROOT
BRANCH   1   8
HETATM    8  N   UNL     1     -44.209 -52.478  14.334  1.00  0.00    -0.326 N 
HETATM    9  C   UNL     1     -44.887 -52.582  13.132  1.00  0.00     0.225 C 
HETATM   10  O   UNL     1     -44.640 -53.430  12.269  1.00  0.00    -0.273 OA
HETATM   11  H   UNL     1     -44.240 -51.579  14.802  1.00  0.00     0.169 HD
BRANCH   9  12
HETATM   12  C   UNL     1     -45.982 -51.544  12.939  1.00  0.00     0.070 C 
HETATM   13  C   UNL     1     -46.886 -51.938  11.769  1.00  0.00     0.019 C 
HETATM   14  C   UNL     1     -46.790 -51.427  14.227  1.00  0.00     0.019 C 
ENDBRANCH   9  12
ENDBRANCH   1   8
BRANCH   4  15
HETATM   15  N   UNL     1     -39.993 -55.763  15.945  1.00  0.00    -0.363 N 
HETATM   16  C   UNL     1     -40.170 -56.753  17.018  1.00  0.00     0.150 C 
HETATM   17  C   UNL     1     -39.547 -56.269  18.337  1.00  0.00     0.187 C 
HETATM   18  O   UNL     1     -38.172 -55.895  18.169  1.00  0.00    -0.388 OA
HETATM   19  C   UNL     1     -38.077 -54.815  17.225  1.00  0.00     0.187 C 
HETATM   20  C   UNL     1     -38.621 -55.224  15.848  1.00  0.00     0.150 C 
ENDBRANCH   4  15
TORSDOF 3
ENDMDL
MODEL 7
REMARK VINA RESULT:      -5.1      2.545      3.008
REMARK  3 active torsions:
REMARK  status: ('A' for Active; 'I' for Inactive)
REMARK    1  A    between atoms: C_2  and  C_4 
REMARK       I    between atoms: C_4  and  N_6 
REMARK    2  A    between atoms: N_6  and  C_7 
REMARK    3  A    between atoms: C_10  and  N_14 
ROOT
HETATM    1  C   UNL     1     -40.771 -50.080  12.749  1.00  0.00     0.050 A 
HETATM    2  C   UNL     1     -40.539 -48.864  13.367  1.00  0.00     0.035 A 
HETATM    3  C   UNL     1     -40.592 -47.692  12.605  1.00  0.00     0.051 A 
HETATM    4  C   UNL     1     -40.835 -47.740  11.227  1.00  0.00     0.103 A 
HETATM    5  N   UNL     1     -40.969 -48.934  10.614  1.00  0.00    -0.350 N 
ATOM      6  HN  UNL     1     -41.082 -48.989   9.602  1.00  0.00     0.166 HD
HETATM    7  C   UNL     1     -40.951 -50.062  11.371  1.00  0.00     0.119 A 
ENDROOT
BRANCH   1   8
HETATM    8  N   UNL     1     -40.849 -51.249  13.531  1.00  0.00    -0.326 N 
HETATM    9  C   UNL     1     -39.782 -52.124  13.640  1.00  0.00     0.225 C 
HETATM   10  O   UNL     1     -38.691 -51.960  13.087  1.00  0.00    -0.273 OA
HETATM   11  H   UNL     1     -41.771 -51.624  13.721  1.00  0.00     0.169 HD
BRANCH   9  12
HETATM   12  C   UNL     1     -40.060 -53.343  14.508  1.00  0.00     0.070 C 
HETATM   13  C   UNL     1     -41.550 -53.690  14.473  1.00  0.00     0.019 C 
HETATM   14  C   UNL     1     -39.223 -54.514  14.005  1.00  0.00     0.019 C 
ENDBRANCH   9  12
ENDBRANCH   1   8
BRANCH   4  15
HETATM   15  N   UNL     1     -40.872 -46.585  10.463  1.00  0.00    -0.363 N 
HETATM   16  C   UNL     1     -39.777 -45.606  10.510  1.00  0.00     0.150 C 
HETATM   17  C   UNL     1     -40.170 -44.362  11.323  1.00  0.00     0.187 C 
HETATM   18  O   UNL     1     -41.394 -43.782  10.847  1.00  0.00    -0.388 OA
HETATM   19  C   UNL     1     -42.462 -44.736  10.973  1.00  0.00     0.187 C 
HETATM   20  C   UNL     1     -42.188 -45.997  10.141  1.00  0.00     0.150 C 
ENDBRANCH   4  15
TORSDOF 3
ENDMDL
MODEL 8
REMARK VINA RESULT:      -4.9      4.213      6.520
REMARK  3 active torsions:
REMARK  status: ('A' for Active; 'I' for Inactive)
REMARK    1  A    between atoms: C_2  and  C_4 
REMARK       I    between atoms: C_4  and  N_6 
REMARK    2  A    between atoms: N_6  and  C_7 
REMARK    3  A    between atoms: C_10  and  N_14 
ROOT
HETATM    1  C   UNL     1     -41.946 -48.235  11.423  1.00  0.00     0.050 A 
HETATM    2  C   UNL     1     -40.723 -48.864  11.270  1.00  0.00     0.035 A 
HETATM    3  C   UNL     1     -39.904 -49.040  12.392  1.00  0.00     0.051 A 
HETATM    4  C   UNL     1     -40.289 -48.556  13.647  1.00  0.00     0.103 A 
HETATM    5  N   UNL     1     -41.440 -47.863  13.772  1.00  0.00    -0.350 N 
ATOM      6  HN  UNL     1     -41.703 -47.448  14.665  1.00  0.00     0.166 HD
HETATM    7  C   UNL     1     -42.242 -47.730  12.683  1.00  0.00     0.119 A 
ENDROOT
BRANCH   1   8
HETATM    8  N   UNL     1     -42.831 -48.170  10.329  1.00  0.00    -0.326 N 
HETATM    9  C   UNL     1     -42.952 -47.027   9.558  1.00  0.00     0.225 C 
HETATM   10  O   UNL     1     -42.307 -45.992   9.746  1.00  0.00    -0.273 OA
HETATM   11  H   UNL     1     -43.614 -48.814  10.322  1.00  0.00     0.169 HD
BRANCH   9  12
HETATM   12  C   UNL     1     -43.974 -47.137   8.435  1.00  0.00     0.070 C 
HETATM   13  C   UNL     1     -43.492 -48.132   7.377  1.00  0.00     0.019 C 
HETATM   14  C   UNL     1     -45.311 -47.578   9.019  1.00  0.00     0.019 C 
ENDBRANCH   9  12
ENDBRANCH   1   8
BRANCH   4  15
HETATM   15  N   UNL     1     -39.476 -48.712  14.758  1.00  0.00    -0.363 N 
HETATM   16  C   UNL     1     -38.666 -47.597  15.271  1.00  0.00     0.150 C 
HETATM   17  C   UNL     1     -37.182 -47.767  14.909  1.00  0.00     0.187 C 
HETATM   18  O   UNL     1     -36.676 -49.041  15.330  1.00  0.00    -0.388 OA
HETATM   19  C   UNL     1     -37.404 -50.092  14.673  1.00  0.00     0.187 C 
HETATM   20  C   UNL     1     -38.898 -50.044  15.026  1.00  0.00     0.150 C 
ENDBRANCH   4  15
TORSDOF 3
ENDMDL
MODEL 9
REMARK VINA RESULT:      -4.8      2.346      2.874
REMARK  3 active torsions:
REMARK  status: ('A' for Active; 'I' for Inactive)
REMARK    1  A    between atoms: C_2  and  C_4 
REMARK       I    between atoms: C_4  and  N_6 
REMARK    2  A    between atoms: N_6  and  C_7 
REMARK    3  A    between atoms: C_10  and  N_14 
ROOT
HETATM    1  C   UNL     1     -40.462 -51.697  12.742  1.00  0.00     0.050 A 
HETATM    2  C   UNL     1     -39.378 -50.889  12.448  1.00  0.00     0.035 A 
HETATM    3  C   UNL     1     -39.594 -49.680  11.778  1.00  0.00     0.051 A 
HETATM    4  C   UNL     1     -40.878 -49.302  11.370  1.00  0.00     0.103 A 
HETATM    5  N   UNL     1     -41.917 -50.136  11.578  1.00  0.00    -0.350 N 
ATOM      6  HN  UNL     1     -42.847 -49.905  11.230  1.00  0.00     0.166 HD
HETATM    7  C   UNL     1     -41.700 -51.291  12.261  1.00  0.00     0.119 A 
ENDROOT
BRANCH   1   8
HETATM    8  N   UNL     1     -40.271 -52.850  13.529  1.00  0.00    -0.326 N 
HETATM    9  C   UNL     1     -40.386 -52.817  14.908  1.00  0.00     0.225 C 
HETATM   10  O   UNL     1     -40.669 -51.805  15.556  1.00  0.00    -0.273 OA
HETATM   11  H   UNL     1     -39.717 -53.600  13.133  1.00  0.00     0.169 HD
BRANCH   9  12
HETATM   12  C   UNL     1     -40.122 -54.152  15.590  1.00  0.00     0.070 C 
HETATM   13  C   UNL     1     -41.418 -54.960  15.689  1.00  0.00     0.019 C 
HETATM   14  C   UNL     1     -39.071 -54.918  14.795  1.00  0.00     0.019 C 
ENDBRANCH   9  12
ENDBRANCH   1   8
BRANCH   4  15
HETATM   15  N   UNL     1     -41.097 -48.114  10.691  1.00  0.00    -0.363 N 
HETATM   16  C   UNL     1     -40.457 -46.862  11.122  1.00  0.00     0.150 C 
HETATM   17  C   UNL     1     -41.455 -45.938  11.839  1.00  0.00     0.187 C 
HETATM   18  O   UNL     1     -42.624 -45.701  11.042  1.00  0.00    -0.388 OA
HETATM   19  C   UNL     1     -43.296 -46.946  10.785  1.00  0.00     0.187 C 
HETATM   20  C   UNL     1     -42.394 -47.920  10.013  1.00  0.00     0.150 C 
ENDBRANCH   4  15
TORSDOF 3
ENDMDL
