MODEL 1
REMARK VINA RESULT:      -5.6      0.000      0.000
REMARK  4 active torsions:
REMARK  status: ('A' for Active; 'I' for Inactive)
REMARK    1  A    between atoms: C_2  and  C_4 
REMARK    2  A    between atoms: C_7  and  C_8 
REMARK    3  A    between atoms: C_8  and  C_9 
REMARK       I    between atoms: C_9  and  N_11 
REMARK    4  A    between atoms: N_11  and  C_12 
ROOT
HETATM    1  C   UNL     1     -41.640 -51.715  12.214  1.00  0.00     0.160 C 
ENDROOT
BRANCH   1   2
HETATM    2  C   UNL     1     -42.856 -52.491  12.593  1.00  0.00     0.025 A 
HETATM    3  N   UNL     1     -44.101 -51.877  12.514  1.00  0.00    -0.356 N 
HETATM    4  C   UNL     1     -45.041 -52.697  12.946  1.00  0.00     0.054 A 
ATOM      5  HN  UNL     1     -44.264 -50.930  12.172  1.00  0.00     0.166 HD
HETATM    6  S   UNL     1     -44.488 -54.258  13.419  1.00  0.00    -0.086 SA
HETATM    7  C   UNL     1     -42.884 -53.787  13.073  1.00  0.00     0.077 A 
BRANCH   4   8
HETATM    8  C   UNL     1     -46.502 -52.348  13.083  1.00  0.00     0.035 C 
HETATM    9  C   UNL     1     -46.719 -51.444  14.298  1.00  0.00     0.016 C 
HETATM   10  C   UNL     1     -47.037 -51.684  11.815  1.00  0.00     0.016 C 
ENDBRANCH   4   8
ENDBRANCH   1   2
BRANCH   1  11
HETATM   11  C   UNL     1     -41.826 -50.229  12.462  1.00  0.00     0.223 C 
HETATM   12  O   UNL     1     -41.863 -49.756  13.597  1.00  0.00    -0.273 OA
HETATM   13  N   UNL     1     -41.962 -49.474  11.317  1.00  0.00    -0.356 N 
HETATM   14  H   UNL     1     -41.651 -49.891  10.447  1.00  0.00     0.162 HD
BRANCH  13  15
HETATM   15  C   UNL     1     -42.104 -48.032  11.372  1.00  0.00     0.084 C 
HETATM   16  C   UNL     1     -43.209 -47.524  10.442  1.00  0.00     0.025 C 
HETATM   17  C   UNL     1     -42.683 -46.233   9.812  1.00  0.00     0.002 C 
HETATM   18  C   UNL     1     -41.365 -45.932  10.510  1.00  0.00     0.002 C 
HETATM   19  C   UNL     1     -40.843 -47.299  10.921  1.00  0.00     0.025 C 
ENDBRANCH  13  15
ENDBRANCH   1  11
TORSDOF 4
ENDMDL
MODEL 2
REMARK VINA RESULT:      -5.5      2.822      6.296
REMARK  4 active torsions:
REMARK  status: ('A' for Active; 'I' for Inactive)
REMARK    1  A    between atoms: C_2  and  C_4 
REMARK    2  A    between atoms: C_7  and  C_8 
REMARK    3  A    between atoms: C_8  and  C_9 
REMARK       I    between atoms: C_9  and  N_11 
REMARK    4  A    between atoms: N_11  and  C_12 
ROOT
HETATM    1  C   UNL     1     -40.666 -49.705  11.423  1.00  0.00     0.160 C 
ENDROOT
BRANCH   1   2
HETATM    2  C   UNL     1     -41.307 -48.452  10.930  1.00  0.00     0.025 A 
HETATM    3  N   UNL     1     -42.325 -48.542   9.986  1.00  0.00    -0.356 N 
HETATM    4  C   UNL     1     -42.721 -47.333   9.629  1.00  0.00     0.054 A 
ATOM      5  HN  UNL     1     -42.709 -49.413   9.622  1.00  0.00     0.166 HD
HETATM    6  S   UNL     1     -41.932 -46.035  10.441  1.00  0.00    -0.086 SA
HETATM    7  C   UNL     1     -40.963 -47.161  11.284  1.00  0.00     0.077 A 
BRANCH   4   8
HETATM    8  C   UNL     1     -43.750 -47.035   8.567  1.00  0.00     0.035 C 
HETATM    9  C   UNL     1     -43.608 -48.015   7.401  1.00  0.00     0.016 C 
HETATM   10  C   UNL     1     -45.167 -47.078   9.138  1.00  0.00     0.016 C 
ENDBRANCH   4   8
ENDBRANCH   1   2
BRANCH   1  11
HETATM   11  C   UNL     1     -41.495 -50.367  12.508  1.00  0.00     0.223 C 
HETATM   12  O   UNL     1     -41.587 -49.895  13.640  1.00  0.00    -0.273 OA
HETATM   13  N   UNL     1     -42.115 -51.535  12.118  1.00  0.00    -0.356 N 
HETATM   14  H   UNL     1     -42.209 -51.699  11.121  1.00  0.00     0.162 HD
BRANCH  13  15
HETATM   15  C   UNL     1     -42.980 -52.273  13.017  1.00  0.00     0.084 C 
HETATM   16  C   UNL     1     -42.194 -53.211  13.937  1.00  0.00     0.025 C 
HETATM   17  C   UNL     1     -43.013 -54.498  14.041  1.00  0.00     0.002 C 
HETATM   18  C   UNL     1     -44.325 -54.221  13.323  1.00  0.00     0.002 C 
HETATM   19  C   UNL     1     -43.962 -53.178  12.279  1.00  0.00     0.025 C 
ENDBRANCH  13  15
ENDBRANCH   1  11
TORSDOF 4
ENDMDL
MODEL 3
REMARK VINA RESULT:      -5.4      3.130      6.200
REMARK  4 active torsions:
REMARK  status: ('A' for Active; 'I' for Inactive)
REMARK    1  A    between atoms: C_2  and  C_4 
REMARK    2  A    between atoms: C_7  and  C_8 
REMARK    3  A    between atoms: C_8  and  C_9 
REMARK       I    between atoms: C_9  and  N_11 
REMARK    4  A    between atoms: N_11  and  C_12 
ROOT
HETATM    1  C   UNL     1     -41.114 -54.029  12.935  1.00  0.00     0.160 C 
ENDROOT
BRANCH   1   2
HETATM    2  C   UNL     1     -40.394 -52.745  13.172  1.00  0.00     0.025 A 
HETATM    3  N   UNL     1     -40.169 -51.891  12.098  1.00  0.00    -0.356 N 
HETATM    4  C   UNL     1     -39.468 -50.842  12.491  1.00  0.00     0.054 A 
ATOM      5  HN  UNL     1     -40.497 -52.050  11.146  1.00  0.00     0.166 HD
HETATM    6  S   UNL     1     -39.089 -50.804  14.171  1.00  0.00    -0.086 SA
HETATM    7  C   UNL     1     -39.867 -52.311  14.373  1.00  0.00     0.077 A 
BRANCH   4   8
HETATM    8  C   UNL     1     -38.965 -49.746  11.586  1.00  0.00     0.035 C 
HETATM    9  C   UNL     1     -39.245 -48.376  12.205  1.00  0.00     0.016 C 
HETATM   10  C   UNL     1     -37.475 -49.909  11.290  1.00  0.00     0.016 C 
ENDBRANCH   4   8
ENDBRANCH   1   2
BRANCH   1  11
HETATM   11  C   UNL     1     -42.491 -54.024  13.573  1.00  0.00     0.223 C 
HETATM   12  O   UNL     1     -42.807 -54.822  14.454  1.00  0.00    -0.273 OA
HETATM   13  N   UNL     1     -43.347 -53.066  13.071  1.00  0.00    -0.356 N 
HETATM   14  H   UNL     1     -42.930 -52.294  12.560  1.00  0.00     0.162 HD
BRANCH  13  15
HETATM   15  C   UNL     1     -44.686 -52.893  13.597  1.00  0.00     0.084 C 
HETATM   16  C   UNL     1     -45.720 -52.673  12.490  1.00  0.00     0.025 C 
HETATM   17  C   UNL     1     -46.686 -51.608  13.008  1.00  0.00     0.002 C 
HETATM   18  C   UNL     1     -46.298 -51.356  14.456  1.00  0.00     0.002 C 
HETATM   19  C   UNL     1     -44.811 -51.669  14.500  1.00  0.00     0.025 C 
ENDBRANCH  13  15
ENDBRANCH   1  11
TORSDOF 4
ENDMDL
MODEL 4
REMARK VINA RESULT:      -5.3      2.769      3.490
REMARK  4 active torsions:
REMARK  status: ('A' for Active; 'I' for Inactive)
REMARK    1  A    between atoms: C_2  and  C_4 
REMARK    2  A    between atoms: C_7  and  C_8 
REMARK    3  A    between atoms: C_8  and  C_9 
REMARK       I    between atoms: C_9  and  N_11 
REMARK    4  A    between atoms: N_11  and  C_12 
ROOT
HETATM    1  C   UNL     1     -41.587 -54.047  13.358  1.00  0.00     0.160 C 
ENDROOT
BRANCH   1   2
HETATM    2  C   UNL     1     -43.037 -53.872  13.658  1.00  0.00     0.025 A 
HETATM    3  N   UNL     1     -43.665 -52.689  13.284  1.00  0.00    -0.356 N 
HETATM    4  C   UNL     1     -44.923 -52.695  13.687  1.00  0.00     0.054 A 
ATOM      5  HN  UNL     1     -43.219 -51.927  12.772  1.00  0.00     0.166 HD
HETATM    6  S   UNL     1     -45.427 -54.135  14.486  1.00  0.00    -0.086 SA
HETATM    7  C   UNL     1     -43.848 -54.767  14.329  1.00  0.00     0.077 A 
BRANCH   4   8
HETATM    8  C   UNL     1     -45.889 -51.548  13.532  1.00  0.00     0.035 C 
HETATM    9  C   UNL     1     -46.699 -51.705  12.245  1.00  0.00     0.016 C 
HETATM   10  C   UNL     1     -46.816 -51.435  14.742  1.00  0.00     0.016 C 
ENDBRANCH   4   8
ENDBRANCH   1   2
BRANCH   1  11
HETATM   11  C   UNL     1     -41.026 -52.860  12.596  1.00  0.00     0.223 C 
HETATM   12  O   UNL     1     -41.441 -52.542  11.483  1.00  0.00    -0.273 OA
HETATM   13  N   UNL     1     -40.015 -52.189  13.252  1.00  0.00    -0.356 N 
HETATM   14  H   UNL     1     -39.928 -52.343  14.251  1.00  0.00     0.162 HD
BRANCH  13  15
HETATM   15  C   UNL     1     -39.398 -51.007  12.686  1.00  0.00     0.084 C 
HETATM   16  C   UNL     1     -37.946 -50.836  13.143  1.00  0.00     0.025 C 
HETATM   17  C   UNL     1     -37.746 -49.341  13.393  1.00  0.00     0.002 C 
HETATM   18  C   UNL     1     -39.021 -48.661  12.919  1.00  0.00     0.002 C 
HETATM   19  C   UNL     1     -40.097 -49.718  13.110  1.00  0.00     0.025 C 
ENDBRANCH  13  15
ENDBRANCH   1  11
TORSDOF 4
ENDMDL
MODEL 5
REMARK VINA RESULT:      -5.3      1.990      2.934
REMARK  4 active torsions:
REMARK  status: ('A' for Active; 'I' for Inactive)
REMARK    1  A    between atoms: C_2  and  C_4 
REMARK    2  A    between atoms: C_7  and  C_8 
REMARK    3  A    between atoms: C_8  and  C_9 
REMARK       I    between atoms: C_9  and  N_11 
REMARK    4  A    between atoms: N_11  and  C_12 
ROOT
HETATM    1  C   UNL     1     -40.587 -49.858  11.031  1.00  0.00     0.160 C 
ENDROOT
BRANCH   1   2
HETATM    2  C   UNL     1     -40.842 -50.976  11.984  1.00  0.00     0.025 A 
HETATM    3  N   UNL     1     -41.909 -51.836  11.745  1.00  0.00    -0.356 N 
HETATM    4  C   UNL     1     -42.010 -52.717  12.724  1.00  0.00     0.054 A 
ATOM      5  HN  UNL     1     -42.524 -51.793  10.933  1.00  0.00     0.166 HD
HETATM    6  S   UNL     1     -40.805 -52.592  13.948  1.00  0.00    -0.086 SA
HETATM    7  C   UNL     1     -40.139 -51.240  13.145  1.00  0.00     0.077 A 
BRANCH   4   8
HETATM    8  C   UNL     1     -43.097 -53.755  12.849  1.00  0.00     0.035 C 
HETATM    9  C   UNL     1     -43.097 -54.358  14.254  1.00  0.00     0.016 C 
HETATM   10  C   UNL     1     -44.468 -53.167  12.514  1.00  0.00     0.016 C 
ENDBRANCH   4   8
ENDBRANCH   1   2
BRANCH   1  11
HETATM   11  C   UNL     1     -41.539 -48.699  11.262  1.00  0.00     0.223 C 
HETATM   12  O   UNL     1     -41.558 -48.070  12.319  1.00  0.00    -0.273 OA
HETATM   13  N   UNL     1     -42.375 -48.428  10.201  1.00  0.00    -0.356 N 
HETATM   14  H   UNL     1     -42.111 -48.802   9.295  1.00  0.00     0.162 HD
BRANCH  13  15
HETATM   15  C   UNL     1     -43.316 -47.327  10.237  1.00  0.00     0.084 C 
HETATM   16  C   UNL     1     -44.729 -47.758   9.836  1.00  0.00     0.025 C 
HETATM   17  C   UNL     1     -45.299 -46.627   8.979  1.00  0.00     0.002 C 
HETATM   18  C   UNL     1     -44.280 -45.500   9.039  1.00  0.00     0.002 C 
HETATM   19  C   UNL     1     -42.954 -46.211   9.260  1.00  0.00     0.025 C 
ENDBRANCH  13  15
ENDBRANCH   1  11
TORSDOF 4
ENDMDL
MODEL 6
REMARK VINA RESULT:      -5.1      2.786      7.079
REMARK  4 active torsions:
REMARK  status: ('A' for Active; 'I' for Inactive)
REMARK    1  A    between atoms: C_2  and  C_4 
REMARK    2  A    between atoms: C_7  and  C_8 
REMARK    3  A    between atoms: C_8  and  C_9 
REMARK       I    between atoms: C_9  and  N_11 
REMARK    4  A    between atoms: N_11  and  C_12 
ROOT
HETATM    1  C   UNL     1     -40.685 -49.807  11.171  1.00  0.00     0.160 C 
ENDROOT
BRANCH   1   2
HETATM    2  C   UNL     1     -41.162 -48.435  10.837  1.00  0.00     0.025 A 
HETATM    3  N   UNL     1     -40.261 -47.376  10.893  1.00  0.00    -0.356 N 
HETATM    4  C   UNL     1     -40.879 -46.239  10.626  1.00  0.00     0.054 A 
ATOM      5  HN  UNL     1     -39.268 -47.464  11.108  1.00  0.00     0.166 HD
HETATM    6  S   UNL     1     -42.553 -46.388  10.248  1.00  0.00    -0.086 SA
HETATM    7  C   UNL     1     -42.455 -48.073  10.508  1.00  0.00     0.077 A 
BRANCH   4   8
HETATM    8  C   UNL     1     -40.242 -44.873  10.675  1.00  0.00     0.035 C 
HETATM    9  C   UNL     1     -39.718 -44.581  12.081  1.00  0.00     0.016 C 
HETATM   10  C   UNL     1     -39.121 -44.746   9.644  1.00  0.00     0.016 C 
ENDBRANCH   4   8
ENDBRANCH   1   2
BRANCH   1  11
HETATM   11  C   UNL     1     -41.480 -50.413  12.314  1.00  0.00     0.223 C 
HETATM   12  O   UNL     1     -41.517 -49.897  13.429  1.00  0.00    -0.273 OA
HETATM   13  N   UNL     1     -42.134 -51.584  11.994  1.00  0.00    -0.356 N 
HETATM   14  H   UNL     1     -42.272 -51.784  11.010  1.00  0.00     0.162 HD
BRANCH  13  15
HETATM   15  C   UNL     1     -42.973 -52.271  12.956  1.00  0.00     0.084 C 
HETATM   16  C   UNL     1     -42.159 -53.145  13.915  1.00  0.00     0.025 C 
HETATM   17  C   UNL     1     -42.965 -54.429  14.115  1.00  0.00     0.002 C 
HETATM   18  C   UNL     1     -44.294 -54.206  13.411  1.00  0.00     0.002 C 
HETATM   19  C   UNL     1     -43.963 -53.227  12.297  1.00  0.00     0.025 C 
ENDBRANCH  13  15
ENDBRANCH   1  11
TORSDOF 4
ENDMDL
MODEL 7
REMARK VINA RESULT:      -5.0      3.028      3.136
REMARK  4 active torsions:
REMARK  status: ('A' for Active; 'I' for Inactive)
REMARK    1  A    between atoms: C_2  and  C_4 
REMARK    2  A    between atoms: C_7  and  C_8 
REMARK    3  A    between atoms: C_8  and  C_9 
REMARK       I    between atoms: C_9  and  N_11 
REMARK    4  A    between atoms: N_11  and  C_12 
ROOT
HETATM    1  C   UNL     1     -41.551 -52.388  11.823  1.00  0.00     0.160 C 
ENDROOT
BRANCH   1   2
HETATM    2  C   UNL     1     -42.725 -52.864  12.608  1.00  0.00     0.025 A 
HETATM    3  N   UNL     1     -43.974 -52.304  12.360  1.00  0.00    -0.356 N 
HETATM    4  C   UNL     1     -44.870 -52.806  13.191  1.00  0.00     0.054 A 
ATOM      5  HN  UNL     1     -44.170 -51.608  11.642  1.00  0.00     0.166 HD
HETATM    6  S   UNL     1     -44.272 -54.006  14.273  1.00  0.00    -0.086 SA
HETATM    7  C   UNL     1     -42.707 -53.802  13.623  1.00  0.00     0.077 A 
BRANCH   4   8
HETATM    8  C   UNL     1     -46.314 -52.377  13.274  1.00  0.00     0.035 C 
HETATM    9  C   UNL     1     -46.512 -51.401  14.434  1.00  0.00     0.016 C 
HETATM   10  C   UNL     1     -46.785 -51.756  11.960  1.00  0.00     0.016 C 
ENDBRANCH   4   8
ENDBRANCH   1   2
BRANCH   1  11
HETATM   11  C   UNL     1     -40.412 -51.954  12.727  1.00  0.00     0.223 C 
HETATM   12  O   UNL     1     -39.552 -52.741  13.119  1.00  0.00    -0.273 OA
HETATM   13  N   UNL     1     -40.437 -50.620  13.074  1.00  0.00    -0.356 N 
HETATM   14  H   UNL     1     -41.003 -50.003  12.502  1.00  0.00     0.162 HD
BRANCH  13  15
HETATM   15  C   UNL     1     -39.400 -50.030  13.896  1.00  0.00     0.084 C 
HETATM   16  C   UNL     1     -39.918 -48.851  14.725  1.00  0.00     0.025 C 
HETATM   17  C   UNL     1     -38.816 -47.791  14.703  1.00  0.00     0.002 C 
HETATM   18  C   UNL     1     -37.625 -48.438  14.012  1.00  0.00     0.002 C 
HETATM   19  C   UNL     1     -38.251 -49.456  13.073  1.00  0.00     0.025 C 
ENDBRANCH  13  15
ENDBRANCH   1  11
TORSDOF 4
ENDMDL
MODEL 8
REMARK VINA RESULT:      -4.7      2.392      6.362
REMARK  4 active torsions:
REMARK  status: ('A' for Active; 'I' for Inactive)
REMARK    1  A    between atoms: C_2  and  C_4 
REMARK    2  A    between atoms: C_7  and  C_8 
REMARK    3  A    between atoms: C_8  and  C_9 
REMARK       I    between atoms: C_9  and  N_11 
REMARK    4  A    between atoms: N_11  and  C_12 
ROOT
HETATM    1  C   UNL     1     -41.108 -52.098  12.159  1.00  0.00     0.160 C 
ENDROOT
BRANCH   1   2
HETATM    2  C   UNL     1     -40.818 -50.656  11.917  1.00  0.00     0.025 A 
HETATM    3  N   UNL     1     -41.775 -49.873  11.280  1.00  0.00    -0.356 N 
HETATM    4  C   UNL     1     -41.315 -48.648  11.101  1.00  0.00     0.054 A 
ATOM      5  HN  UNL     1     -42.698 -50.198  10.991  1.00  0.00     0.166 HD
HETATM    6  S   UNL     1     -39.738 -48.360  11.732  1.00  0.00    -0.086 SA
HETATM    7  C   UNL     1     -39.646 -49.992  12.228  1.00  0.00     0.077 A 
BRANCH   4   8
HETATM    8  C   UNL     1     -42.040 -47.546  10.370  1.00  0.00     0.035 C 
HETATM    9  C   UNL     1     -43.505 -47.495  10.806  1.00  0.00     0.016 C 
HETATM   10  C   UNL     1     -41.365 -46.193  10.592  1.00  0.00     0.016 C 
ENDBRANCH   4   8
ENDBRANCH   1   2
BRANCH   1  11
HETATM   11  C   UNL     1     -42.060 -52.289  13.326  1.00  0.00     0.223 C 
HETATM   12  O   UNL     1     -41.864 -51.768  14.422  1.00  0.00    -0.273 OA
HETATM   13  N   UNL     1     -43.142 -53.099  13.051  1.00  0.00    -0.356 N 
HETATM   14  H   UNL     1     -43.367 -53.255  12.074  1.00  0.00     0.162 HD
BRANCH  13  15
HETATM   15  C   UNL     1     -44.171 -53.351  14.039  1.00  0.00     0.084 C 
HETATM   16  C   UNL     1     -44.575 -54.828  14.090  1.00  0.00     0.025 C 
HETATM   17  C   UNL     1     -46.093 -54.853  14.273  1.00  0.00     0.002 C 
HETATM   18  C   UNL     1     -46.514 -53.408  14.493  1.00  0.00     0.002 C 
HETATM   19  C   UNL     1     -45.466 -52.599  13.745  1.00  0.00     0.025 C 
ENDBRANCH  13  15
ENDBRANCH   1  11
TORSDOF 4
ENDMDL
MODEL 9
REMARK VINA RESULT:      -4.7      1.605      2.125
REMARK  4 active torsions:
REMARK  status: ('A' for Active; 'I' for Inactive)
REMARK    1  A    between atoms: C_2  and  C_4 
REMARK    2  A    between atoms: C_7  and  C_8 
REMARK    3  A    between atoms: C_8  and  C_9 
REMARK       I    between atoms: C_9  and  N_11 
REMARK    4  A    between atoms: N_11  and  C_12 
ROOT
HETATM    1  C   UNL     1     -40.437 -50.420  11.628  1.00  0.00     0.160 C 
ENDROOT
BRANCH   1   2
HETATM    2  C   UNL     1     -41.609 -51.199  12.121  1.00  0.00     0.025 A 
HETATM    3  N   UNL     1     -42.756 -50.517  12.510  1.00  0.00    -0.356 N 
HETATM    4  C   UNL     1     -43.656 -51.367  12.971  1.00  0.00     0.054 A 
ATOM      5  HN  UNL     1     -42.885 -49.507  12.449  1.00  0.00     0.166 HD
HETATM    6  S   UNL     1     -43.193 -53.024  12.913  1.00  0.00    -0.086 SA
HETATM    7  C   UNL     1     -41.673 -52.570  12.280  1.00  0.00     0.077 A 
BRANCH   4   8
HETATM    8  C   UNL     1     -44.991 -50.984  13.559  1.00  0.00     0.035 C 
HETATM    9  C   UNL     1     -46.101 -51.854  12.969  1.00  0.00     0.016 C 
HETATM   10  C   UNL     1     -44.977 -51.089  15.084  1.00  0.00     0.016 C 
ENDBRANCH   4   8
ENDBRANCH   1   2
BRANCH   1  11
HETATM   11  C   UNL     1     -40.424 -49.011  12.193  1.00  0.00     0.223 C 
HETATM   12  O   UNL     1     -40.326 -48.792  13.399  1.00  0.00    -0.273 OA
HETATM   13  N   UNL     1     -40.545 -48.017  11.246  1.00  0.00    -0.356 N 
HETATM   14  H   UNL     1     -40.347 -48.267  10.283  1.00  0.00     0.162 HD
BRANCH  13  15
HETATM   15  C   UNL     1     -40.508 -46.615  11.609  1.00  0.00     0.084 C 
HETATM   16  C   UNL     1     -41.909 -46.006  11.716  1.00  0.00     0.025 C 
HETATM   17  C   UNL     1     -41.818 -44.604  11.112  1.00  0.00     0.002 C 
HETATM   18  C   UNL     1     -40.344 -44.365  10.825  1.00  0.00     0.002 C 
HETATM   19  C   UNL     1     -39.786 -45.757  10.573  1.00  0.00     0.025 C 
ENDBRANCH  13  15
ENDBRANCH   1  11
TORSDOF 4
ENDMDL
