MODEL 1
REMARK VINA RESULT:      -5.2      0.000      0.000
REMARK  5 active torsions:
REMARK  status: ('A' for Active; 'I' for Inactive)
REMARK    1  A    between atoms: C_2  and  C_3 
REMARK    2  A    between atoms: C_6  and  C_7 
REMARK    3  A    between atoms: C_7  and  C_8 
REMARK    4  A    between atoms: C_8  and  N_9 
REMARK       I    between atoms: N_9  and  C_10 
REMARK    5  A    between atoms: C_10  and  C_12 
ROOT
HETATM    1  C   UNL     1     -42.360 -48.620  11.948  1.00  0.00     0.077 C 
ENDROOT
BRANCH   1   2
HETATM    2  C   UNL     1     -43.020 -47.866  10.838  1.00  0.00     0.018 A 
HETATM    3  N   UNL     1     -44.366 -48.068  10.578  1.00  0.00    -0.357 N 
HETATM    4  C   UNL     1     -44.753 -47.305   9.576  1.00  0.00     0.050 A 
ATOM      5  HN  UNL     1     -44.969 -48.713  11.088  1.00  0.00     0.166 HD
HETATM    6  S   UNL     1     -43.533 -46.301   8.898  1.00  0.00    -0.087 SA
HETATM    7  C   UNL     1     -42.411 -46.927  10.027  1.00  0.00     0.076 A 
BRANCH   4   8
HETATM    8  C   UNL     1     -46.149 -47.266   9.041  1.00  0.00     0.060 C 
HETATM    9  C   UNL     1     -46.586 -48.635   8.543  1.00  0.00     0.012 C 
ENDBRANCH   4   8
ENDBRANCH   1   2
BRANCH   1  10
HETATM   10  C   UNL     1     -41.292 -49.602  11.465  1.00  0.00     0.128 C 
BRANCH  10  11
HETATM   11  N   UNL     1     -41.648 -50.987  11.730  1.00  0.00    -0.360 N 
HETATM   12  C   UNL     1     -40.723 -51.890  12.190  1.00  0.00     0.221 C 
HETATM   13  O   UNL     1     -39.559 -51.619  12.451  1.00  0.00    -0.273 OA
HETATM   14  H   UNL     1     -42.601 -51.285  11.571  1.00  0.00     0.162 HD
BRANCH  12  15
HETATM   15  C   UNL     1     -41.264 -53.261  12.398  1.00  0.00     0.078 A 
HETATM   16  C   UNL     1     -41.882 -53.632  13.727  1.00  0.00     0.015 A 
HETATM   17  C   UNL     1     -40.561 -54.222  13.330  1.00  0.00     0.015 A 
ENDBRANCH  12  15
ENDBRANCH  10  11
ENDBRANCH   1  10
TORSDOF 5
ENDMDL
MODEL 2
REMARK VINA RESULT:      -5.2      4.446      6.432
REMARK  5 active torsions:
REMARK  status: ('A' for Active; 'I' for Inactive)
REMARK    1  A    between atoms: C_2  and  C_3 
REMARK    2  A    between atoms: C_6  and  C_7 
REMARK    3  A    between atoms: C_7  and  C_8 
REMARK    4  A    between atoms: C_8  and  N_9 
REMARK       I    between atoms: N_9  and  C_10 
REMARK    5  A    between atoms: C_10  and  C_12 
ROOT
HETATM    1  C   UNL     1     -41.406 -53.929  12.863  1.00  0.00     0.077 C 
ENDROOT
BRANCH   1   2
HETATM    2  C   UNL     1     -40.403 -52.838  13.062  1.00  0.00     0.018 A 
HETATM    3  N   UNL     1     -40.265 -51.850  12.100  1.00  0.00    -0.357 N 
HETATM    4  C   UNL     1     -39.344 -50.984  12.469  1.00  0.00     0.050 A 
ATOM      5  HN  UNL     1     -40.799 -51.800  11.233  1.00  0.00     0.166 HD
HETATM    6  S   UNL     1     -38.601 -51.299  13.987  1.00  0.00    -0.087 SA
HETATM    7  C   UNL     1     -39.584 -52.687  14.165  1.00  0.00     0.076 A 
BRANCH   4   8
HETATM    8  C   UNL     1     -38.948 -49.785  11.667  1.00  0.00     0.060 C 
HETATM    9  C   UNL     1     -37.476 -49.836  11.291  1.00  0.00     0.012 C 
ENDBRANCH   4   8
ENDBRANCH   1   2
BRANCH   1  10
HETATM   10  C   UNL     1     -42.494 -53.959  13.937  1.00  0.00     0.128 C 
BRANCH  10  11
HETATM   11  N   UNL     1     -43.397 -52.822  13.848  1.00  0.00    -0.360 N 
HETATM   12  C   UNL     1     -44.531 -52.865  13.077  1.00  0.00     0.221 C 
HETATM   13  O   UNL     1     -44.902 -53.844  12.443  1.00  0.00    -0.273 OA
HETATM   14  H   UNL     1     -43.179 -51.984  14.369  1.00  0.00     0.162 HD
BRANCH  12  15
HETATM   15  C   UNL     1     -45.330 -51.610  13.101  1.00  0.00     0.078 A 
HETATM   16  C   UNL     1     -46.565 -51.520  13.969  1.00  0.00     0.015 A 
HETATM   17  C   UNL     1     -46.706 -51.573  12.476  1.00  0.00     0.015 A 
ENDBRANCH  12  15
ENDBRANCH  10  11
ENDBRANCH   1  10
TORSDOF 5
ENDMDL
MODEL 3
REMARK VINA RESULT:      -5.1      3.578      5.844
REMARK  5 active torsions:
REMARK  status: ('A' for Active; 'I' for Inactive)
REMARK    1  A    between atoms: C_2  and  C_3 
REMARK    2  A    between atoms: C_6  and  C_7 
REMARK    3  A    between atoms: C_7  and  C_8 
REMARK    4  A    between atoms: C_8  and  N_9 
REMARK       I    between atoms: N_9  and  C_10 
REMARK    5  A    between atoms: C_10  and  C_12 
ROOT
HETATM    1  C   UNL     1     -41.692 -50.116  13.043  1.00  0.00     0.077 C 
ENDROOT
BRANCH   1   2
HETATM    2  C   UNL     1     -42.809 -51.104  12.938  1.00  0.00     0.018 A 
HETATM    3  N   UNL     1     -44.109 -50.698  13.194  1.00  0.00    -0.357 N 
HETATM    4  C   UNL     1     -44.938 -51.709  13.037  1.00  0.00     0.050 A 
ATOM      5  HN  UNL     1     -44.383 -49.754  13.465  1.00  0.00     0.166 HD
HETATM    6  S   UNL     1     -44.211 -53.194  12.566  1.00  0.00    -0.087 SA
HETATM    7  C   UNL     1     -42.681 -52.430  12.569  1.00  0.00     0.076 A 
BRANCH   4   8
HETATM    8  C   UNL     1     -46.419 -51.618  13.224  1.00  0.00     0.060 C 
HETATM    9  C   UNL     1     -46.778 -51.432  14.690  1.00  0.00     0.012 C 
ENDBRANCH   4   8
ENDBRANCH   1   2
BRANCH   1  10
HETATM   10  C   UNL     1     -41.238 -49.564  11.691  1.00  0.00     0.128 C 
BRANCH  10  11
HETATM   11  N   UNL     1     -42.343 -49.043  10.903  1.00  0.00    -0.360 N 
HETATM   12  C   UNL     1     -42.292 -47.795  10.333  1.00  0.00     0.221 C 
HETATM   13  O   UNL     1     -41.331 -47.042  10.399  1.00  0.00    -0.273 OA
HETATM   14  H   UNL     1     -43.164 -49.618  10.773  1.00  0.00     0.162 HD
BRANCH  12  15
HETATM   15  C   UNL     1     -43.515 -47.426   9.569  1.00  0.00     0.078 A 
HETATM   16  C   UNL     1     -43.566 -47.658   8.075  1.00  0.00     0.015 A 
HETATM   17  C   UNL     1     -43.487 -46.258   8.610  1.00  0.00     0.015 A 
ENDBRANCH  12  15
ENDBRANCH  10  11
ENDBRANCH   1  10
TORSDOF 5
ENDMDL
MODEL 4
REMARK VINA RESULT:      -5.0      2.910      6.169
REMARK  5 active torsions:
REMARK  status: ('A' for Active; 'I' for Inactive)
REMARK    1  A    between atoms: C_2  and  C_3 
REMARK    2  A    between atoms: C_6  and  C_7 
REMARK    3  A    between atoms: C_7  and  C_8 
REMARK    4  A    between atoms: C_8  and  N_9 
REMARK       I    between atoms: N_9  and  C_10 
REMARK    5  A    between atoms: C_10  and  C_12 
ROOT
HETATM    1  C   UNL     1     -40.617 -50.447  11.417  1.00  0.00     0.077 C 
ENDROOT
BRANCH   1   2
HETATM    2  C   UNL     1     -41.749 -51.035  12.196  1.00  0.00     0.018 A 
HETATM    3  N   UNL     1     -42.270 -52.264  11.826  1.00  0.00    -0.357 N 
HETATM    4  C   UNL     1     -43.246 -52.606  12.642  1.00  0.00     0.050 A 
ATOM      5  HN  UNL     1     -41.946 -52.822  11.037  1.00  0.00     0.166 HD
HETATM    6  S   UNL     1     -43.586 -51.483  13.898  1.00  0.00    -0.087 SA
HETATM    7  C   UNL     1     -42.338 -50.471  13.313  1.00  0.00     0.076 A 
BRANCH   4   8
HETATM    8  C   UNL     1     -44.022 -53.880  12.536  1.00  0.00     0.060 C 
HETATM    9  C   UNL     1     -44.330 -54.454  13.910  1.00  0.00     0.012 C 
ENDBRANCH   4   8
ENDBRANCH   1   2
BRANCH   1  10
HETATM   10  C   UNL     1     -40.694 -48.925  11.285  1.00  0.00     0.128 C 
BRANCH  10  11
HETATM   11  N   UNL     1     -41.463 -48.505  10.124  1.00  0.00    -0.360 N 
HETATM   12  C   UNL     1     -42.695 -47.915  10.255  1.00  0.00     0.221 C 
HETATM   13  O   UNL     1     -43.232 -47.659  11.324  1.00  0.00    -0.273 OA
HETATM   14  H   UNL     1     -41.075 -48.651   9.203  1.00  0.00     0.162 HD
BRANCH  12  15
HETATM   15  C   UNL     1     -43.338 -47.557   8.961  1.00  0.00     0.078 A 
HETATM   16  C   UNL     1     -43.780 -46.134   8.709  1.00  0.00     0.015 A 
HETATM   17  C   UNL     1     -44.808 -47.207   8.913  1.00  0.00     0.015 A 
ENDBRANCH  12  15
ENDBRANCH  10  11
ENDBRANCH   1  10
TORSDOF 5
ENDMDL
MODEL 5
REMARK VINA RESULT:      -5.0      2.741      3.024
REMARK  5 active torsions:
REMARK  status: ('A' for Active; 'I' for Inactive)
REMARK    1  A    between atoms: C_2  and  C_3 
REMARK    2  A    between atoms: C_6  and  C_7 
REMARK    3  A    between atoms: C_7  and  C_8 
REMARK    4  A    between atoms: C_8  and  N_9 
REMARK       I    between atoms: N_9  and  C_10 
REMARK    5  A    between atoms: C_10  and  C_12 
ROOT
HETATM    1  C   UNL     1     -42.604 -48.185  12.310  1.00  0.00     0.077 C 
ENDROOT
BRANCH   1   2
HETATM    2  C   UNL     1     -43.154 -47.895  10.950  1.00  0.00     0.018 A 
HETATM    3  N   UNL     1     -44.516 -47.700  10.789  1.00  0.00    -0.357 N 
HETATM    4  C   UNL     1     -44.791 -47.448   9.526  1.00  0.00     0.050 A 
ATOM      5  HN  UNL     1     -45.205 -47.744  11.539  1.00  0.00     0.166 HD
HETATM    6  S   UNL     1     -43.438 -47.423   8.466  1.00  0.00    -0.087 SA
HETATM    7  C   UNL     1     -42.412 -47.767   9.791  1.00  0.00     0.076 A 
BRANCH   4   8
HETATM    8  C   UNL     1     -46.167 -47.179   9.003  1.00  0.00     0.060 C 
HETATM    9  C   UNL     1     -46.953 -48.469   8.831  1.00  0.00     0.012 C 
ENDBRANCH   4   8
ENDBRANCH   1   2
BRANCH   1  10
HETATM   10  C   UNL     1     -42.465 -49.680  12.603  1.00  0.00     0.128 C 
BRANCH  10  11
HETATM   11  N   UNL     1     -43.740 -50.378  12.558  1.00  0.00    -0.360 N 
HETATM   12  C   UNL     1     -44.293 -50.936  13.683  1.00  0.00     0.221 C 
HETATM   13  O   UNL     1     -43.804 -50.868  14.802  1.00  0.00    -0.273 OA
HETATM   14  H   UNL     1     -44.225 -50.450  11.674  1.00  0.00     0.162 HD
BRANCH  12  15
HETATM   15  C   UNL     1     -45.596 -51.615  13.446  1.00  0.00     0.078 A 
HETATM   16  C   UNL     1     -46.762 -51.349  14.371  1.00  0.00     0.015 A 
HETATM   17  C   UNL     1     -46.079 -52.685  14.399  1.00  0.00     0.015 A 
ENDBRANCH  12  15
ENDBRANCH  10  11
ENDBRANCH   1  10
TORSDOF 5
ENDMDL
MODEL 6
REMARK VINA RESULT:      -5.0      2.997      6.426
REMARK  5 active torsions:
REMARK  status: ('A' for Active; 'I' for Inactive)
REMARK    1  A    between atoms: C_2  and  C_3 
REMARK    2  A    between atoms: C_6  and  C_7 
REMARK    3  A    between atoms: C_7  and  C_8 
REMARK    4  A    between atoms: C_8  and  N_9 
REMARK       I    between atoms: N_9  and  C_10 
REMARK    5  A    between atoms: C_10  and  C_12 
ROOT
HETATM    1  C   UNL     1     -42.325 -48.733  12.110  1.00  0.00     0.077 C 
ENDROOT
BRANCH   1   2
HETATM    2  C   UNL     1     -42.078 -50.205  12.185  1.00  0.00     0.018 A 
HETATM    3  N   UNL     1     -43.126 -51.062  12.481  1.00  0.00    -0.357 N 
HETATM    4  C   UNL     1     -42.703 -52.309  12.488  1.00  0.00     0.050 A 
ATOM      5  HN  UNL     1     -44.085 -50.769  12.667  1.00  0.00     0.166 HD
HETATM    6  S   UNL     1     -41.036 -52.526  12.133  1.00  0.00    -0.087 SA
HETATM    7  C   UNL     1     -40.869 -50.833  11.953  1.00  0.00     0.076 A 
BRANCH   4   8
HETATM    8  C   UNL     1     -43.578 -53.491  12.762  1.00  0.00     0.060 C 
HETATM    9  C   UNL     1     -43.122 -54.238  14.006  1.00  0.00     0.012 C 
ENDBRANCH   4   8
ENDBRANCH   1   2
BRANCH   1  10
HETATM   10  C   UNL     1     -42.176 -48.162  10.700  1.00  0.00     0.128 C 
BRANCH  10  11
HETATM   11  N   UNL     1     -43.411 -48.237   9.935  1.00  0.00    -0.360 N 
HETATM   12  C   UNL     1     -43.928 -47.137   9.298  1.00  0.00     0.221 C 
HETATM   13  O   UNL     1     -43.399 -46.034   9.279  1.00  0.00    -0.273 OA
HETATM   14  H   UNL     1     -43.894 -49.123   9.874  1.00  0.00     0.162 HD
BRANCH  12  15
HETATM   15  C   UNL     1     -45.200 -47.398   8.570  1.00  0.00     0.078 A 
HETATM   16  C   UNL     1     -46.511 -46.921   9.153  1.00  0.00     0.015 A 
HETATM   17  C   UNL     1     -46.201 -48.389   9.120  1.00  0.00     0.015 A 
ENDBRANCH  12  15
ENDBRANCH  10  11
ENDBRANCH   1  10
TORSDOF 5
ENDMDL
MODEL 7
REMARK VINA RESULT:      -4.8      3.268      4.614
REMARK  5 active torsions:
REMARK  status: ('A' for Active; 'I' for Inactive)
REMARK    1  A    between atoms: C_2  and  C_3 
REMARK    2  A    between atoms: C_6  and  C_7 
REMARK    3  A    between atoms: C_7  and  C_8 
REMARK    4  A    between atoms: C_8  and  N_9 
REMARK       I    between atoms: N_9  and  C_10 
REMARK    5  A    between atoms: C_10  and  C_12 
ROOT
HETATM    1  C   UNL     1     -41.590 -52.387  12.197  1.00  0.00     0.077 C 
ENDROOT
BRANCH   1   2
HETATM    2  C   UNL     1     -40.974 -51.047  11.946  1.00  0.00     0.018 A 
HETATM    3  N   UNL     1     -41.739 -50.036  11.388  1.00  0.00    -0.357 N 
HETATM    4  C   UNL     1     -41.018 -48.941  11.261  1.00  0.00     0.050 A 
ATOM      5  HN  UNL     1     -42.717 -50.126  11.115  1.00  0.00     0.166 HD
HETATM    6  S   UNL     1     -39.393 -49.058  11.809  1.00  0.00    -0.087 SA
HETATM    7  C   UNL     1     -39.675 -50.686  12.252  1.00  0.00     0.076 A 
BRANCH   4   8
HETATM    8  C   UNL     1     -41.536 -47.654  10.701  1.00  0.00     0.060 C 
HETATM    9  C   UNL     1     -43.055 -47.610  10.737  1.00  0.00     0.012 C 
ENDBRANCH   4   8
ENDBRANCH   1   2
BRANCH   1  10
HETATM   10  C   UNL     1     -42.285 -52.492  13.554  1.00  0.00     0.128 C 
BRANCH  10  11
HETATM   11  N   UNL     1     -43.735 -52.465  13.442  1.00  0.00    -0.360 N 
HETATM   12  C   UNL     1     -44.436 -51.286  13.480  1.00  0.00     0.221 C 
HETATM   13  O   UNL     1     -43.924 -50.179  13.570  1.00  0.00    -0.273 OA
HETATM   14  H   UNL     1     -44.232 -53.338  13.331  1.00  0.00     0.162 HD
BRANCH  12  15
HETATM   15  C   UNL     1     -45.909 -51.451  13.357  1.00  0.00     0.078 A 
HETATM   16  C   UNL     1     -46.780 -51.385  14.591  1.00  0.00     0.015 A 
HETATM   17  C   UNL     1     -46.582 -52.696  13.888  1.00  0.00     0.015 A 
ENDBRANCH  12  15
ENDBRANCH  10  11
ENDBRANCH   1  10
TORSDOF 5
ENDMDL
MODEL 8
REMARK VINA RESULT:      -4.7      4.370      6.342
REMARK  5 active torsions:
REMARK  status: ('A' for Active; 'I' for Inactive)
REMARK    1  A    between atoms: C_2  and  C_3 
REMARK    2  A    between atoms: C_6  and  C_7 
REMARK    3  A    between atoms: C_7  and  C_8 
REMARK    4  A    between atoms: C_8  and  N_9 
REMARK       I    between atoms: N_9  and  C_10 
REMARK    5  A    between atoms: C_10  and  C_12 
ROOT
HETATM    1  C   UNL     1     -41.854 -52.773  12.537  1.00  0.00     0.077 C 
ENDROOT
BRANCH   1   2
HETATM    2  C   UNL     1     -40.844 -51.736  12.911  1.00  0.00     0.018 A 
HETATM    3  N   UNL     1     -39.568 -51.797  12.374  1.00  0.00    -0.357 N 
HETATM    4  C   UNL     1     -38.841 -50.793  12.818  1.00  0.00     0.050 A 
ATOM      5  HN  UNL     1     -39.240 -52.515  11.728  1.00  0.00     0.166 HD
HETATM    6  S   UNL     1     -39.644 -49.719  13.893  1.00  0.00    -0.087 SA
HETATM    7  C   UNL     1     -41.065 -50.660  13.750  1.00  0.00     0.076 A 
BRANCH   4   8
HETATM    8  C   UNL     1     -37.417 -50.551  12.430  1.00  0.00     0.060 C 
HETATM    9  C   UNL     1     -37.321 -49.928  11.046  1.00  0.00     0.012 C 
ENDBRANCH   4   8
ENDBRANCH   1   2
BRANCH   1  10
HETATM   10  C   UNL     1     -42.587 -53.369  13.739  1.00  0.00     0.128 C 
BRANCH  10  11
HETATM   11  N   UNL     1     -43.944 -52.861  13.872  1.00  0.00    -0.360 N 
HETATM   12  C   UNL     1     -44.989 -53.414  13.176  1.00  0.00     0.221 C 
HETATM   13  O   UNL     1     -44.892 -54.381  12.432  1.00  0.00    -0.273 OA
HETATM   14  H   UNL     1     -44.114 -52.083  14.494  1.00  0.00     0.162 HD
BRANCH  12  15
HETATM   15  C   UNL     1     -46.302 -52.762  13.431  1.00  0.00     0.078 A 
HETATM   16  C   UNL     1     -46.737 -51.590  12.581  1.00  0.00     0.015 A 
HETATM   17  C   UNL     1     -46.358 -51.370  14.017  1.00  0.00     0.015 A 
ENDBRANCH  12  15
ENDBRANCH  10  11
ENDBRANCH   1  10
TORSDOF 5
ENDMDL
MODEL 9
REMARK VINA RESULT:      -4.6      2.116      2.472
REMARK  5 active torsions:
REMARK  status: ('A' for Active; 'I' for Inactive)
REMARK    1  A    between atoms: C_2  and  C_3 
REMARK    2  A    between atoms: C_6  and  C_7 
REMARK    3  A    between atoms: C_7  and  C_8 
REMARK    4  A    between atoms: C_8  and  N_9 
REMARK       I    between atoms: N_9  and  C_10 
REMARK    5  A    between atoms: C_10  and  C_12 
ROOT
HETATM    1  C   UNL     1     -43.178 -49.348  12.705  1.00  0.00     0.077 C 
ENDROOT
BRANCH   1   2
HETATM    2  C   UNL     1     -42.965 -48.163  11.819  1.00  0.00     0.018 A 
HETATM    3  N   UNL     1     -43.485 -48.165  10.535  1.00  0.00    -0.357 N 
HETATM    4  C   UNL     1     -43.197 -47.032   9.928  1.00  0.00     0.050 A 
ATOM      5  HN  UNL     1     -44.013 -48.932  10.120  1.00  0.00     0.166 HD
HETATM    6  S   UNL     1     -42.299 -45.901  10.861  1.00  0.00    -0.087 SA
HETATM    7  C   UNL     1     -42.299 -47.003  12.170  1.00  0.00     0.076 A 
BRANCH   4   8
HETATM    8  C   UNL     1     -43.616 -46.696   8.532  1.00  0.00     0.060 C 
HETATM    9  C   UNL     1     -43.487 -47.902   7.614  1.00  0.00     0.012 C 
ENDBRANCH   4   8
ENDBRANCH   1   2
BRANCH   1  10
HETATM   10  C   UNL     1     -42.184 -50.482  12.452  1.00  0.00     0.128 C 
BRANCH  10  11
HETATM   11  N   UNL     1     -42.835 -51.778  12.337  1.00  0.00    -0.360 N 
HETATM   12  C   UNL     1     -42.951 -52.621  13.414  1.00  0.00     0.221 C 
HETATM   13  O   UNL     1     -42.567 -52.357  14.545  1.00  0.00    -0.273 OA
HETATM   14  H   UNL     1     -43.209 -52.058  11.441  1.00  0.00     0.162 HD
BRANCH  12  15
HETATM   15  C   UNL     1     -43.639 -53.905  13.109  1.00  0.00     0.078 A 
HETATM   16  C   UNL     1     -45.123 -54.042  13.365  1.00  0.00     0.015 A 
HETATM   17  C   UNL     1     -44.146 -54.781  14.232  1.00  0.00     0.015 A 
ENDBRANCH  12  15
ENDBRANCH  10  11
ENDBRANCH   1  10
TORSDOF 5
ENDMDL
