MODEL 1
REMARK VINA RESULT:      -4.6      0.000      0.000
REMARK  1 active torsions:
REMARK  status: ('A' for Active; 'I' for Inactive)
REMARK    1  A    between atoms: C_5  and  C_7 
ROOT
HETATM    1  C   UNL     1     -46.027 -54.961  14.303  1.00  0.00     0.031 C 
HETATM    2  C   UNL     1     -46.837 -53.672  14.439  1.00  0.00     0.269 C 
HETATM    3  N   UNL     1     -46.667 -52.806  13.271  1.00  0.00     0.084 N 
HETATM    4  C   UNL     1     -45.251 -52.463  13.067  1.00  0.00     0.280 C 
HETATM    5  C   UNL     1     -44.378 -53.716  12.871  1.00  0.00     0.071 C 
HETATM    6  C   UNL     1     -44.547 -54.668  14.064  1.00  0.00     0.015 C 
HETATM    7  H   UNL     1     -47.198 -51.946  13.412  1.00  0.00     0.315 HD
ENDROOT
BRANCH   5   8
HETATM    8  C   UNL     1     -42.936 -53.327  12.684  1.00  0.00     0.056 A 
HETATM    9  N   UNL     1     -42.498 -52.494  11.763  1.00  0.00    -0.363 N 
HETATM   10  C   UNL     1     -41.125 -52.376  11.852  1.00  0.00     0.095 A 
ATOM     11  HN  UNL     1     -43.086 -52.009  11.084  1.00  0.00     0.165 HD
HETATM   12  C   UNL     1     -40.528 -53.124  12.841  1.00  0.00     0.068 A 
HETATM   13  S   UNL     1     -41.719 -54.002  13.702  1.00  0.00    -0.087 SA
ENDBRANCH   5   8
TORSDOF 1
ENDMDL
MODEL 2
REMARK VINA RESULT:      -4.2      1.813      2.187
REMARK  1 active torsions:
REMARK  status: ('A' for Active; 'I' for Inactive)
REMARK    1  A    between atoms: C_5  and  C_7 
ROOT
HETATM    1  C   UNL     1     -45.319 -54.621  13.728  1.00  0.00     0.031 C 
HETATM    2  C   UNL     1     -45.627 -53.215  13.214  1.00  0.00     0.269 C 
HETATM    3  N   UNL     1     -44.653 -52.787  12.208  1.00  0.00     0.084 N 
HETATM    4  C   UNL     1     -43.286 -52.810  12.750  1.00  0.00     0.280 C 
HETATM    5  C   UNL     1     -42.887 -54.213  13.243  1.00  0.00     0.071 C 
HETATM    6  C   UNL     1     -43.899 -54.714  14.283  1.00  0.00     0.015 C 
HETATM    7  H   UNL     1     -44.875 -51.836  11.911  1.00  0.00     0.315 HD
ENDROOT
BRANCH   5   8
HETATM    8  C   UNL     1     -41.491 -54.193  13.807  1.00  0.00     0.056 A 
HETATM    9  N   UNL     1     -40.392 -54.306  13.090  1.00  0.00    -0.363 N 
HETATM   10  C   UNL     1     -39.287 -54.273  13.918  1.00  0.00     0.095 A 
ATOM     11  HN  UNL     1     -40.361 -54.404  12.075  1.00  0.00     0.165 HD
HETATM   12  C   UNL     1     -39.555 -54.137  15.262  1.00  0.00     0.068 A 
HETATM   13  S   UNL     1     -41.247 -54.036  15.507  1.00  0.00    -0.087 SA
ENDBRANCH   5   8
TORSDOF 1
ENDMDL
MODEL 3
REMARK VINA RESULT:      -4.1      3.387      5.746
REMARK  1 active torsions:
REMARK  status: ('A' for Active; 'I' for Inactive)
REMARK    1  A    between atoms: C_5  and  C_7 
ROOT
HETATM    1  C   UNL     1     -46.361 -51.745  12.840  1.00  0.00     0.031 C 
HETATM    2  C   UNL     1     -45.504 -53.010  12.804  1.00  0.00     0.269 C 
HETATM    3  N   UNL     1     -46.081 -54.073  13.630  1.00  0.00     0.084 N 
HETATM    4  C   UNL     1     -46.232 -53.636  15.026  1.00  0.00     0.280 C 
HETATM    5  C   UNL     1     -47.128 -52.390  15.146  1.00  0.00     0.071 C 
HETATM    6  C   UNL     1     -46.573 -51.256  14.272  1.00  0.00     0.015 C 
HETATM    7  H   UNL     1     -45.467 -54.888  13.602  1.00  0.00     0.315 HD
ENDROOT
BRANCH   5   8
HETATM    8  C   UNL     1     -47.243 -51.963  16.584  1.00  0.00     0.056 A 
HETATM    9  N   UNL     1     -48.124 -51.096  17.040  1.00  0.00    -0.363 N 
HETATM   10  C   UNL     1     -47.941 -50.911  18.396  1.00  0.00     0.095 A 
ATOM     11  HN  UNL     1     -48.834 -50.630  16.475  1.00  0.00     0.165 HD
HETATM   12  C   UNL     1     -46.919 -51.639  18.963  1.00  0.00     0.068 A 
HETATM   13  S   UNL     1     -46.159 -52.598  17.766  1.00  0.00    -0.087 SA
ENDBRANCH   5   8
TORSDOF 1
ENDMDL
MODEL 4
REMARK VINA RESULT:      -3.9      1.568      1.954
REMARK  1 active torsions:
REMARK  status: ('A' for Active; 'I' for Inactive)
REMARK    1  A    between atoms: C_5  and  C_7 
ROOT
HETATM    1  C   UNL     1     -46.040 -51.587  14.757  1.00  0.00     0.031 C 
HETATM    2  C   UNL     1     -46.590 -51.474  13.335  1.00  0.00     0.269 C 
HETATM    3  N   UNL     1     -46.400 -52.718  12.586  1.00  0.00     0.084 N 
HETATM    4  C   UNL     1     -44.977 -53.086  12.522  1.00  0.00     0.280 C 
HETATM    5  C   UNL     1     -44.367 -53.268  13.923  1.00  0.00     0.071 C 
HETATM    6  C   UNL     1     -44.567 -51.993  14.755  1.00  0.00     0.015 C 
HETATM    7  H   UNL     1     -46.752 -52.594  11.637  1.00  0.00     0.315 HD
ENDROOT
BRANCH   5   8
HETATM    8  C   UNL     1     -42.908 -53.625  13.817  1.00  0.00     0.056 A 
HETATM    9  N   UNL     1     -42.260 -53.799  12.684  1.00  0.00    -0.363 N 
HETATM   10  C   UNL     1     -40.947 -54.141  12.942  1.00  0.00     0.095 A 
ATOM     11  HN  UNL     1     -42.667 -53.697  11.754  1.00  0.00     0.165 HD
HETATM   12  C   UNL     1     -40.606 -54.226  14.273  1.00  0.00     0.068 A 
HETATM   13  S   UNL     1     -41.968 -53.858  15.244  1.00  0.00    -0.087 SA
ENDBRANCH   5   8
TORSDOF 1
ENDMDL
MODEL 5
REMARK VINA RESULT:      -3.9      1.702      1.960
REMARK  1 active torsions:
REMARK  status: ('A' for Active; 'I' for Inactive)
REMARK    1  A    between atoms: C_5  and  C_7 
ROOT
HETATM    1  C   UNL     1     -45.572 -53.916  16.080  1.00  0.00     0.031 C 
HETATM    2  C   UNL     1     -46.624 -54.155  14.996  1.00  0.00     0.269 C 
HETATM    3  N   UNL     1     -46.146 -55.100  13.985  1.00  0.00     0.084 N 
HETATM    4  C   UNL     1     -44.907 -54.620  13.353  1.00  0.00     0.280 C 
HETATM    5  C   UNL     1     -43.783 -54.404  14.383  1.00  0.00     0.071 C 
HETATM    6  C   UNL     1     -44.252 -53.437  15.480  1.00  0.00     0.015 C 
HETATM    7  H   UNL     1     -46.862 -55.211  13.266  1.00  0.00     0.315 HD
ENDROOT
BRANCH   5   8
HETATM    8  C   UNL     1     -42.541 -53.895  13.703  1.00  0.00     0.056 A 
HETATM    9  N   UNL     1     -41.323 -54.341  13.937  1.00  0.00    -0.363 N 
HETATM   10  C   UNL     1     -40.413 -53.645  13.166  1.00  0.00     0.095 A 
ATOM     11  HN  UNL     1     -41.088 -55.088  14.591  1.00  0.00     0.165 HD
HETATM   12  C   UNL     1     -40.946 -52.672  12.351  1.00  0.00     0.068 A 
HETATM   13  S   UNL     1     -42.647 -52.624  12.543  1.00  0.00    -0.087 SA
ENDBRANCH   5   8
TORSDOF 1
ENDMDL
MODEL 6
REMARK VINA RESULT:      -3.9      4.569      6.709
REMARK  1 active torsions:
REMARK  status: ('A' for Active; 'I' for Inactive)
REMARK    1  A    between atoms: C_5  and  C_7 
ROOT
HETATM    1  C   UNL     1     -42.684 -46.437  10.222  1.00  0.00     0.031 C 
HETATM    2  C   UNL     1     -41.476 -45.617  10.674  1.00  0.00     0.269 C 
HETATM    3  N   UNL     1     -40.226 -46.357  10.488  1.00  0.00     0.084 N 
HETATM    4  C   UNL     1     -40.247 -47.627  11.229  1.00  0.00     0.280 C 
HETATM    5  C   UNL     1     -41.414 -48.530  10.789  1.00  0.00     0.071 C 
HETATM    6  C   UNL     1     -42.746 -47.782  10.942  1.00  0.00     0.015 C 
HETATM    7  H   UNL     1     -39.448 -45.789  10.827  1.00  0.00     0.315 HD
ENDROOT
BRANCH   5   8
HETATM    8  C   UNL     1     -41.414 -49.810  11.581  1.00  0.00     0.056 A 
HETATM    9  N   UNL     1     -40.765 -50.904  11.236  1.00  0.00    -0.363 N 
HETATM   10  C   UNL     1     -40.997 -51.898  12.166  1.00  0.00     0.095 A 
ATOM     11  HN  UNL     1     -40.180 -51.002  10.406  1.00  0.00     0.165 HD
HETATM   12  C   UNL     1     -41.823 -51.553  13.212  1.00  0.00     0.068 A 
HETATM   13  S   UNL     1     -42.326 -49.926  13.039  1.00  0.00    -0.087 SA
ENDBRANCH   5   8
TORSDOF 1
ENDMDL
MODEL 7
REMARK VINA RESULT:      -3.9      1.713      2.079
REMARK  1 active torsions:
REMARK  status: ('A' for Active; 'I' for Inactive)
REMARK    1  A    between atoms: C_5  and  C_7 
ROOT
HETATM    1  C   UNL     1     -46.010 -51.352  14.490  1.00  0.00     0.031 C 
HETATM    2  C   UNL     1     -46.718 -52.165  13.406  1.00  0.00     0.269 C 
HETATM    3  N   UNL     1     -45.946 -53.353  13.038  1.00  0.00     0.084 N 
HETATM    4  C   UNL     1     -44.603 -52.987  12.562  1.00  0.00     0.280 C 
HETATM    5  C   UNL     1     -43.810 -52.205  13.625  1.00  0.00     0.071 C 
HETATM    6  C   UNL     1     -44.597 -50.961  14.062  1.00  0.00     0.015 C 
HETATM    7  H   UNL     1     -46.435 -53.852  12.294  1.00  0.00     0.315 HD
ENDROOT
BRANCH   5   8
HETATM    8  C   UNL     1     -42.451 -51.832  13.096  1.00  0.00     0.056 A 
HETATM    9  N   UNL     1     -42.241 -51.076  12.038  1.00  0.00    -0.363 N 
HETATM   10  C   UNL     1     -40.885 -50.951  11.813  1.00  0.00     0.095 A 
ATOM     11  HN  UNL     1     -42.972 -50.649  11.468  1.00  0.00     0.165 HD
HETATM   12  C   UNL     1     -40.071 -51.615  12.703  1.00  0.00     0.068 A 
HETATM   13  S   UNL     1     -41.028 -52.420  13.872  1.00  0.00    -0.087 SA
ENDBRANCH   5   8
TORSDOF 1
ENDMDL
MODEL 8
REMARK VINA RESULT:      -3.9      5.767      7.080
REMARK  1 active torsions:
REMARK  status: ('A' for Active; 'I' for Inactive)
REMARK    1  A    between atoms: C_5  and  C_7 
ROOT
HETATM    1  C   UNL     1     -37.411 -50.710  12.139  1.00  0.00     0.031 C 
HETATM    2  C   UNL     1     -37.824 -51.019  13.578  1.00  0.00     0.269 C 
HETATM    3  N   UNL     1     -39.243 -51.372  13.664  1.00  0.00     0.084 N 
HETATM    4  C   UNL     1     -40.091 -50.289  13.144  1.00  0.00     0.280 C 
HETATM    5  C   UNL     1     -39.764 -49.958  11.676  1.00  0.00     0.071 C 
HETATM    6  C   UNL     1     -38.276 -49.606  11.534  1.00  0.00     0.015 C 
HETATM    7  H   UNL     1     -39.486 -51.542  14.641  1.00  0.00     0.315 HD
ENDROOT
BRANCH   5   8
HETATM    8  C   UNL     1     -40.637 -48.834  11.185  1.00  0.00     0.056 A 
HETATM    9  N   UNL     1     -41.738 -48.996  10.478  1.00  0.00    -0.363 N 
HETATM   10  C   UNL     1     -42.282 -47.764  10.172  1.00  0.00     0.095 A 
ATOM     11  HN  UNL     1     -42.128 -49.896  10.199  1.00  0.00     0.165 HD
HETATM   12  C   UNL     1     -41.590 -46.673  10.647  1.00  0.00     0.068 A 
HETATM   13  S   UNL     1     -40.211 -47.197  11.517  1.00  0.00    -0.087 SA
ENDBRANCH   5   8
TORSDOF 1
ENDMDL
MODEL 9
REMARK VINA RESULT:      -3.8      2.206      2.919
REMARK  1 active torsions:
REMARK  status: ('A' for Active; 'I' for Inactive)
REMARK    1  A    between atoms: C_5  and  C_7 
ROOT
HETATM    1  C   UNL     1     -43.333 -54.978  14.565  1.00  0.00     0.031 C 
HETATM    2  C   UNL     1     -44.454 -54.314  13.767  1.00  0.00     0.269 C 
HETATM    3  N   UNL     1     -44.012 -53.957  12.417  1.00  0.00     0.084 N 
HETATM    4  C   UNL     1     -42.854 -53.052  12.460  1.00  0.00     0.280 C 
HETATM    5  C   UNL     1     -41.663 -53.677  13.209  1.00  0.00     0.071 C 
HETATM    6  C   UNL     1     -42.090 -54.092  14.625  1.00  0.00     0.015 C 
HETATM    7  H   UNL     1     -44.778 -53.492  11.927  1.00  0.00     0.315 HD
ENDROOT
BRANCH   5   8
HETATM    8  C   UNL     1     -40.506 -52.716  13.249  1.00  0.00     0.056 A 
HETATM    9  N   UNL     1     -39.430 -52.869  13.994  1.00  0.00    -0.363 N 
HETATM   10  C   UNL     1     -38.578 -51.799  13.812  1.00  0.00     0.095 A 
ATOM     11  HN  UNL     1     -39.254 -53.661  14.614  1.00  0.00     0.165 HD
HETATM   12  C   UNL     1     -39.012 -50.836  12.929  1.00  0.00     0.068 A 
HETATM   13  S   UNL     1     -40.537 -51.282  12.292  1.00  0.00    -0.087 SA
ENDBRANCH   5   8
TORSDOF 1
ENDMDL
