MODEL 1
REMARK VINA RESULT:      -6.2      0.000      0.000
REMARK  7 active torsions:
REMARK  status: ('A' for Active; 'I' for Inactive)
REMARK    1  A    between atoms: N_4  and  C_5 
REMARK    2  A    between atoms: C_5  and  C_6 
REMARK    3  A    between atoms: C_6  and  O_7 
REMARK    4  A    between atoms: O_7  and  C_8 
REMARK    5  A    between atoms: C_11  and  C_12 
REMARK    6  A    between atoms: C_12  and  C_13 
REMARK    7  A    between atoms: C_13  and  N_14 
ROOT
HETATM    1  C   UNL     1     -42.565 -49.176  13.435  1.00  0.00     0.196 C 
ENDROOT
BRANCH   1   2
HETATM    2  C   UNL     1     -41.539 -48.839  12.350  1.00  0.00     0.160 C 
BRANCH   2   3
HETATM    3  N   UNL     1     -42.056 -47.940  11.312  1.00  0.00    -0.306 N 
HETATM    4  C   UNL     1     -43.370 -48.067  10.900  1.00  0.00     0.125 A 
HETATM    5  C   UNL     1     -43.921 -47.240  10.004  1.00  0.00     0.117 A 
HETATM    6 CL   UNL     1     -45.557 -47.384   9.518  1.00  0.00    -0.077 Cl
HETATM    7  C   UNL     1     -43.087 -46.150   9.441  1.00  0.00     0.272 A 
HETATM    8  N   UNL     1     -41.774 -46.150   9.840  1.00  0.00    -0.274 N 
HETATM    9  O   UNL     1     -43.521 -45.297   8.676  1.00  0.00    -0.266 OA
HETATM   10  C   UNL     1     -41.205 -46.983  10.770  1.00  0.00     0.329 A 
HETATM   11  H   UNL     1     -41.186 -45.424   9.467  1.00  0.00     0.173 HD
HETATM   12  O   UNL     1     -40.024 -46.861  11.082  1.00  0.00    -0.246 OA
ENDBRANCH   2   3
ENDBRANCH   1   2
BRANCH   1  13
HETATM   13  O   UNL     1     -43.071 -50.503  13.239  1.00  0.00    -0.350 OA
BRANCH  13  14
HETATM   14  C   UNL     1     -44.241 -50.798  13.892  1.00  0.00     0.068 A 
HETATM   15  C   UNL     1     -45.406 -51.277  13.290  1.00  0.00     0.037 A 
HETATM   16  C   UNL     1     -46.551 -51.521  14.053  1.00  0.00     0.011 A 
HETATM   17  C   UNL     1     -46.554 -51.286  15.433  1.00  0.00    -0.046 A 
HETATM   18  C   UNL     1     -45.373 -50.839  16.042  1.00  0.00     0.011 A 
HETATM   19  C   UNL     1     -44.227 -50.597  15.274  1.00  0.00     0.037 A 
BRANCH  17  20
HETATM   20  C   UNL     1     -47.803 -51.547  16.239  1.00  0.00     0.142 C 
BRANCH  20  21
HETATM   21  C   UNL     1     -47.920 -50.593  17.417  1.00  0.00    -0.073 C 
BRANCH  21  22
HETATM   22  N   UNL     1     -48.016 -49.801  18.393  1.00  0.00    -0.369 N 
ATOM     23  HN2 UNL     1     -47.948 -50.474  17.630  1.00  0.00     0.165 HD
ATOM     24  HN1 UNL     1     -48.094 -49.160  19.182  1.00  0.00     0.165 HD
ENDBRANCH  21  22
ENDBRANCH  20  21
ENDBRANCH  17  20
ENDBRANCH  13  14
ENDBRANCH   1  13
TORSDOF 7
ENDMDL
MODEL 2
REMARK VINA RESULT:      -6.2      2.869      3.373
REMARK  7 active torsions:
REMARK  status: ('A' for Active; 'I' for Inactive)
REMARK    1  A    between atoms: N_4  and  C_5 
REMARK    2  A    between atoms: C_5  and  C_6 
REMARK    3  A    between atoms: C_6  and  O_7 
REMARK    4  A    between atoms: O_7  and  C_8 
REMARK    5  A    between atoms: C_11  and  C_12 
REMARK    6  A    between atoms: C_12  and  C_13 
REMARK    7  A    between atoms: C_13  and  N_14 
ROOT
HETATM    1  C   UNL     1     -41.343 -49.610  12.203  1.00  0.00     0.196 C 
ENDROOT
BRANCH   1   2
HETATM    2  C   UNL     1     -40.558 -48.556  11.420  1.00  0.00     0.160 C 
BRANCH   2   3
HETATM    3  N   UNL     1     -41.411 -47.585  10.725  1.00  0.00    -0.306 N 
HETATM    4  C   UNL     1     -42.677 -47.965  10.318  1.00  0.00     0.125 A 
HETATM    5  C   UNL     1     -43.527 -47.112   9.737  1.00  0.00     0.117 A 
HETATM    6 CL   UNL     1     -45.104 -47.581   9.260  1.00  0.00    -0.077 Cl
HETATM    7  C   UNL     1     -43.090 -45.710   9.528  1.00  0.00     0.272 A 
HETATM    8  N   UNL     1     -41.791 -45.441   9.882  1.00  0.00    -0.274 N 
HETATM    9  O   UNL     1     -43.821 -44.837   9.076  1.00  0.00    -0.266 OA
HETATM   10  C   UNL     1     -40.919 -46.305  10.494  1.00  0.00     0.329 A 
HETATM   11  H   UNL     1     -41.469 -44.498   9.744  1.00  0.00     0.173 HD
HETATM   12  O   UNL     1     -39.789 -45.939  10.806  1.00  0.00    -0.246 OA
ENDBRANCH   2   3
ENDBRANCH   1   2
BRANCH   1  13
HETATM   13  O   UNL     1     -41.053 -50.919  11.694  1.00  0.00    -0.350 OA
BRANCH  13  14
HETATM   14  C   UNL     1     -41.624 -51.965  12.376  1.00  0.00     0.068 A 
HETATM   15  C   UNL     1     -41.048 -53.224  12.554  1.00  0.00     0.037 A 
HETATM   16  C   UNL     1     -41.734 -54.225  13.248  1.00  0.00     0.011 A 
HETATM   17  C   UNL     1     -43.010 -53.988  13.771  1.00  0.00    -0.046 A 
HETATM   18  C   UNL     1     -43.571 -52.712  13.622  1.00  0.00     0.011 A 
HETATM   19  C   UNL     1     -42.881 -51.710  12.927  1.00  0.00     0.037 A 
BRANCH  17  20
HETATM   20  C   UNL     1     -43.738 -55.084  14.510  1.00  0.00     0.142 C 
BRANCH  20  21
HETATM   21  C   UNL     1     -45.245 -54.968  14.342  1.00  0.00    -0.073 C 
BRANCH  21  22
HETATM   22  N   UNL     1     -46.494 -54.872  14.204  1.00  0.00    -0.369 N 
ATOM     23  HN2 UNL     1     -45.479 -54.910  14.301  1.00  0.00     0.165 HD
ATOM     24  HN1 UNL     1     -47.505 -54.796  14.092  1.00  0.00     0.165 HD
ENDBRANCH  21  22
ENDBRANCH  20  21
ENDBRANCH  17  20
ENDBRANCH  13  14
ENDBRANCH   1  13
TORSDOF 7
ENDMDL
MODEL 3
REMARK VINA RESULT:      -6.2      4.802      8.189
REMARK  7 active torsions:
REMARK  status: ('A' for Active; 'I' for Inactive)
REMARK    1  A    between atoms: N_4  and  C_5 
REMARK    2  A    between atoms: C_5  and  C_6 
REMARK    3  A    between atoms: C_6  and  O_7 
REMARK    4  A    between atoms: O_7  and  C_8 
REMARK    5  A    between atoms: C_11  and  C_12 
REMARK    6  A    between atoms: C_12  and  C_13 
REMARK    7  A    between atoms: C_13  and  N_14 
ROOT
HETATM    1  C   UNL     1     -41.872 -54.581  14.878  1.00  0.00     0.196 C 
ENDROOT
BRANCH   1   2
HETATM    2  C   UNL     1     -43.292 -55.102  15.107  1.00  0.00     0.160 C 
BRANCH   2   3
HETATM    3  N   UNL     1     -44.331 -54.088  14.896  1.00  0.00    -0.306 N 
HETATM    4  C   UNL     1     -44.257 -52.890  15.584  1.00  0.00     0.125 A 
HETATM    5  C   UNL     1     -45.136 -51.900  15.391  1.00  0.00     0.117 A 
HETATM    6 CL   UNL     1     -45.024 -50.408  16.225  1.00  0.00    -0.077 Cl
HETATM    7  C   UNL     1     -46.222 -52.101  14.401  1.00  0.00     0.272 A 
HETATM    8  N   UNL     1     -46.271 -53.348  13.829  1.00  0.00    -0.274 N 
HETATM    9  O   UNL     1     -47.027 -51.229  14.098  1.00  0.00    -0.266 OA
HETATM   10  C   UNL     1     -45.365 -54.362  14.008  1.00  0.00     0.329 A 
HETATM   11  H   UNL     1     -47.003 -53.511  13.158  1.00  0.00     0.173 HD
HETATM   12  O   UNL     1     -45.487 -55.426  13.406  1.00  0.00    -0.246 OA
ENDBRANCH   2   3
ENDBRANCH   1   2
BRANCH   1  13
HETATM   13  O   UNL     1     -41.683 -54.257  13.494  1.00  0.00    -0.350 OA
BRANCH  13  14
HETATM   14  C   UNL     1     -40.858 -53.190  13.237  1.00  0.00     0.068 A 
HETATM   15  C   UNL     1     -41.093 -52.197  12.285  1.00  0.00     0.037 A 
HETATM   16  C   UNL     1     -40.168 -51.167  12.092  1.00  0.00     0.011 A 
HETATM   17  C   UNL     1     -38.988 -51.115  12.843  1.00  0.00    -0.046 A 
HETATM   18  C   UNL     1     -38.771 -52.094  13.823  1.00  0.00     0.011 A 
HETATM   19  C   UNL     1     -39.701 -53.123  14.015  1.00  0.00     0.037 A 
BRANCH  17  20
HETATM   20  C   UNL     1     -37.997 -50.000  12.614  1.00  0.00     0.142 C 
BRANCH  20  21
HETATM   21  C   UNL     1     -37.464 -50.007  11.190  1.00  0.00    -0.073 C 
BRANCH  21  22
HETATM   22  N   UNL     1     -37.023 -50.012  10.009  1.00  0.00    -0.369 N 
ATOM     23  HN2 UNL     1     -37.388 -49.967  10.960  1.00  0.00     0.165 HD
ATOM     24  HN1 UNL     1     -36.666 -50.018   9.053  1.00  0.00     0.165 HD
ENDBRANCH  21  22
ENDBRANCH  20  21
ENDBRANCH  17  20
ENDBRANCH  13  14
ENDBRANCH   1  13
TORSDOF 7
ENDMDL
MODEL 4
REMARK VINA RESULT:      -6.1      6.807     11.109
REMARK  7 active torsions:
REMARK  status: ('A' for Active; 'I' for Inactive)
REMARK    1  A    between atoms: N_4  and  C_5 
REMARK    2  A    between atoms: C_5  and  C_6 
REMARK    3  A    between atoms: C_6  and  O_7 
REMARK    4  A    between atoms: O_7  and  C_8 
REMARK    5  A    between atoms: C_11  and  C_12 
REMARK    6  A    between atoms: C_12  and  C_13 
REMARK    7  A    between atoms: C_13  and  N_14 
ROOT
HETATM    1  C   UNL     1     -46.339 -54.131  18.991  1.00  0.00     0.196 C 
ENDROOT
BRANCH   1   2
HETATM    2  C   UNL     1     -46.212 -55.221  20.056  1.00  0.00     0.160 C 
BRANCH   2   3
HETATM    3  N   UNL     1     -47.314 -56.189  20.042  1.00  0.00    -0.306 N 
HETATM    4  C   UNL     1     -48.599 -55.754  20.317  1.00  0.00     0.125 A 
HETATM    5  C   UNL     1     -49.657 -56.571  20.260  1.00  0.00     0.117 A 
HETATM    6 CL   UNL     1     -51.249 -56.022  20.574  1.00  0.00    -0.077 Cl
HETATM    7  C   UNL     1     -49.437 -57.989  19.883  1.00  0.00     0.272 A 
HETATM    8  N   UNL     1     -48.125 -58.353  19.711  1.00  0.00    -0.274 N 
HETATM    9  O   UNL     1     -50.347 -58.794  19.728  1.00  0.00    -0.266 OA
HETATM   10  C   UNL     1     -47.036 -57.519  19.752  1.00  0.00     0.329 A 
HETATM   11  H   UNL     1     -47.949 -59.312  19.461  1.00  0.00     0.173 HD
HETATM   12  O   UNL     1     -45.907 -57.952  19.538  1.00  0.00    -0.246 OA
ENDBRANCH   2   3
ENDBRANCH   1   2
BRANCH   1  13
HETATM   13  O   UNL     1     -46.080 -54.679  17.692  1.00  0.00    -0.350 OA
BRANCH  13  14
HETATM   14  C   UNL     1     -46.040 -53.775  16.659  1.00  0.00     0.068 A 
HETATM   15  C   UNL     1     -46.048 -52.386  16.798  1.00  0.00     0.037 A 
HETATM   16  C   UNL     1     -46.029 -51.560  15.671  1.00  0.00     0.011 A 
HETATM   17  C   UNL     1     -46.008 -52.108  14.384  1.00  0.00    -0.046 A 
HETATM   18  C   UNL     1     -45.964 -53.502  14.246  1.00  0.00     0.011 A 
HETATM   19  C   UNL     1     -45.982 -54.327  15.378  1.00  0.00     0.037 A 
BRANCH  17  20
HETATM   20  C   UNL     1     -45.996 -51.200  13.178  1.00  0.00     0.142 C 
BRANCH  20  21
HETATM   21  C   UNL     1     -46.809 -51.780  12.031  1.00  0.00    -0.073 C 
BRANCH  21  22
HETATM   22  N   UNL     1     -47.484 -52.261  11.081  1.00  0.00    -0.369 N 
ATOM     23  HN2 UNL     1     -46.964 -51.891  11.878  1.00  0.00     0.165 HD
ATOM     24  HN1 UNL     1     -48.029 -52.649  10.312  1.00  0.00     0.165 HD
ENDBRANCH  21  22
ENDBRANCH  20  21
ENDBRANCH  17  20
ENDBRANCH  13  14
ENDBRANCH   1  13
TORSDOF 7
ENDMDL
MODEL 5
REMARK VINA RESULT:      -6.1      3.797      6.880
REMARK  7 active torsions:
REMARK  status: ('A' for Active; 'I' for Inactive)
REMARK    1  A    between atoms: N_4  and  C_5 
REMARK    2  A    between atoms: C_5  and  C_6 
REMARK    3  A    between atoms: C_6  and  O_7 
REMARK    4  A    between atoms: O_7  and  C_8 
REMARK    5  A    between atoms: C_11  and  C_12 
REMARK    6  A    between atoms: C_12  and  C_13 
REMARK    7  A    between atoms: C_13  and  N_14 
ROOT
HETATM    1  C   UNL     1     -40.886 -49.833  14.609  1.00  0.00     0.196 C 
ENDROOT
BRANCH   1   2
HETATM    2  C   UNL     1     -40.533 -51.136  13.890  1.00  0.00     0.160 C 
BRANCH   2   3
HETATM    3  N   UNL     1     -41.703 -51.945  13.531  1.00  0.00    -0.306 N 
HETATM    4  C   UNL     1     -42.969 -51.464  13.811  1.00  0.00     0.125 A 
HETATM    5  C   UNL     1     -44.079 -52.121  13.455  1.00  0.00     0.117 A 
HETATM    6 CL   UNL     1     -45.645 -51.508  13.780  1.00  0.00    -0.077 Cl
HETATM    7  C   UNL     1     -43.936 -53.408  12.730  1.00  0.00     0.272 A 
HETATM    8  N   UNL     1     -42.647 -53.851  12.570  1.00  0.00    -0.274 N 
HETATM    9  O   UNL     1     -44.888 -54.044  12.294  1.00  0.00    -0.266 OA
HETATM   10  C   UNL     1     -41.505 -53.177  12.917  1.00  0.00     0.329 A 
HETATM   11  H   UNL     1     -42.525 -54.725  12.086  1.00  0.00     0.173 HD
HETATM   12  O   UNL     1     -40.398 -53.655  12.683  1.00  0.00    -0.246 OA
ENDBRANCH   2   3
ENDBRANCH   1   2
BRANCH   1  13
HETATM   13  O   UNL     1     -40.419 -48.710  13.850  1.00  0.00    -0.350 OA
BRANCH  13  14
HETATM   14  C   UNL     1     -41.180 -48.367  12.761  1.00  0.00     0.068 A 
HETATM   15  C   UNL     1     -40.782 -48.478  11.428  1.00  0.00     0.037 A 
HETATM   16  C   UNL     1     -41.634 -48.073  10.396  1.00  0.00     0.011 A 
HETATM   17  C   UNL     1     -42.898 -47.544  10.679  1.00  0.00    -0.046 A 
HETATM   18  C   UNL     1     -43.310 -47.466  12.017  1.00  0.00     0.011 A 
HETATM   19  C   UNL     1     -42.454 -47.874  13.048  1.00  0.00     0.037 A 
BRANCH  17  20
HETATM   20  C   UNL     1     -43.801 -47.104   9.553  1.00  0.00     0.142 C 
BRANCH  20  21
HETATM   21  C   UNL     1     -43.406 -47.748   8.233  1.00  0.00    -0.073 C 
BRANCH  21  22
HETATM   22  N   UNL     1     -43.078 -48.281   7.139  1.00  0.00    -0.369 N 
ATOM     23  HN2 UNL     1     -43.353 -47.814   8.003  1.00  0.00     0.165 HD
ATOM     24  HN1 UNL     1     -42.813 -48.713   6.254  1.00  0.00     0.165 HD
ENDBRANCH  21  22
ENDBRANCH  20  21
ENDBRANCH  17  20
ENDBRANCH  13  14
ENDBRANCH   1  13
TORSDOF 7
ENDMDL
MODEL 6
REMARK VINA RESULT:      -6.1      2.576      2.914
REMARK  7 active torsions:
REMARK  status: ('A' for Active; 'I' for Inactive)
REMARK    1  A    between atoms: N_4  and  C_5 
REMARK    2  A    between atoms: C_5  and  C_6 
REMARK    3  A    between atoms: C_6  and  O_7 
REMARK    4  A    between atoms: O_7  and  C_8 
REMARK    5  A    between atoms: C_11  and  C_12 
REMARK    6  A    between atoms: C_12  and  C_13 
REMARK    7  A    between atoms: C_13  and  N_14 
ROOT
HETATM    1  C   UNL     1     -40.795 -48.982  13.029  1.00  0.00     0.196 C 
ENDROOT
BRANCH   1   2
HETATM    2  C   UNL     1     -40.295 -48.570  11.642  1.00  0.00     0.160 C 
BRANCH   2   3
HETATM    3  N   UNL     1     -41.199 -47.651  10.941  1.00  0.00    -0.306 N 
HETATM    4  C   UNL     1     -42.506 -48.039  10.702  1.00  0.00     0.125 A 
HETATM    5  C   UNL     1     -43.398 -47.227  10.125  1.00  0.00     0.117 A 
HETATM    6 CL   UNL     1     -45.022 -47.702   9.856  1.00  0.00    -0.077 Cl
HETATM    7  C   UNL     1     -42.964 -45.863   9.733  1.00  0.00     0.272 A 
HETATM    8  N   UNL     1     -41.633 -45.593   9.929  1.00  0.00    -0.274 N 
HETATM    9  O   UNL     1     -43.724 -45.021   9.271  1.00  0.00    -0.266 OA
HETATM   10  C   UNL     1     -40.715 -46.413  10.535  1.00  0.00     0.329 A 
HETATM   11  H   UNL     1     -41.312 -44.676   9.666  1.00  0.00     0.173 HD
HETATM   12  O   UNL     1     -39.555 -46.045  10.696  1.00  0.00    -0.246 OA
ENDBRANCH   2   3
ENDBRANCH   1   2
BRANCH   1  13
HETATM   13  O   UNL     1     -40.796 -50.410  13.147  1.00  0.00    -0.350 OA
BRANCH  13  14
HETATM   14  C   UNL     1     -42.026 -51.016  13.070  1.00  0.00     0.068 A 
HETATM   15  C   UNL     1     -42.270 -52.290  12.556  1.00  0.00     0.037 A 
HETATM   16  C   UNL     1     -43.572 -52.797  12.505  1.00  0.00     0.011 A 
HETATM   17  C   UNL     1     -44.654 -52.036  12.962  1.00  0.00    -0.046 A 
HETATM   18  C   UNL     1     -44.402 -50.771  13.512  1.00  0.00     0.011 A 
HETATM   19  C   UNL     1     -43.097 -50.267  13.562  1.00  0.00     0.037 A 
BRANCH  17  20
HETATM   20  C   UNL     1     -46.053 -52.597  12.891  1.00  0.00     0.142 C 
BRANCH  20  21
HETATM   21  C   UNL     1     -46.853 -51.968  11.761  1.00  0.00    -0.073 C 
BRANCH  21  22
HETATM   22  N   UNL     1     -47.515 -51.448  10.824  1.00  0.00    -0.369 N 
ATOM     23  HN2 UNL     1     -47.006 -51.902  11.582  1.00  0.00     0.165 HD
ATOM     24  HN1 UNL     1     -48.051 -51.027  10.065  1.00  0.00     0.165 HD
ENDBRANCH  21  22
ENDBRANCH  20  21
ENDBRANCH  17  20
ENDBRANCH  13  14
ENDBRANCH   1  13
TORSDOF 7
ENDMDL
MODEL 7
REMARK VINA RESULT:      -6.0      3.840      4.782
REMARK  7 active torsions:
REMARK  status: ('A' for Active; 'I' for Inactive)
REMARK    1  A    between atoms: N_4  and  C_5 
REMARK    2  A    between atoms: C_5  and  C_6 
REMARK    3  A    between atoms: C_6  and  O_7 
REMARK    4  A    between atoms: O_7  and  C_8 
REMARK    5  A    between atoms: C_11  and  C_12 
REMARK    6  A    between atoms: C_12  and  C_13 
REMARK    7  A    between atoms: C_13  and  N_14 
ROOT
HETATM    1  C   UNL     1     -38.834 -52.191  14.400  1.00  0.00     0.196 C 
ENDROOT
BRANCH   1   2
HETATM    2  C   UNL     1     -37.986 -50.995  13.964  1.00  0.00     0.160 C 
BRANCH   2   3
HETATM    3  N   UNL     1     -38.723 -50.014  13.159  1.00  0.00    -0.306 N 
HETATM    4  C   UNL     1     -39.844 -49.405  13.695  1.00  0.00     0.125 A 
HETATM    5  C   UNL     1     -40.525 -48.458  13.040  1.00  0.00     0.117 A 
HETATM    6 CL   UNL     1     -41.896 -47.688  13.719  1.00  0.00    -0.077 Cl
HETATM    7  C   UNL     1     -40.052 -48.051  11.694  1.00  0.00     0.272 A 
HETATM    8  N   UNL     1     -38.987 -48.765  11.205  1.00  0.00    -0.274 N 
HETATM    9  O   UNL     1     -40.560 -47.141  11.049  1.00  0.00    -0.266 OA
HETATM   10  C   UNL     1     -38.273 -49.725  11.876  1.00  0.00     0.329 A 
HETATM   11  H   UNL     1     -38.651 -48.511  10.291  1.00  0.00     0.173 HD
HETATM   12  O   UNL     1     -37.306 -50.269  11.351  1.00  0.00    -0.246 OA
ENDBRANCH   2   3
ENDBRANCH   1   2
BRANCH   1  13
HETATM   13  O   UNL     1     -39.358 -52.869  13.251  1.00  0.00    -0.350 OA
BRANCH  13  14
HETATM   14  C   UNL     1     -40.698 -53.164  13.291  1.00  0.00     0.068 A 
HETATM   15  C   UNL     1     -41.303 -54.063  14.170  1.00  0.00     0.037 A 
HETATM   16  C   UNL     1     -42.678 -54.305  14.104  1.00  0.00     0.011 A 
HETATM   17  C   UNL     1     -43.473 -53.656  13.153  1.00  0.00    -0.046 A 
HETATM   18  C   UNL     1     -42.870 -52.727  12.293  1.00  0.00     0.011 A 
HETATM   19  C   UNL     1     -41.492 -52.486  12.364  1.00  0.00     0.037 A 
BRANCH  17  20
HETATM   20  C   UNL     1     -44.954 -53.937  13.090  1.00  0.00     0.142 C 
BRANCH  20  21
HETATM   21  C   UNL     1     -45.726 -52.753  12.529  1.00  0.00    -0.073 C 
BRANCH  21  22
HETATM   22  N   UNL     1     -46.365 -51.771  12.065  1.00  0.00    -0.369 N 
ATOM     23  HN2 UNL     1     -45.885 -52.587  12.444  1.00  0.00     0.165 HD
ATOM     24  HN1 UNL     1     -46.882 -50.976  11.689  1.00  0.00     0.165 HD
ENDBRANCH  21  22
ENDBRANCH  20  21
ENDBRANCH  17  20
ENDBRANCH  13  14
ENDBRANCH   1  13
TORSDOF 7
ENDMDL
MODEL 8
REMARK VINA RESULT:      -5.8      4.737      7.480
REMARK  7 active torsions:
REMARK  status: ('A' for Active; 'I' for Inactive)
REMARK    1  A    between atoms: N_4  and  C_5 
REMARK    2  A    between atoms: C_5  and  C_6 
REMARK    3  A    between atoms: C_6  and  O_7 
REMARK    4  A    between atoms: O_7  and  C_8 
REMARK    5  A    between atoms: C_11  and  C_12 
REMARK    6  A    between atoms: C_12  and  C_13 
REMARK    7  A    between atoms: C_13  and  N_14 
ROOT
HETATM    1  C   UNL     1     -39.890 -52.904  15.128  1.00  0.00     0.196 C 
ENDROOT
BRANCH   1   2
HETATM    2  C   UNL     1     -40.159 -53.766  13.893  1.00  0.00     0.160 C 
BRANCH   2   3
HETATM    3  N   UNL     1     -41.524 -53.636  13.371  1.00  0.00    -0.306 N 
HETATM    4  C   UNL     1     -42.534 -54.407  13.918  1.00  0.00     0.125 A 
HETATM    5  C   UNL     1     -43.809 -54.292  13.532  1.00  0.00     0.117 A 
HETATM    6 CL   UNL     1     -45.061 -55.229  14.231  1.00  0.00    -0.077 Cl
HETATM    7  C   UNL     1     -44.144 -53.298  12.482  1.00  0.00     0.272 A 
HETATM    8  N   UNL     1     -43.071 -52.639  11.935  1.00  0.00    -0.274 N 
HETATM    9  O   UNL     1     -45.290 -53.064  12.117  1.00  0.00    -0.266 OA
HETATM   10  C   UNL     1     -41.764 -52.738  12.337  1.00  0.00     0.329 A 
HETATM   11  H   UNL     1     -43.272 -51.963  11.217  1.00  0.00     0.173 HD
HETATM   12  O   UNL     1     -40.890 -52.062  11.800  1.00  0.00    -0.246 OA
ENDBRANCH   2   3
ENDBRANCH   1   2
BRANCH   1  13
HETATM   13  O   UNL     1     -38.730 -52.089  14.917  1.00  0.00    -0.350 OA
BRANCH  13  14
HETATM   14  C   UNL     1     -38.967 -50.822  14.445  1.00  0.00     0.068 A 
HETATM   15  C   UNL     1     -40.153 -50.106  14.610  1.00  0.00     0.037 A 
HETATM   16  C   UNL     1     -40.292 -48.827  14.064  1.00  0.00     0.011 A 
HETATM   17  C   UNL     1     -39.249 -48.243  13.336  1.00  0.00    -0.046 A 
HETATM   18  C   UNL     1     -38.045 -48.950  13.201  1.00  0.00     0.011 A 
HETATM   19  C   UNL     1     -37.909 -50.230  13.752  1.00  0.00     0.037 A 
BRANCH  17  20
HETATM   20  C   UNL     1     -39.421 -46.865  12.746  1.00  0.00     0.142 C 
BRANCH  20  21
HETATM   21  C   UNL     1     -40.220 -46.904  11.453  1.00  0.00    -0.073 C 
BRANCH  21  22
HETATM   22  N   UNL     1     -40.884 -46.937  10.382  1.00  0.00    -0.369 N 
ATOM     23  HN2 UNL     1     -40.361 -46.870  11.255  1.00  0.00     0.165 HD
ATOM     24  HN1 UNL     1     -41.420 -46.965   9.515  1.00  0.00     0.165 HD
ENDBRANCH  21  22
ENDBRANCH  20  21
ENDBRANCH  17  20
ENDBRANCH  13  14
ENDBRANCH   1  13
TORSDOF 7
ENDMDL
MODEL 9
REMARK VINA RESULT:      -5.7      3.754      4.190
REMARK  7 active torsions:
REMARK  status: ('A' for Active; 'I' for Inactive)
REMARK    1  A    between atoms: N_4  and  C_5 
REMARK    2  A    between atoms: C_5  and  C_6 
REMARK    3  A    between atoms: C_6  and  O_7 
REMARK    4  A    between atoms: O_7  and  C_8 
REMARK    5  A    between atoms: C_11  and  C_12 
REMARK    6  A    between atoms: C_12  and  C_13 
REMARK    7  A    between atoms: C_13  and  N_14 
ROOT
HETATM    1  C   UNL     1     -40.754 -49.776  12.362  1.00  0.00     0.196 C 
ENDROOT
BRANCH   1   2
HETATM    2  C   UNL     1     -40.740 -49.161  10.962  1.00  0.00     0.160 C 
BRANCH   2   3
HETATM    3  N   UNL     1     -40.962 -47.710  10.955  1.00  0.00    -0.306 N 
HETATM    4  C   UNL     1     -40.089 -46.890  11.647  1.00  0.00     0.125 A 
HETATM    5  C   UNL     1     -40.197 -45.556  11.630  1.00  0.00     0.117 A 
HETATM    6 CL   UNL     1     -39.097 -44.543  12.466  1.00  0.00    -0.077 Cl
HETATM    7  C   UNL     1     -41.292 -44.945  10.837  1.00  0.00     0.272 A 
HETATM    8  N   UNL     1     -42.160 -45.833  10.254  1.00  0.00    -0.274 N 
HETATM    9  O   UNL     1     -41.427 -43.735  10.697  1.00  0.00    -0.266 OA
HETATM   10  C   UNL     1     -42.047 -47.200  10.252  1.00  0.00     0.329 A 
HETATM   11  H   UNL     1     -42.915 -45.443   9.716  1.00  0.00     0.173 HD
HETATM   12  O   UNL     1     -42.865 -47.896   9.656  1.00  0.00    -0.246 OA
ENDBRANCH   2   3
ENDBRANCH   1   2
BRANCH   1  13
HETATM   13  O   UNL     1     -40.255 -51.119  12.315  1.00  0.00    -0.350 OA
BRANCH  13  14
HETATM   14  C   UNL     1     -41.103 -52.089  12.787  1.00  0.00     0.068 A 
HETATM   15  C   UNL     1     -42.366 -52.382  12.269  1.00  0.00     0.037 A 
HETATM   16  C   UNL     1     -43.156 -53.379  12.848  1.00  0.00     0.011 A 
HETATM   17  C   UNL     1     -42.701 -54.097  13.959  1.00  0.00    -0.046 A 
HETATM   18  C   UNL     1     -41.419 -53.826  14.456  1.00  0.00     0.011 A 
HETATM   19  C   UNL     1     -40.629 -52.828  13.873  1.00  0.00     0.037 A 
BRANCH  17  20
HETATM   20  C   UNL     1     -43.573 -55.164  14.576  1.00  0.00     0.142 C 
BRANCH  20  21
HETATM   21  C   UNL     1     -45.044 -54.932  14.270  1.00  0.00    -0.073 C 
BRANCH  21  22
HETATM   22  N   UNL     1     -46.264 -54.739  14.017  1.00  0.00    -0.369 N 
ATOM     23  HN2 UNL     1     -45.281 -54.935  14.207  1.00  0.00     0.165 HD
ATOM     24  HN1 UNL     1     -47.250 -54.583  13.812  1.00  0.00     0.165 HD
ENDBRANCH  21  22
ENDBRANCH  20  21
ENDBRANCH  17  20
ENDBRANCH  13  14
ENDBRANCH   1  13
TORSDOF 7
ENDMDL
