MODEL 1
REMARK VINA RESULT:      -6.0      0.000      0.000
REMARK  5 active torsions:
REMARK  status: ('A' for Active; 'I' for Inactive)
REMARK    1  A    between atoms: N_2  and  C_4 
REMARK    2  A    between atoms: C_7  and  N_8 
REMARK       I    between atoms: N_8  and  C_9 
REMARK       I    between atoms: C_9  and  N_11 
REMARK    3  A    between atoms: N_11  and  C_12 
REMARK    4  A    between atoms: C_12  and  C_13 
REMARK    5  A    between atoms: C_17  and  O_18 
ROOT
HETATM    1  N   UNL     1     -40.486 -48.151  10.905  1.00  0.00    -0.308 N 
HETATM    2  C   UNL     1     -39.800 -48.891  11.842  1.00  0.00     0.320 C 
HETATM    3  O   UNL     1     -39.266 -48.447  12.851  1.00  0.00    -0.247 OA
HETATM    4  N   UNL     1     -39.761 -50.231  11.551  1.00  0.00    -0.342 N 
HETATM    5  H   UNL     1     -40.672 -48.591  10.017  1.00  0.00     0.170 HD
HETATM    6  H   UNL     1     -40.066 -50.566  10.650  1.00  0.00     0.164 HD
ENDROOT
BRANCH   1   7
HETATM    7  C   UNL     1     -40.739 -46.761  11.011  1.00  0.00     0.051 A 
HETATM    8  C   UNL     1     -39.816 -45.793  10.654  1.00  0.00     0.035 A 
HETATM    9  C   UNL     1     -40.153 -44.441  10.723  1.00  0.00     0.050 A 
HETATM   10  C   UNL     1     -41.423 -44.044  11.140  1.00  0.00     0.102 A 
HETATM   11  N   UNL     1     -42.307 -44.979  11.563  1.00  0.00    -0.350 N 
HETATM   12  C   UNL     1     -41.952 -46.293  11.497  1.00  0.00     0.119 A 
ATOM     13  HN  UNL     1     -43.221 -44.705  11.924  1.00  0.00     0.166 HD
BRANCH  10  14
HETATM   14  N   UNL     1     -41.784 -42.689  11.146  1.00  0.00    -0.376 N 
HETATM   15  C   UNL     1     -43.207 -42.379  11.257  1.00  0.00     0.150 C 
HETATM   16  C   UNL     1     -40.870 -41.814  11.866  1.00  0.00     0.150 C 
ENDBRANCH  10  14
ENDBRANCH   1   7
BRANCH   4  17
HETATM   17  C   UNL     1     -39.110 -51.162  12.463  1.00  0.00     0.131 C 
BRANCH  17  18
HETATM   18  C   UNL     1     -40.114 -51.986  13.270  1.00  0.00     0.032 C 
HETATM   19  C   UNL     1     -39.452 -53.121  14.066  1.00  0.00     0.009 C 
HETATM   20  C   UNL     1     -40.456 -54.275  14.088  1.00  0.00     0.003 C 
HETATM   21  C   UNL     1     -41.691 -53.786  13.333  1.00  0.00     0.032 C 
HETATM   22  C   UNL     1     -41.164 -52.694  12.409  1.00  0.00     0.123 C 
BRANCH  22  23
HETATM   23  O   UNL     1     -40.595 -53.264  11.236  1.00  0.00    -0.395 OA
HETATM   24  H   UNL     1     -39.909 -52.665  10.894  1.00  0.00     0.210 HD
ENDBRANCH  22  23
ENDBRANCH  17  18
ENDBRANCH   4  17
TORSDOF 5
ENDMDL
MODEL 2
REMARK VINA RESULT:      -5.8      2.097      3.317
REMARK  5 active torsions:
REMARK  status: ('A' for Active; 'I' for Inactive)
REMARK    1  A    between atoms: N_2  and  C_4 
REMARK    2  A    between atoms: C_7  and  N_8 
REMARK       I    between atoms: N_8  and  C_9 
REMARK       I    between atoms: C_9  and  N_11 
REMARK    3  A    between atoms: N_11  and  C_12 
REMARK    4  A    between atoms: C_12  and  C_13 
REMARK    5  A    between atoms: C_17  and  O_18 
ROOT
HETATM    1  N   UNL     1     -40.884 -50.817  11.126  1.00  0.00    -0.308 N 
HETATM    2  C   UNL     1     -40.938 -51.641  12.228  1.00  0.00     0.320 C 
HETATM    3  O   UNL     1     -40.714 -51.304  13.384  1.00  0.00    -0.247 OA
HETATM    4  N   UNL     1     -41.285 -52.933  11.921  1.00  0.00    -0.342 N 
HETATM    5  H   UNL     1     -40.859 -51.259  10.220  1.00  0.00     0.170 HD
HETATM    6  H   UNL     1     -41.317 -53.237  10.960  1.00  0.00     0.164 HD
ENDROOT
BRANCH   1   7
HETATM    7  C   UNL     1     -40.628 -49.424  11.180  1.00  0.00     0.051 A 
HETATM    8  C   UNL     1     -39.592 -48.872  11.915  1.00  0.00     0.035 A 
HETATM    9  C   UNL     1     -39.356 -47.498  11.874  1.00  0.00     0.050 A 
HETATM   10  C   UNL     1     -40.148 -46.663  11.086  1.00  0.00     0.102 A 
HETATM   11  N   UNL     1     -41.209 -47.182  10.424  1.00  0.00    -0.350 N 
HETATM   12  C   UNL     1     -41.427 -48.526  10.488  1.00  0.00     0.119 A 
ATOM     13  HN  UNL     1     -41.832 -46.580   9.887  1.00  0.00     0.166 HD
BRANCH  10  14
HETATM   14  N   UNL     1     -39.870 -45.291  10.993  1.00  0.00    -0.376 N 
HETATM   15  C   UNL     1     -39.284 -44.814   9.743  1.00  0.00     0.150 C 
HETATM   16  C   UNL     1     -40.852 -44.422  11.624  1.00  0.00     0.150 C 
ENDBRANCH  10  14
ENDBRANCH   1   7
BRANCH   4  17
HETATM   17  C   UNL     1     -41.430 -53.925  12.977  1.00  0.00     0.131 C 
BRANCH  17  18
HETATM   18  C   UNL     1     -42.659 -53.672  13.851  1.00  0.00     0.032 C 
HETATM   19  C   UNL     1     -43.068 -54.900  14.677  1.00  0.00     0.009 C 
HETATM   20  C   UNL     1     -44.594 -54.861  14.781  1.00  0.00     0.003 C 
HETATM   21  C   UNL     1     -45.045 -53.602  14.043  1.00  0.00     0.032 C 
HETATM   22  C   UNL     1     -43.919 -53.318  13.055  1.00  0.00     0.123 C 
BRANCH  22  23
HETATM   23  O   UNL     1     -44.059 -54.126  11.892  1.00  0.00    -0.395 OA
HETATM   24  H   UNL     1     -44.984 -54.414  11.816  1.00  0.00     0.210 HD
ENDBRANCH  22  23
ENDBRANCH  17  18
ENDBRANCH   4  17
TORSDOF 5
ENDMDL
MODEL 3
REMARK VINA RESULT:      -5.8      1.534      2.039
REMARK  5 active torsions:
REMARK  status: ('A' for Active; 'I' for Inactive)
REMARK    1  A    between atoms: N_2  and  C_4 
REMARK    2  A    between atoms: C_7  and  N_8 
REMARK       I    between atoms: N_8  and  C_9 
REMARK       I    between atoms: C_9  and  N_11 
REMARK    3  A    between atoms: N_11  and  C_12 
REMARK    4  A    between atoms: C_12  and  C_13 
REMARK    5  A    between atoms: C_17  and  O_18 
ROOT
HETATM    1  N   UNL     1     -41.442 -49.132  11.052  1.00  0.00    -0.308 N 
HETATM    2  C   UNL     1     -42.088 -49.859  12.027  1.00  0.00     0.320 C 
HETATM    3  O   UNL     1     -42.724 -49.392  12.963  1.00  0.00    -0.247 OA
HETATM    4  N   UNL     1     -41.964 -51.216  11.862  1.00  0.00    -0.342 N 
HETATM    5  H   UNL     1     -40.769 -49.620  10.482  1.00  0.00     0.170 HD
HETATM    6  H   UNL     1     -41.316 -51.589  11.185  1.00  0.00     0.164 HD
ENDROOT
BRANCH   1   7
HETATM    7  C   UNL     1     -41.483 -47.719  10.949  1.00  0.00     0.051 A 
HETATM    8  C   UNL     1     -42.508 -47.035  10.319  1.00  0.00     0.035 A 
HETATM    9  C   UNL     1     -42.519 -45.640  10.309  1.00  0.00     0.050 A 
HETATM   10  C   UNL     1     -41.510 -44.915  10.941  1.00  0.00     0.102 A 
HETATM   11  N   UNL     1     -40.465 -45.574  11.495  1.00  0.00    -0.350 N 
HETATM   12  C   UNL     1     -40.469 -46.937  11.483  1.00  0.00     0.119 A 
ATOM     13  HN  UNL     1     -39.689 -45.061  11.913  1.00  0.00     0.166 HD
BRANCH  10  14
HETATM   14  N   UNL     1     -41.555 -43.514  10.988  1.00  0.00    -0.376 N 
HETATM   15  C   UNL     1     -42.867 -42.895  11.161  1.00  0.00     0.150 C 
HETATM   16  C   UNL     1     -40.444 -42.887  11.688  1.00  0.00     0.150 C 
ENDBRANCH  10  14
ENDBRANCH   1   7
BRANCH   4  17
HETATM   17  C   UNL     1     -42.623 -52.132  12.783  1.00  0.00     0.131 C 
BRANCH  17  18
HETATM   18  C   UNL     1     -41.627 -52.917  13.637  1.00  0.00     0.032 C 
HETATM   19  C   UNL     1     -40.481 -52.045  14.171  1.00  0.00     0.009 C 
HETATM   20  C   UNL     1     -39.242 -52.941  14.216  1.00  0.00     0.003 C 
HETATM   21  C   UNL     1     -39.690 -54.321  13.737  1.00  0.00     0.032 C 
HETATM   22  C   UNL     1     -40.919 -54.044  12.879  1.00  0.00     0.123 C 
BRANCH  22  23
HETATM   23  O   UNL     1     -40.533 -53.644  11.568  1.00  0.00    -0.395 OA
HETATM   24  H   UNL     1     -39.591 -53.846  11.441  1.00  0.00     0.210 HD
ENDBRANCH  22  23
ENDBRANCH  17  18
ENDBRANCH   4  17
TORSDOF 5
ENDMDL
MODEL 4
REMARK VINA RESULT:      -5.8      1.539      2.006
REMARK  5 active torsions:
REMARK  status: ('A' for Active; 'I' for Inactive)
REMARK    1  A    between atoms: N_2  and  C_4 
REMARK    2  A    between atoms: C_7  and  N_8 
REMARK       I    between atoms: N_8  and  C_9 
REMARK       I    between atoms: C_9  and  N_11 
REMARK    3  A    between atoms: N_11  and  C_12 
REMARK    4  A    between atoms: C_12  and  C_13 
REMARK    5  A    between atoms: C_17  and  O_18 
ROOT
HETATM    1  N   UNL     1     -41.490 -49.250  10.921  1.00  0.00    -0.308 N 
HETATM    2  C   UNL     1     -41.038 -50.173  11.838  1.00  0.00     0.320 C 
HETATM    3  O   UNL     1     -40.539 -49.915  12.926  1.00  0.00    -0.247 OA
HETATM    4  N   UNL     1     -41.203 -51.472  11.424  1.00  0.00    -0.342 N 
HETATM    5  H   UNL     1     -41.659 -49.577   9.983  1.00  0.00     0.170 HD
HETATM    6  H   UNL     1     -41.469 -51.673  10.473  1.00  0.00     0.164 HD
ENDROOT
BRANCH   1   7
HETATM    7  C   UNL     1     -41.508 -47.850  11.139  1.00  0.00     0.051 A 
HETATM    8  C   UNL     1     -40.377 -47.055  11.054  1.00  0.00     0.035 A 
HETATM    9  C   UNL     1     -40.476 -45.673  11.216  1.00  0.00     0.050 A 
HETATM   10  C   UNL     1     -41.711 -45.071  11.454  1.00  0.00     0.102 A 
HETATM   11  N   UNL     1     -42.810 -45.846  11.613  1.00  0.00    -0.350 N 
HETATM   12  C   UNL     1     -42.688 -47.195  11.461  1.00  0.00     0.119 A 
ATOM     13  HN  UNL     1     -43.712 -45.429  11.842  1.00  0.00     0.166 HD
BRANCH  10  14
HETATM   14  N   UNL     1     -41.821 -43.676  11.551  1.00  0.00    -0.376 N 
HETATM   15  C   UNL     1     -40.594 -42.899  11.403  1.00  0.00     0.150 C 
HETATM   16  C   UNL     1     -43.023 -43.112  10.955  1.00  0.00     0.150 C 
ENDBRANCH  10  14
ENDBRANCH   1   7
BRANCH   4  17
HETATM   17  C   UNL     1     -40.817 -52.574  12.294  1.00  0.00     0.131 C 
BRANCH  17  18
HETATM   18  C   UNL     1     -41.831 -52.817  13.413  1.00  0.00     0.032 C 
HETATM   19  C   UNL     1     -41.773 -54.246  13.972  1.00  0.00     0.009 C 
HETATM   20  C   UNL     1     -43.205 -54.615  14.360  1.00  0.00     0.003 C 
HETATM   21  C   UNL     1     -44.066 -53.392  14.050  1.00  0.00     0.032 C 
HETATM   22  C   UNL     1     -43.288 -52.644  12.973  1.00  0.00     0.123 C 
BRANCH  22  23
HETATM   23  O   UNL     1     -43.529 -53.218  11.693  1.00  0.00    -0.395 OA
HETATM   24  H   UNL     1     -44.287 -53.823  11.755  1.00  0.00     0.210 HD
ENDBRANCH  22  23
ENDBRANCH  17  18
ENDBRANCH   4  17
TORSDOF 5
ENDMDL
MODEL 5
REMARK VINA RESULT:      -5.8      3.218      4.104
REMARK  5 active torsions:
REMARK  status: ('A' for Active; 'I' for Inactive)
REMARK    1  A    between atoms: N_2  and  C_4 
REMARK    2  A    between atoms: C_7  and  N_8 
REMARK       I    between atoms: N_8  and  C_9 
REMARK       I    between atoms: C_9  and  N_11 
REMARK    3  A    between atoms: N_11  and  C_12 
REMARK    4  A    between atoms: C_12  and  C_13 
REMARK    5  A    between atoms: C_17  and  O_18 
ROOT
HETATM    1  N   UNL     1     -41.955 -49.985  11.387  1.00  0.00    -0.308 N 
HETATM    2  C   UNL     1     -42.184 -50.626  12.585  1.00  0.00     0.320 C 
HETATM    3  O   UNL     1     -41.870 -50.207  13.691  1.00  0.00    -0.247 OA
HETATM    4  N   UNL     1     -42.830 -51.829  12.439  1.00  0.00    -0.342 N 
HETATM    5  H   UNL     1     -42.048 -50.533  10.546  1.00  0.00     0.170 HD
HETATM    6  H   UNL     1     -42.946 -52.237  11.525  1.00  0.00     0.164 HD
ENDROOT
BRANCH   1   7
HETATM    7  C   UNL     1     -41.378 -48.696  11.267  1.00  0.00     0.051 A 
HETATM    8  C   UNL     1     -40.275 -48.289  11.997  1.00  0.00     0.035 A 
HETATM    9  C   UNL     1     -39.718 -47.028  11.783  1.00  0.00     0.050 A 
HETATM   10  C   UNL     1     -40.254 -46.165  10.828  1.00  0.00     0.102 A 
HETATM   11  N   UNL     1     -41.378 -46.524  10.164  1.00  0.00    -0.350 N 
HETATM   12  C   UNL     1     -41.911 -47.756  10.396  1.00  0.00     0.119 A 
ATOM     13  HN  UNL     1     -41.817 -45.885   9.501  1.00  0.00     0.166 HD
BRANCH  10  14
HETATM   14  N   UNL     1     -39.655 -44.924  10.567  1.00  0.00    -0.376 N 
HETATM   15  C   UNL     1     -38.953 -44.778   9.294  1.00  0.00     0.150 C 
HETATM   16  C   UNL     1     -40.410 -43.769  11.029  1.00  0.00     0.150 C 
ENDBRANCH  10  14
ENDBRANCH   1   7
BRANCH   4  17
HETATM   17  C   UNL     1     -43.187 -52.616  13.611  1.00  0.00     0.131 C 
BRANCH  17  18
HETATM   18  C   UNL     1     -44.699 -52.682  13.831  1.00  0.00     0.032 C 
HETATM   19  C   UNL     1     -45.501 -52.280  12.584  1.00  0.00     0.009 C 
HETATM   20  C   UNL     1     -46.765 -51.583  13.091  1.00  0.00     0.003 C 
HETATM   21  C   UNL     1     -46.693 -51.615  14.616  1.00  0.00     0.032 C 
HETATM   22  C   UNL     1     -45.205 -51.736  14.924  1.00  0.00     0.123 C 
BRANCH  22  23
HETATM   23  O   UNL     1     -44.576 -50.461  14.858  1.00  0.00    -0.395 OA
HETATM   24  H   UNL     1     -43.832 -50.442  15.484  1.00  0.00     0.210 HD
ENDBRANCH  22  23
ENDBRANCH  17  18
ENDBRANCH   4  17
TORSDOF 5
ENDMDL
MODEL 6
REMARK VINA RESULT:      -5.7      2.209      8.421
REMARK  5 active torsions:
REMARK  status: ('A' for Active; 'I' for Inactive)
REMARK    1  A    between atoms: N_2  and  C_4 
REMARK    2  A    between atoms: C_7  and  N_8 
REMARK       I    between atoms: N_8  and  C_9 
REMARK       I    between atoms: C_9  and  N_11 
REMARK    3  A    between atoms: N_11  and  C_12 
REMARK    4  A    between atoms: C_12  and  C_13 
REMARK    5  A    between atoms: C_17  and  O_18 
ROOT
HETATM    1  N   UNL     1     -40.696 -50.049  11.020  1.00  0.00    -0.308 N 
HETATM    2  C   UNL     1     -41.553 -48.977  11.134  1.00  0.00     0.320 C 
HETATM    3  O   UNL     1     -42.440 -48.856  11.970  1.00  0.00    -0.247 OA
HETATM    4  N   UNL     1     -41.324 -47.999  10.198  1.00  0.00    -0.342 N 
HETATM    5  H   UNL     1     -40.175 -50.133  10.161  1.00  0.00     0.170 HD
HETATM    6  H   UNL     1     -40.701 -48.171   9.424  1.00  0.00     0.164 HD
ENDROOT
BRANCH   1   7
HETATM    7  C   UNL     1     -40.670 -51.151  11.911  1.00  0.00     0.051 A 
HETATM    8  C   UNL     1     -41.595 -52.180  11.869  1.00  0.00     0.035 A 
HETATM    9  C   UNL     1     -41.474 -53.268  12.734  1.00  0.00     0.050 A 
HETATM   10  C   UNL     1     -40.418 -53.342  13.642  1.00  0.00     0.102 A 
HETATM   11  N   UNL     1     -39.553 -52.305  13.742  1.00  0.00    -0.350 N 
HETATM   12  C   UNL     1     -39.697 -51.248  12.894  1.00  0.00     0.119 A 
ATOM     13  HN  UNL     1     -38.807 -52.316  14.437  1.00  0.00     0.166 HD
BRANCH  10  14
HETATM   14  N   UNL     1     -40.259 -54.466  14.466  1.00  0.00    -0.376 N 
HETATM   15  C   UNL     1     -38.909 -54.757  14.941  1.00  0.00     0.150 C 
HETATM   16  C   UNL     1     -41.344 -54.694  15.409  1.00  0.00     0.150 C 
ENDBRANCH  10  14
ENDBRANCH   1   7
BRANCH   4  17
HETATM   17  C   UNL     1     -42.114 -46.776  10.205  1.00  0.00     0.131 C 
BRANCH  17  18
HETATM   18  C   UNL     1     -41.530 -45.710  11.133  1.00  0.00     0.032 C 
HETATM   19  C   UNL     1     -42.334 -44.401  11.119  1.00  0.00     0.009 C 
HETATM   20  C   UNL     1     -41.322 -43.271  11.313  1.00  0.00     0.003 C 
HETATM   21  C   UNL     1     -39.956 -43.937  11.464  1.00  0.00     0.032 C 
HETATM   22  C   UNL     1     -40.108 -45.281  10.761  1.00  0.00     0.123 C 
BRANCH  22  23
HETATM   23  O   UNL     1     -39.948 -45.129   9.354  1.00  0.00    -0.395 OA
HETATM   24  H   UNL     1     -39.271 -45.754   9.044  1.00  0.00     0.210 HD
ENDBRANCH  22  23
ENDBRANCH  17  18
ENDBRANCH   4  17
TORSDOF 5
ENDMDL
MODEL 7
REMARK VINA RESULT:      -5.6      1.996      3.196
REMARK  5 active torsions:
REMARK  status: ('A' for Active; 'I' for Inactive)
REMARK    1  A    between atoms: N_2  and  C_4 
REMARK    2  A    between atoms: C_7  and  N_8 
REMARK       I    between atoms: N_8  and  C_9 
REMARK       I    between atoms: C_9  and  N_11 
REMARK    3  A    between atoms: N_11  and  C_12 
REMARK    4  A    between atoms: C_12  and  C_13 
REMARK    5  A    between atoms: C_17  and  O_18 
ROOT
HETATM    1  N   UNL     1     -40.884 -50.720  11.119  1.00  0.00    -0.308 N 
HETATM    2  C   UNL     1     -40.830 -51.581  12.191  1.00  0.00     0.320 C 
HETATM    3  O   UNL     1     -40.687 -51.256  13.363  1.00  0.00    -0.247 OA
HETATM    4  N   UNL     1     -40.961 -52.900  11.833  1.00  0.00    -0.342 N 
HETATM    5  H   UNL     1     -40.770 -51.119  10.200  1.00  0.00     0.170 HD
HETATM    6  H   UNL     1     -40.924 -53.170  10.862  1.00  0.00     0.164 HD
ENDROOT
BRANCH   1   7
HETATM    7  C   UNL     1     -40.853 -49.307  11.225  1.00  0.00     0.051 A 
HETATM    8  C   UNL     1     -39.726 -48.600  11.607  1.00  0.00     0.035 A 
HETATM    9  C   UNL     1     -39.745 -47.205  11.629  1.00  0.00     0.050 A 
HETATM   10  C   UNL     1     -40.891 -46.503  11.258  1.00  0.00     0.102 A 
HETATM   11  N   UNL     1     -42.021 -47.186  10.955  1.00  0.00    -0.350 N 
HETATM   12  C   UNL     1     -41.982 -48.548  10.951  1.00  0.00     0.119 A 
ATOM     13  HN  UNL     1     -42.884 -46.690  10.735  1.00  0.00     0.166 HD
BRANCH  10  14
HETATM   14  N   UNL     1     -40.890 -45.101  11.216  1.00  0.00    -0.376 N 
HETATM   15  C   UNL     1     -39.810 -44.457  10.474  1.00  0.00     0.150 C 
HETATM   16  C   UNL     1     -42.207 -44.490  11.110  1.00  0.00     0.150 C 
ENDBRANCH  10  14
ENDBRANCH   1   7
BRANCH   4  17
HETATM   17  C   UNL     1     -40.969 -53.941  12.852  1.00  0.00     0.131 C 
BRANCH  17  18
HETATM   18  C   UNL     1     -42.386 -54.371  13.235  1.00  0.00     0.032 C 
HETATM   19  C   UNL     1     -43.472 -53.558  12.516  1.00  0.00     0.009 C 
HETATM   20  C   UNL     1     -44.639 -53.435  13.497  1.00  0.00     0.003 C 
HETATM   21  C   UNL     1     -44.228 -54.199  14.754  1.00  0.00     0.032 C 
HETATM   22  C   UNL     1     -42.704 -54.191  14.722  1.00  0.00     0.123 C 
BRANCH  22  23
HETATM   23  O   UNL     1     -42.200 -52.960  15.229  1.00  0.00    -0.395 OA
HETATM   24  H   UNL     1     -41.739 -52.489  14.515  1.00  0.00     0.210 HD
ENDBRANCH  22  23
ENDBRANCH  17  18
ENDBRANCH   4  17
TORSDOF 5
ENDMDL
MODEL 8
REMARK VINA RESULT:      -5.5      2.694      8.000
REMARK  5 active torsions:
REMARK  status: ('A' for Active; 'I' for Inactive)
REMARK    1  A    between atoms: N_2  and  C_4 
REMARK    2  A    between atoms: C_7  and  N_8 
REMARK       I    between atoms: N_8  and  C_9 
REMARK       I    between atoms: C_9  and  N_11 
REMARK    3  A    between atoms: N_11  and  C_12 
REMARK    4  A    between atoms: C_12  and  C_13 
REMARK    5  A    between atoms: C_17  and  O_18 
ROOT
HETATM    1  N   UNL     1     -40.515 -49.682  11.082  1.00  0.00    -0.308 N 
HETATM    2  C   UNL     1     -40.989 -48.423  11.376  1.00  0.00     0.320 C 
HETATM    3  O   UNL     1     -41.229 -47.993  12.498  1.00  0.00    -0.247 OA
HETATM    4  N   UNL     1     -41.176 -47.642  10.263  1.00  0.00    -0.342 N 
HETATM    5  H   UNL     1     -40.581 -49.988  10.124  1.00  0.00     0.170 HD
HETATM    6  H   UNL     1     -41.125 -48.048   9.342  1.00  0.00     0.164 HD
ENDROOT
BRANCH   1   7
HETATM    7  C   UNL     1     -40.163 -50.652  12.055  1.00  0.00     0.051 A 
HETATM    8  C   UNL     1     -41.033 -51.637  12.490  1.00  0.00     0.035 A 
HETATM    9  C   UNL     1     -40.601 -52.601  13.402  1.00  0.00     0.050 A 
HETATM   10  C   UNL     1     -39.291 -52.594  13.880  1.00  0.00     0.102 A 
HETATM   11  N   UNL     1     -38.457 -51.591  13.518  1.00  0.00    -0.350 N 
HETATM   12  C   UNL     1     -38.903 -50.654  12.634  1.00  0.00     0.119 A 
ATOM     13  HN  UNL     1     -37.512 -51.537  13.899  1.00  0.00     0.166 HD
BRANCH  10  14
HETATM   14  N   UNL     1     -38.839 -53.600  14.746  1.00  0.00    -0.376 N 
HETATM   15  C   UNL     1     -38.927 -53.335  16.179  1.00  0.00     0.150 C 
HETATM   16  C   UNL     1     -39.136 -54.958  14.316  1.00  0.00     0.150 C 
ENDBRANCH  10  14
ENDBRANCH   1   7
BRANCH   4  17
HETATM   17  C   UNL     1     -41.633 -46.266  10.400  1.00  0.00     0.131 C 
BRANCH  17  18
HETATM   18  C   UNL     1     -43.150 -46.138  10.259  1.00  0.00     0.032 C 
HETATM   19  C   UNL     1     -43.877 -47.484  10.391  1.00  0.00     0.009 C 
HETATM   20  C   UNL     1     -45.087 -47.414   9.458  1.00  0.00     0.003 C 
HETATM   21  C   UNL     1     -45.062 -46.026   8.822  1.00  0.00     0.032 C 
HETATM   22  C   UNL     1     -43.600 -45.600   8.897  1.00  0.00     0.123 C 
BRANCH  22  23
HETATM   23  O   UNL     1     -42.857 -46.173   7.826  1.00  0.00    -0.395 OA
HETATM   24  H   UNL     1     -42.348 -45.473   7.384  1.00  0.00     0.210 HD
ENDBRANCH  22  23
ENDBRANCH  17  18
ENDBRANCH   4  17
TORSDOF 5
ENDMDL
MODEL 9
REMARK VINA RESULT:      -5.4      4.416      6.657
REMARK  5 active torsions:
REMARK  status: ('A' for Active; 'I' for Inactive)
REMARK    1  A    between atoms: N_2  and  C_4 
REMARK    2  A    between atoms: C_7  and  N_8 
REMARK       I    between atoms: N_8  and  C_9 
REMARK       I    between atoms: C_9  and  N_11 
REMARK    3  A    between atoms: N_11  and  C_12 
REMARK    4  A    between atoms: C_12  and  C_13 
REMARK    5  A    between atoms: C_17  and  O_18 
ROOT
HETATM    1  N   UNL     1     -43.202 -52.426  12.265  1.00  0.00    -0.308 N 
HETATM    2  C   UNL     1     -43.593 -53.096  13.402  1.00  0.00     0.320 C 
HETATM    3  O   UNL     1     -42.988 -53.111  14.467  1.00  0.00    -0.247 OA
HETATM    4  N   UNL     1     -44.774 -53.778  13.249  1.00  0.00    -0.342 N 
HETATM    5  H   UNL     1     -43.654 -52.680  11.401  1.00  0.00     0.170 HD
HETATM    6  H   UNL     1     -45.184 -53.888  12.334  1.00  0.00     0.164 HD
ENDROOT
BRANCH   1   7
HETATM    7  C   UNL     1     -42.064 -51.585  12.183  1.00  0.00     0.051 A 
HETATM    8  C   UNL     1     -42.115 -50.218  12.396  1.00  0.00     0.035 A 
HETATM    9  C   UNL     1     -40.946 -49.458  12.364  1.00  0.00     0.050 A 
HETATM   10  C   UNL     1     -39.711 -50.060  12.129  1.00  0.00     0.102 A 
HETATM   11  N   UNL     1     -39.660 -51.384  11.845  1.00  0.00    -0.350 N 
HETATM   12  C   UNL     1     -40.815 -52.105  11.871  1.00  0.00     0.119 A 
ATOM     13  HN  UNL     1     -38.773 -51.832  11.616  1.00  0.00     0.166 HD
BRANCH  10  14
HETATM   14  N   UNL     1     -38.528 -49.307  12.162  1.00  0.00    -0.376 N 
HETATM   15  C   UNL     1     -38.193 -48.647  13.421  1.00  0.00     0.150 C 
HETATM   16  C   UNL     1     -37.418 -49.875  11.410  1.00  0.00     0.150 C 
ENDBRANCH  10  14
ENDBRANCH   1   7
BRANCH   4  17
HETATM   17  C   UNL     1     -45.353 -54.506  14.370  1.00  0.00     0.131 C 
BRANCH  17  18
HETATM   18  C   UNL     1     -46.428 -53.699  15.097  1.00  0.00     0.032 C 
HETATM   19  C   UNL     1     -46.759 -52.374  14.394  1.00  0.00     0.009 C 
HETATM   20  C   UNL     1     -47.096 -51.371  15.499  1.00  0.00     0.003 C 
HETATM   21  C   UNL     1     -46.985 -52.131  16.819  1.00  0.00     0.032 C 
HETATM   22  C   UNL     1     -46.032 -53.281  16.517  1.00  0.00     0.123 C 
BRANCH  22  23
HETATM   23  O   UNL     1     -44.680 -52.841  16.584  1.00  0.00    -0.395 OA
HETATM   24  H   UNL     1     -44.119 -53.583  16.867  1.00  0.00     0.210 HD
ENDBRANCH  22  23
ENDBRANCH  17  18
ENDBRANCH   4  17
TORSDOF 5
ENDMDL
