MODEL 1
REMARK VINA RESULT:      -5.8      0.000      0.000
REMARK  6 active torsions:
REMARK  status: ('A' for Active; 'I' for Inactive)
REMARK    1  A    between atoms: O_1  and  C_2 
REMARK    2  A    between atoms: C_2  and  C_3 
REMARK    3  A    between atoms: C_3  and  C_4 
REMARK    4  A    between atoms: N_8  and  C_9 
REMARK    5  A    between atoms: C_9  and  C_10 
REMARK       I    between atoms: C_10  and  N_12 
REMARK    6  A    between atoms: N_12  and  C_13 
ROOT
HETATM    1  C   UNL     1     -44.649 -47.210   9.174  1.00  0.00    -0.022 A 
HETATM    2  C   UNL     1     -43.740 -47.864   8.313  1.00  0.00     0.115 A 
HETATM    3  N   UNL     1     -42.477 -47.792   8.740  1.00  0.00    -0.309 N 
ATOM      4  HN  UNL     1     -41.638 -48.158   8.291  1.00  0.00     0.186 HD
HETATM    5  N   UNL     1     -42.574 -47.120   9.906  1.00  0.00    -0.294 N 
HETATM    6  C   UNL     1     -43.854 -46.746  10.202  1.00  0.00     0.119 A 
ENDROOT
BRANCH   5   7
HETATM    7  C   UNL     1     -41.396 -46.964  10.735  1.00  0.00     0.250 C 
BRANCH   7   8
HETATM    8  C   UNL     1     -40.857 -48.293  11.200  1.00  0.00     0.237 C 
HETATM    9  O   UNL     1     -41.605 -49.248  11.403  1.00  0.00    -0.272 OA
HETATM   10  N   UNL     1     -39.481 -48.373  11.354  1.00  0.00    -0.355 N 
HETATM   11  H   UNL     1     -38.954 -47.512  11.440  1.00  0.00     0.162 HD
BRANCH  10  12
HETATM   12  C   UNL     1     -38.902 -49.602  11.847  1.00  0.00     0.084 C 
HETATM   13  C   UNL     1     -38.731 -49.626  13.366  1.00  0.00     0.025 C 
HETATM   14  C   UNL     1     -37.651 -50.682  13.620  1.00  0.00     0.002 C 
HETATM   15  C   UNL     1     -37.104 -51.064  12.244  1.00  0.00     0.002 C 
HETATM   16  C   UNL     1     -37.498 -49.901  11.340  1.00  0.00     0.025 C 
ENDBRANCH  10  12
ENDBRANCH   7   8
ENDBRANCH   5   7
BRANCH   1  17
HETATM   17  C   UNL     1     -46.125 -47.079   9.027  1.00  0.00     0.067 C 
BRANCH  17  18
HETATM   18  C   UNL     1     -46.825 -48.418   8.808  1.00  0.00     0.168 C 
BRANCH  18  19
HETATM   19  O   UNL     1     -46.723 -48.790   7.438  1.00  0.00    -0.401 OA
HETATM   20  H   UNL     1     -47.095 -49.685   7.359  1.00  0.00     0.209 HD
ENDBRANCH  18  19
ENDBRANCH  17  18
ENDBRANCH   1  17
TORSDOF 6
ENDMDL
MODEL 2
REMARK VINA RESULT:      -5.7      2.672      2.818
REMARK  6 active torsions:
REMARK  status: ('A' for Active; 'I' for Inactive)
REMARK    1  A    between atoms: O_1  and  C_2 
REMARK    2  A    between atoms: C_2  and  C_3 
REMARK    3  A    between atoms: C_3  and  C_4 
REMARK    4  A    between atoms: N_8  and  C_9 
REMARK    5  A    between atoms: C_9  and  C_10 
REMARK       I    between atoms: C_10  and  N_12 
REMARK    6  A    between atoms: N_12  and  C_13 
ROOT
HETATM    1  C   UNL     1     -44.349 -47.400   9.456  1.00  0.00    -0.022 A 
HETATM    2  C   UNL     1     -43.273 -47.750   8.608  1.00  0.00     0.115 A 
HETATM    3  N   UNL     1     -42.146 -48.000   9.278  1.00  0.00    -0.309 N 
ATOM      4  HN  UNL     1     -41.231 -48.247   8.901  1.00  0.00     0.186 HD
HETATM    5  N   UNL     1     -42.503 -47.850  10.570  1.00  0.00    -0.294 N 
HETATM    6  C   UNL     1     -43.811 -47.485  10.723  1.00  0.00     0.119 A 
ENDROOT
BRANCH   5   7
HETATM    7  C   UNL     1     -41.552 -48.178  11.612  1.00  0.00     0.250 C 
BRANCH   7   8
HETATM    8  C   UNL     1     -41.157 -49.632  11.574  1.00  0.00     0.237 C 
HETATM    9  O   UNL     1     -40.211 -50.018  10.890  1.00  0.00    -0.272 OA
HETATM   10  N   UNL     1     -41.903 -50.487  12.372  1.00  0.00    -0.355 N 
HETATM   11  H   UNL     1     -42.813 -50.178  12.691  1.00  0.00     0.162 HD
BRANCH  10  12
HETATM   12  C   UNL     1     -41.611 -51.902  12.344  1.00  0.00     0.084 C 
HETATM   13  C   UNL     1     -42.810 -52.776  12.716  1.00  0.00     0.025 C 
HETATM   14  C   UNL     1     -42.198 -54.106  13.165  1.00  0.00     0.002 C 
HETATM   15  C   UNL     1     -40.688 -53.873  13.235  1.00  0.00     0.002 C 
HETATM   16  C   UNL     1     -40.540 -52.359  13.325  1.00  0.00     0.025 C 
ENDBRANCH  10  12
ENDBRANCH   7   8
ENDBRANCH   5   7
BRANCH   1  17
HETATM   17  C   UNL     1     -45.746 -47.055   9.075  1.00  0.00     0.067 C 
BRANCH  17  18
HETATM   18  C   UNL     1     -46.605 -48.280   8.775  1.00  0.00     0.168 C 
BRANCH  18  19
HETATM   19  O   UNL     1     -46.440 -48.656   7.412  1.00  0.00    -0.401 OA
HETATM   20  H   UNL     1     -47.168 -48.247   6.914  1.00  0.00     0.209 HD
ENDBRANCH  18  19
ENDBRANCH  17  18
ENDBRANCH   1  17
TORSDOF 6
ENDMDL
MODEL 3
REMARK VINA RESULT:      -5.5      3.733      4.660
REMARK  6 active torsions:
REMARK  status: ('A' for Active; 'I' for Inactive)
REMARK    1  A    between atoms: O_1  and  C_2 
REMARK    2  A    between atoms: C_2  and  C_3 
REMARK    3  A    between atoms: C_3  and  C_4 
REMARK    4  A    between atoms: N_8  and  C_9 
REMARK    5  A    between atoms: C_9  and  C_10 
REMARK       I    between atoms: C_10  and  N_12 
REMARK    6  A    between atoms: N_12  and  C_13 
ROOT
HETATM    1  C   UNL     1     -44.216 -47.307   9.625  1.00  0.00    -0.022 A 
HETATM    2  C   UNL     1     -43.048 -47.671   8.918  1.00  0.00     0.115 A 
HETATM    3  N   UNL     1     -42.109 -48.202   9.705  1.00  0.00    -0.309 N 
ATOM      4  HN  UNL     1     -41.176 -48.520   9.446  1.00  0.00     0.186 HD
HETATM    5  N   UNL     1     -42.688 -48.221  10.923  1.00  0.00    -0.294 N 
HETATM    6  C   UNL     1     -43.947 -47.689  10.923  1.00  0.00     0.119 A 
ENDROOT
BRANCH   5   7
HETATM    7  C   UNL     1     -42.003 -48.863  12.025  1.00  0.00     0.250 C 
BRANCH   7   8
HETATM    8  C   UNL     1     -42.961 -49.594  12.932  1.00  0.00     0.237 C 
HETATM    9  O   UNL     1     -43.298 -49.122  14.016  1.00  0.00    -0.272 OA
HETATM   10  N   UNL     1     -43.449 -50.802  12.456  1.00  0.00    -0.355 N 
HETATM   11  H   UNL     1     -42.947 -51.265  11.708  1.00  0.00     0.162 HD
BRANCH  10  12
HETATM   12  C   UNL     1     -44.332 -51.579  13.296  1.00  0.00     0.084 C 
HETATM   13  C   UNL     1     -44.199 -53.087  13.082  1.00  0.00     0.025 C 
HETATM   14  C   UNL     1     -45.520 -53.671  13.594  1.00  0.00     0.002 C 
HETATM   15  C   UNL     1     -46.427 -52.473  13.880  1.00  0.00     0.002 C 
HETATM   16  C   UNL     1     -45.817 -51.332  13.074  1.00  0.00     0.025 C 
ENDBRANCH  10  12
ENDBRANCH   7   8
ENDBRANCH   5   7
BRANCH   1  17
HETATM   17  C   UNL     1     -45.461 -46.690   9.090  1.00  0.00     0.067 C 
BRANCH  17  18
HETATM   18  C   UNL     1     -46.605 -47.689   8.936  1.00  0.00     0.168 C 
BRANCH  18  19
HETATM   19  O   UNL     1     -46.448 -48.409   7.719  1.00  0.00    -0.401 OA
HETATM   20  H   UNL     1     -45.672 -48.984   7.827  1.00  0.00     0.209 HD
ENDBRANCH  18  19
ENDBRANCH  17  18
ENDBRANCH   1  17
TORSDOF 6
ENDMDL
MODEL 4
REMARK VINA RESULT:      -5.4      4.135      5.401
REMARK  6 active torsions:
REMARK  status: ('A' for Active; 'I' for Inactive)
REMARK    1  A    between atoms: O_1  and  C_2 
REMARK    2  A    between atoms: C_2  and  C_3 
REMARK    3  A    between atoms: C_3  and  C_4 
REMARK    4  A    between atoms: N_8  and  C_9 
REMARK    5  A    between atoms: C_9  and  C_10 
REMARK       I    between atoms: C_10  and  N_12 
REMARK    6  A    between atoms: N_12  and  C_13 
ROOT
HETATM    1  C   UNL     1     -41.429 -46.532  10.789  1.00  0.00    -0.022 A 
HETATM    2  C   UNL     1     -42.646 -47.180  10.481  1.00  0.00     0.115 A 
HETATM    3  N   UNL     1     -42.568 -48.508  10.584  1.00  0.00    -0.309 N 
ATOM      4  HN  UNL     1     -43.293 -49.199  10.394  1.00  0.00     0.186 HD
HETATM    5  N   UNL     1     -41.302 -48.721  11.000  1.00  0.00    -0.294 N 
HETATM    6  C   UNL     1     -40.582 -47.567  11.129  1.00  0.00     0.119 A 
ENDROOT
BRANCH   5   7
HETATM    7  C   UNL     1     -40.886 -50.063  11.353  1.00  0.00     0.250 C 
BRANCH   7   8
HETATM    8  C   UNL     1     -41.832 -50.702  12.338  1.00  0.00     0.237 C 
HETATM    9  O   UNL     1     -42.216 -50.097  13.337  1.00  0.00    -0.272 OA
HETATM   10  N   UNL     1     -42.253 -51.988  12.032  1.00  0.00    -0.355 N 
HETATM   11  H   UNL     1     -41.712 -52.528  11.367  1.00  0.00     0.162 HD
BRANCH  10  12
HETATM   12  C   UNL     1     -43.119 -52.680  12.960  1.00  0.00     0.084 C 
HETATM   13  C   UNL     1     -42.402 -53.763  13.766  1.00  0.00     0.025 C 
HETATM   14  C   UNL     1     -43.517 -54.704  14.232  1.00  0.00     0.002 C 
HETATM   15  C   UNL     1     -44.784 -54.248  13.507  1.00  0.00     0.002 C 
HETATM   16  C   UNL     1     -44.273 -53.439  12.320  1.00  0.00     0.025 C 
ENDBRANCH  10  12
ENDBRANCH   7   8
ENDBRANCH   5   7
BRANCH   1  17
HETATM   17  C   UNL     1     -41.135 -45.072  10.781  1.00  0.00     0.067 C 
BRANCH  17  18
HETATM   18  C   UNL     1     -39.680 -44.757  10.443  1.00  0.00     0.168 C 
BRANCH  18  19
HETATM   19  O   UNL     1     -39.511 -44.749   9.030  1.00  0.00    -0.401 OA
HETATM   20  H   UNL     1     -39.495 -43.818   8.750  1.00  0.00     0.209 HD
ENDBRANCH  18  19
ENDBRANCH  17  18
ENDBRANCH   1  17
TORSDOF 6
ENDMDL
MODEL 5
REMARK VINA RESULT:      -5.3      3.069      4.596
REMARK  6 active torsions:
REMARK  status: ('A' for Active; 'I' for Inactive)
REMARK    1  A    between atoms: O_1  and  C_2 
REMARK    2  A    between atoms: C_2  and  C_3 
REMARK    3  A    between atoms: C_3  and  C_4 
REMARK    4  A    between atoms: N_8  and  C_9 
REMARK    5  A    between atoms: C_9  and  C_10 
REMARK       I    between atoms: C_10  and  N_12 
REMARK    6  A    between atoms: N_12  and  C_13 
ROOT
HETATM    1  C   UNL     1     -44.776 -47.065   9.327  1.00  0.00    -0.022 A 
HETATM    2  C   UNL     1     -43.898 -46.409   8.435  1.00  0.00     0.115 A 
HETATM    3  N   UNL     1     -42.637 -46.385   8.873  1.00  0.00    -0.309 N 
ATOM      4  HN  UNL     1     -41.824 -45.954   8.431  1.00  0.00     0.186 HD
HETATM    5  N   UNL     1     -42.691 -47.064  10.037  1.00  0.00    -0.294 N 
HETATM    6  C   UNL     1     -43.953 -47.484  10.352  1.00  0.00     0.119 A 
ENDROOT
BRANCH   5   7
HETATM    7  C   UNL     1     -41.462 -47.359  10.745  1.00  0.00     0.250 C 
BRANCH   7   8
HETATM    8  C   UNL     1     -40.662 -46.112  11.024  1.00  0.00     0.237 C 
HETATM    9  O   UNL     1     -39.534 -45.962  10.559  1.00  0.00    -0.272 OA
HETATM   10  N   UNL     1     -41.285 -45.150  11.805  1.00  0.00    -0.355 N 
HETATM   11  H   UNL     1     -42.076 -45.428  12.374  1.00  0.00     0.162 HD
BRANCH  10  12
HETATM   12  C   UNL     1     -40.555 -43.952  12.155  1.00  0.00     0.084 C 
HETATM   13  C   UNL     1     -40.617 -43.618  13.645  1.00  0.00     0.025 C 
HETATM   14  C   UNL     1     -40.304 -42.121  13.722  1.00  0.00     0.002 C 
HETATM   15  C   UNL     1     -40.285 -41.620  12.277  1.00  0.00     0.002 C 
HETATM   16  C   UNL     1     -41.060 -42.675  11.497  1.00  0.00     0.025 C 
ENDBRANCH  10  12
ENDBRANCH   7   8
ENDBRANCH   5   7
BRANCH   1  17
HETATM   17  C   UNL     1     -46.241 -47.284   9.181  1.00  0.00     0.067 C 
BRANCH  17  18
HETATM   18  C   UNL     1     -46.586 -48.653   8.600  1.00  0.00     0.168 C 
BRANCH  18  19
HETATM   19  O   UNL     1     -46.293 -48.667   7.207  1.00  0.00    -0.401 OA
HETATM   20  H   UNL     1     -46.372 -47.751   6.891  1.00  0.00     0.209 HD
ENDBRANCH  18  19
ENDBRANCH  17  18
ENDBRANCH   1  17
TORSDOF 6
ENDMDL
MODEL 6
REMARK VINA RESULT:      -5.3      2.836      7.161
REMARK  6 active torsions:
REMARK  status: ('A' for Active; 'I' for Inactive)
REMARK    1  A    between atoms: O_1  and  C_2 
REMARK    2  A    between atoms: C_2  and  C_3 
REMARK    3  A    between atoms: C_3  and  C_4 
REMARK    4  A    between atoms: N_8  and  C_9 
REMARK    5  A    between atoms: C_9  and  C_10 
REMARK       I    between atoms: C_10  and  N_12 
REMARK    6  A    between atoms: N_12  and  C_13 
ROOT
HETATM    1  C   UNL     1     -40.442 -52.294  13.297  1.00  0.00    -0.022 A 
HETATM    2  C   UNL     1     -41.351 -52.566  12.250  1.00  0.00     0.115 A 
HETATM    3  N   UNL     1     -41.404 -51.590  11.341  1.00  0.00    -0.309 N 
ATOM      4  HN  UNL     1     -41.992 -51.533  10.510  1.00  0.00     0.186 HD
HETATM    5  N   UNL     1     -40.494 -50.696  11.781  1.00  0.00    -0.294 N 
HETATM    6  C   UNL     1     -39.898 -51.074  12.952  1.00  0.00     0.119 A 
ENDROOT
BRANCH   5   7
HETATM    7  C   UNL     1     -40.176 -49.544  10.963  1.00  0.00     0.250 C 
BRANCH   7   8
HETATM    8  C   UNL     1     -41.250 -48.489  11.038  1.00  0.00     0.237 C 
HETATM    9  O   UNL     1     -41.499 -47.907  12.092  1.00  0.00    -0.272 OA
HETATM   10  N   UNL     1     -41.909 -48.205   9.851  1.00  0.00    -0.355 N 
HETATM   11  H   UNL     1     -41.862 -48.881   9.098  1.00  0.00     0.162 HD
BRANCH  10  12
HETATM   12  C   UNL     1     -42.986 -47.241   9.862  1.00  0.00     0.084 C 
HETATM   13  C   UNL     1     -44.368 -47.876  10.018  1.00  0.00     0.025 C 
HETATM   14  C   UNL     1     -45.342 -46.833   9.464  1.00  0.00     0.002 C 
HETATM   15  C   UNL     1     -44.476 -45.745   8.825  1.00  0.00     0.002 C 
HETATM   16  C   UNL     1     -43.130 -46.421   8.587  1.00  0.00     0.025 C 
ENDBRANCH  10  12
ENDBRANCH   7   8
ENDBRANCH   5   7
BRANCH   1  17
HETATM   17  C   UNL     1     -40.119 -53.140  14.479  1.00  0.00     0.067 C 
BRANCH  17  18
HETATM   18  C   UNL     1     -39.680 -54.552  14.101  1.00  0.00     0.168 C 
BRANCH  18  19
HETATM   19  O   UNL     1     -38.465 -54.492  13.361  1.00  0.00    -0.401 OA
HETATM   20  H   UNL     1     -37.745 -54.699  13.980  1.00  0.00     0.209 HD
ENDBRANCH  18  19
ENDBRANCH  17  18
ENDBRANCH   1  17
TORSDOF 6
ENDMDL
MODEL 7
REMARK VINA RESULT:      -5.2      7.782      9.296
REMARK  6 active torsions:
REMARK  status: ('A' for Active; 'I' for Inactive)
REMARK    1  A    between atoms: O_1  and  C_2 
REMARK    2  A    between atoms: C_2  and  C_3 
REMARK    3  A    between atoms: C_3  and  C_4 
REMARK    4  A    between atoms: N_8  and  C_9 
REMARK    5  A    between atoms: C_9  and  C_10 
REMARK       I    between atoms: C_10  and  N_12 
REMARK    6  A    between atoms: N_12  and  C_13 
ROOT
HETATM    1  C   UNL     1     -42.927 -54.112  13.388  1.00  0.00    -0.022 A 
HETATM    2  C   UNL     1     -43.820 -53.476  12.496  1.00  0.00     0.115 A 
HETATM    3  N   UNL     1     -45.100 -53.643  12.836  1.00  0.00    -0.309 N 
ATOM      4  HN  UNL     1     -45.930 -53.308  12.348  1.00  0.00     0.186 HD
HETATM    5  N   UNL     1     -45.035 -54.359  13.978  1.00  0.00    -0.294 N 
HETATM    6  C   UNL     1     -43.755 -54.668  14.342  1.00  0.00     0.119 A 
ENDROOT
BRANCH   5   7
HETATM    7  C   UNL     1     -46.250 -54.622  14.721  1.00  0.00     0.250 C 
BRANCH   7   8
HETATM    8  C   UNL     1     -46.303 -53.836  16.006  1.00  0.00     0.237 C 
HETATM    9  O   UNL     1     -46.063 -54.368  17.089  1.00  0.00    -0.272 OA
HETATM   10  N   UNL     1     -46.608 -52.488  15.885  1.00  0.00    -0.355 N 
HETATM   11  H   UNL     1     -47.053 -52.169  15.033  1.00  0.00     0.162 HD
BRANCH  10  12
HETATM   12  C   UNL     1     -46.726 -51.687  17.082  1.00  0.00     0.084 C 
HETATM   13  C   UNL     1     -48.134 -51.135  17.306  1.00  0.00     0.025 C 
HETATM   14  C   UNL     1     -47.938 -49.930  18.230  1.00  0.00     0.002 C 
HETATM   15  C   UNL     1     -46.427 -49.714  18.325  1.00  0.00     0.002 C 
HETATM   16  C   UNL     1     -45.861 -50.435  17.107  1.00  0.00     0.025 C 
ENDBRANCH  10  12
ENDBRANCH   7   8
ENDBRANCH   5   7
BRANCH   1  17
HETATM   17  C   UNL     1     -41.439 -54.147  13.333  1.00  0.00     0.067 C 
BRANCH  17  18
HETATM   18  C   UNL     1     -40.840 -52.944  12.610  1.00  0.00     0.168 C 
BRANCH  18  19
HETATM   19  O   UNL     1     -40.526 -53.302  11.268  1.00  0.00    -0.401 OA
HETATM   20  H   UNL     1     -39.612 -53.634  11.269  1.00  0.00     0.209 HD
ENDBRANCH  18  19
ENDBRANCH  17  18
ENDBRANCH   1  17
TORSDOF 6
ENDMDL
MODEL 8
REMARK VINA RESULT:      -5.0      4.807      7.126
REMARK  6 active torsions:
REMARK  status: ('A' for Active; 'I' for Inactive)
REMARK    1  A    between atoms: O_1  and  C_2 
REMARK    2  A    between atoms: C_2  and  C_3 
REMARK    3  A    between atoms: C_3  and  C_4 
REMARK    4  A    between atoms: N_8  and  C_9 
REMARK    5  A    between atoms: C_9  and  C_10 
REMARK       I    between atoms: C_10  and  N_12 
REMARK    6  A    between atoms: N_12  and  C_13 
ROOT
HETATM    1  C   UNL     1     -43.164 -54.238  13.829  1.00  0.00    -0.022 A 
HETATM    2  C   UNL     1     -43.968 -53.884  12.722  1.00  0.00     0.115 A 
HETATM    3  N   UNL     1     -43.431 -52.913  11.980  1.00  0.00    -0.309 N 
ATOM      4  HN  UNL     1     -43.820 -52.465  11.151  1.00  0.00     0.186 HD
HETATM    5  N   UNL     1     -42.253 -52.662  12.588  1.00  0.00    -0.294 N 
HETATM    6  C   UNL     1     -42.055 -53.428  13.702  1.00  0.00     0.119 A 
ENDROOT
BRANCH   5   7
HETATM    7  C   UNL     1     -41.320 -51.739  11.977  1.00  0.00     0.250 C 
BRANCH   7   8
HETATM    8  C   UNL     1     -41.816 -50.316  12.040  1.00  0.00     0.237 C 
HETATM    9  O   UNL     1     -42.615 -49.958  12.903  1.00  0.00    -0.272 OA
HETATM   10  N   UNL     1     -41.296 -49.447  11.093  1.00  0.00    -0.355 N 
HETATM   11  H   UNL     1     -40.869 -49.838  10.261  1.00  0.00     0.162 HD
BRANCH  10  12
HETATM   12  C   UNL     1     -41.767 -48.081  11.064  1.00  0.00     0.084 C 
HETATM   13  C   UNL     1     -42.663 -47.773   9.864  1.00  0.00     0.025 C 
HETATM   14  C   UNL     1     -42.590 -46.252   9.703  1.00  0.00     0.002 C 
HETATM   15  C   UNL     1     -41.504 -45.778  10.670  1.00  0.00     0.002 C 
HETATM   16  C   UNL     1     -40.676 -47.025  10.954  1.00  0.00     0.025 C 
ENDBRANCH  10  12
ENDBRANCH   7   8
ENDBRANCH   5   7
BRANCH   1  17
HETATM   17  C   UNL     1     -43.433 -55.269  14.869  1.00  0.00     0.067 C 
BRANCH  17  18
HETATM   18  C   UNL     1     -42.327 -55.363  15.917  1.00  0.00     0.168 C 
BRANCH  18  19
HETATM   19  O   UNL     1     -42.680 -56.335  16.896  1.00  0.00    -0.401 OA
HETATM   20  H   UNL     1     -43.390 -56.878  16.514  1.00  0.00     0.209 HD
ENDBRANCH  18  19
ENDBRANCH  17  18
ENDBRANCH   1  17
TORSDOF 6
ENDMDL
MODEL 9
REMARK VINA RESULT:      -4.9      5.062      7.662
REMARK  6 active torsions:
REMARK  status: ('A' for Active; 'I' for Inactive)
REMARK    1  A    between atoms: O_1  and  C_2 
REMARK    2  A    between atoms: C_2  and  C_3 
REMARK    3  A    between atoms: C_3  and  C_4 
REMARK    4  A    between atoms: N_8  and  C_9 
REMARK    5  A    between atoms: C_9  and  C_10 
REMARK       I    between atoms: C_10  and  N_12 
REMARK    6  A    between atoms: N_12  and  C_13 
ROOT
HETATM    1  C   UNL     1     -39.521 -50.321  12.321  1.00  0.00    -0.022 A 
HETATM    2  C   UNL     1     -40.408 -49.710  11.405  1.00  0.00     0.115 A 
HETATM    3  N   UNL     1     -41.590 -50.327  11.338  1.00  0.00    -0.309 N 
ATOM      4  HN  UNL     1     -42.386 -50.100  10.742  1.00  0.00     0.186 HD
HETATM    5  N   UNL     1     -41.483 -51.320  12.245  1.00  0.00    -0.294 N 
HETATM    6  C   UNL     1     -40.260 -51.358  12.853  1.00  0.00     0.119 A 
ENDROOT
BRANCH   5   7
HETATM    7  C   UNL     1     -42.643 -52.133  12.548  1.00  0.00     0.250 C 
BRANCH   7   8
HETATM    8  C   UNL     1     -43.707 -51.346  13.269  1.00  0.00     0.237 C 
HETATM    9  O   UNL     1     -43.820 -50.132  13.110  1.00  0.00    -0.272 OA
HETATM   10  N   UNL     1     -44.554 -52.075  14.091  1.00  0.00    -0.355 N 
HETATM   11  H   UNL     1     -44.258 -52.996  14.394  1.00  0.00     0.162 HD
BRANCH  10  12
HETATM   12  C   UNL     1     -45.564 -51.376  14.852  1.00  0.00     0.084 C 
HETATM   13  C   UNL     1     -45.087 -50.945  16.239  1.00  0.00     0.025 C 
HETATM   14  C   UNL     1     -46.371 -50.755  17.051  1.00  0.00     0.002 C 
HETATM   15  C   UNL     1     -47.507 -51.283  16.173  1.00  0.00     0.002 C 
HETATM   16  C   UNL     1     -46.816 -52.187  15.159  1.00  0.00     0.025 C 
ENDBRANCH  10  12
ENDBRANCH   7   8
ENDBRANCH   5   7
BRANCH   1  17
HETATM   17  C   UNL     1     -38.128 -49.920  12.660  1.00  0.00     0.067 C 
BRANCH  17  18
HETATM   18  C   UNL     1     -37.130 -51.069  12.543  1.00  0.00     0.168 C 
BRANCH  18  19
HETATM   19  O   UNL     1     -37.083 -51.524  11.195  1.00  0.00    -0.401 OA
HETATM   20  H   UNL     1     -37.951 -51.915  10.996  1.00  0.00     0.209 HD
ENDBRANCH  18  19
ENDBRANCH  17  18
ENDBRANCH   1  17
TORSDOF 6
ENDMDL
