MODEL 1
REMARK VINA RESULT:      -5.2      0.000      0.000
REMARK  4 active torsions:
REMARK  status: ('A' for Active; 'I' for Inactive)
REMARK    1  A    between atoms: C_2  and  S_3 
REMARK    2  A    between atoms: S_3  and  C_4 
REMARK    3  A    between atoms: C_7  and  N_8 
REMARK       I    between atoms: N_8  and  C_9 
REMARK    4  A    between atoms: C_9  and  C_11 
ROOT
HETATM    1  C   UNL     1     -42.364 -47.822  10.579  1.00  0.00     0.069 A 
HETATM    2  C   UNL     1     -43.101 -48.194  11.694  1.00  0.00     0.039 A 
HETATM    3  C   UNL     1     -42.692 -49.301  12.440  1.00  0.00     0.034 A 
HETATM    4  C   UNL     1     -41.553 -50.011  12.072  1.00  0.00     0.050 A 
HETATM    5  C   UNL     1     -40.875 -49.550  10.946  1.00  0.00     0.118 A 
HETATM    6  N   UNL     1     -41.252 -48.484  10.191  1.00  0.00    -0.358 N 
ATOM      7  HN  UNL     1     -40.721 -48.198   9.369  1.00  0.00     0.166 HD
ENDROOT
BRANCH   4   8
HETATM    8  N   UNL     1     -41.064 -51.128  12.791  1.00  0.00    -0.320 N 
HETATM    9  C   UNL     1     -41.634 -52.387  12.816  1.00  0.00     0.281 C 
HETATM   10  O   UNL     1     -42.602 -52.753  12.156  1.00  0.00    -0.265 OA
HETATM   11  H   UNL     1     -40.198 -51.021  13.307  1.00  0.00     0.169 HD
BRANCH   9  12
HETATM   12  C   UNL     1     -40.919 -53.347  13.732  1.00  0.00     0.159 C 
HETATM   13  C   UNL     1     -41.633 -53.864  14.739  1.00  0.00     0.177 C 
HETATM   14  O   UNL     1     -41.196 -54.753  15.669  1.00  0.00    -0.358 OA
HETATM   15  C   UNL     1     -39.815 -55.078  15.597  1.00  0.00     0.201 C 
HETATM   16  C   UNL     1     -39.020 -54.601  14.376  1.00  0.00     0.202 C 
HETATM   17  O   UNL     1     -39.599 -53.641  13.493  1.00  0.00    -0.342 OA
ENDBRANCH   9  12
ENDBRANCH   4   8
BRANCH   1  18
HETATM   18  S   UNL     1     -42.872 -46.362   9.687  1.00  0.00    -0.113 SA
BRANCH  18  19
HETATM   19  C   UNL     1     -44.167 -47.052   8.614  1.00  0.00     0.076 C 
HETATM   20  C   UNL     1     -43.529 -47.947   7.564  1.00  0.00     0.016 C 
ENDBRANCH  18  19
ENDBRANCH   1  18
TORSDOF 4
ENDMDL
MODEL 2
REMARK VINA RESULT:      -5.2      3.785      4.399
REMARK  4 active torsions:
REMARK  status: ('A' for Active; 'I' for Inactive)
REMARK    1  A    between atoms: C_2  and  S_3 
REMARK    2  A    between atoms: S_3  and  C_4 
REMARK    3  A    between atoms: C_7  and  N_8 
REMARK       I    between atoms: N_8  and  C_9 
REMARK    4  A    between atoms: C_9  and  C_11 
ROOT
HETATM    1  C   UNL     1     -42.759 -46.764   9.924  1.00  0.00     0.069 A 
HETATM    2  C   UNL     1     -43.052 -47.724  10.882  1.00  0.00     0.039 A 
HETATM    3  C   UNL     1     -42.078 -48.064  11.823  1.00  0.00     0.034 A 
HETATM    4  C   UNL     1     -40.836 -47.435  11.803  1.00  0.00     0.050 A 
HETATM    5  C   UNL     1     -40.645 -46.477  10.811  1.00  0.00     0.118 A 
HETATM    6  N   UNL     1     -41.567 -46.131   9.872  1.00  0.00    -0.358 N 
ATOM      7  HN  UNL     1     -41.367 -45.427   9.163  1.00  0.00     0.166 HD
ENDROOT
BRANCH   4   8
HETATM    8  N   UNL     1     -39.808 -47.710  12.737  1.00  0.00    -0.320 N 
HETATM    9  C   UNL     1     -38.833 -48.680  12.605  1.00  0.00     0.281 C 
HETATM   10  O   UNL     1     -38.656 -49.395  11.623  1.00  0.00    -0.265 OA
HETATM   11  H   UNL     1     -39.747 -47.125  13.563  1.00  0.00     0.169 HD
BRANCH   9  12
HETATM   12  C   UNL     1     -37.922 -48.775  13.802  1.00  0.00     0.159 C 
HETATM   13  C   UNL     1     -37.611 -50.006  14.225  1.00  0.00     0.177 C 
HETATM   14  O   UNL     1     -36.800 -50.323  15.269  1.00  0.00    -0.358 OA
HETATM   15  C   UNL     1     -36.325 -49.219  16.026  1.00  0.00     0.201 C 
HETATM   16  C   UNL     1     -36.563 -47.807  15.479  1.00  0.00     0.202 C 
HETATM   17  O   UNL     1     -37.463 -47.620  14.387  1.00  0.00    -0.342 OA
ENDBRANCH   9  12
ENDBRANCH   4   8
BRANCH   1  18
HETATM   18  S   UNL     1     -44.047 -46.302   8.778  1.00  0.00    -0.113 SA
BRANCH  18  19
HETATM   19  C   UNL     1     -45.250 -47.635   9.062  1.00  0.00     0.076 C 
HETATM   20  C   UNL     1     -46.652 -47.047   9.112  1.00  0.00     0.016 C 
ENDBRANCH  18  19
ENDBRANCH   1  18
TORSDOF 4
ENDMDL
MODEL 3
REMARK VINA RESULT:      -5.0      2.790      3.681
REMARK  4 active torsions:
REMARK  status: ('A' for Active; 'I' for Inactive)
REMARK    1  A    between atoms: C_2  and  S_3 
REMARK    2  A    between atoms: S_3  and  C_4 
REMARK    3  A    between atoms: C_7  and  N_8 
REMARK       I    between atoms: N_8  and  C_9 
REMARK    4  A    between atoms: C_9  and  C_11 
ROOT
HETATM    1  C   UNL     1     -40.968 -47.115  11.177  1.00  0.00     0.069 A 
HETATM    2  C   UNL     1     -42.175 -46.971  11.846  1.00  0.00     0.039 A 
HETATM    3  C   UNL     1     -42.860 -48.112  12.266  1.00  0.00     0.034 A 
HETATM    4  C   UNL     1     -42.328 -49.376  12.023  1.00  0.00     0.050 A 
HETATM    5  C   UNL     1     -41.106 -49.414  11.357  1.00  0.00     0.118 A 
HETATM    6  N   UNL     1     -40.418 -48.323  10.925  1.00  0.00    -0.358 N 
ATOM      7  HN  UNL     1     -39.530 -48.413  10.433  1.00  0.00     0.166 HD
ENDROOT
BRANCH   4   8
HETATM    8  N   UNL     1     -42.953 -50.577  12.438  1.00  0.00    -0.320 N 
HETATM    9  C   UNL     1     -42.591 -51.343  13.530  1.00  0.00     0.281 C 
HETATM   10  O   UNL     1     -41.727 -51.058  14.355  1.00  0.00    -0.265 OA
HETATM   11  H   UNL     1     -43.764 -50.895  11.920  1.00  0.00     0.169 HD
BRANCH   9  12
HETATM   12  C   UNL     1     -43.404 -52.604  13.669  1.00  0.00     0.159 C 
HETATM   13  C   UNL     1     -43.985 -53.071  12.558  1.00  0.00     0.177 C 
HETATM   14  O   UNL     1     -44.746 -54.192  12.452  1.00  0.00    -0.358 OA
HETATM   15  C   UNL     1     -45.012 -54.864  13.675  1.00  0.00     0.201 C 
HETATM   16  C   UNL     1     -44.250 -54.419  14.928  1.00  0.00     0.202 C 
HETATM   17  O   UNL     1     -43.506 -53.201  14.902  1.00  0.00    -0.342 OA
ENDBRANCH   9  12
ENDBRANCH   4   8
BRANCH   1  18
HETATM   18  S   UNL     1     -40.082 -45.636  10.715  1.00  0.00    -0.113 SA
BRANCH  18  19
HETATM   19  C   UNL     1     -40.310 -44.622  12.207  1.00  0.00     0.076 C 
HETATM   20  C   UNL     1     -39.166 -44.883  13.174  1.00  0.00     0.016 C 
ENDBRANCH  18  19
ENDBRANCH   1  18
TORSDOF 4
ENDMDL
MODEL 4
REMARK VINA RESULT:      -4.9      7.553     10.081
REMARK  4 active torsions:
REMARK  status: ('A' for Active; 'I' for Inactive)
REMARK    1  A    between atoms: C_2  and  S_3 
REMARK    2  A    between atoms: S_3  and  C_4 
REMARK    3  A    between atoms: C_7  and  N_8 
REMARK       I    between atoms: N_8  and  C_9 
REMARK    4  A    between atoms: C_9  and  C_11 
ROOT
HETATM    1  C   UNL     1     -41.935 -46.133  10.572  1.00  0.00     0.069 A 
HETATM    2  C   UNL     1     -40.554 -45.996  10.601  1.00  0.00     0.039 A 
HETATM    3  C   UNL     1     -40.001 -44.759  10.935  1.00  0.00     0.034 A 
HETATM    4  C   UNL     1     -40.829 -43.684  11.245  1.00  0.00     0.050 A 
HETATM    5  C   UNL     1     -42.200 -43.926  11.200  1.00  0.00     0.118 A 
HETATM    6  N   UNL     1     -42.771 -45.114  10.867  1.00  0.00    -0.358 N 
ATOM      7  HN  UNL     1     -43.784 -45.230  10.842  1.00  0.00     0.166 HD
ENDROOT
BRANCH   4   8
HETATM    8  N   UNL     1     -40.342 -42.406  11.614  1.00  0.00    -0.320 N 
HETATM    9  C   UNL     1     -39.898 -42.042  12.871  1.00  0.00     0.281 C 
HETATM   10  O   UNL     1     -39.780 -42.788  13.839  1.00  0.00    -0.265 OA
HETATM   11  H   UNL     1     -40.271 -41.697  10.893  1.00  0.00     0.169 HD
BRANCH   9  12
HETATM   12  C   UNL     1     -39.508 -40.589  12.967  1.00  0.00     0.159 C 
HETATM   13  C   UNL     1     -40.306 -39.709  12.351  1.00  0.00     0.177 C 
HETATM   14  O   UNL     1     -40.152 -38.359  12.320  1.00  0.00    -0.358 OA
HETATM   15  C   UNL     1     -38.968 -37.869  12.932  1.00  0.00     0.201 C 
HETATM   16  C   UNL     1     -38.117 -38.844  13.753  1.00  0.00     0.202 C 
HETATM   17  O   UNL     1     -38.378 -40.245  13.669  1.00  0.00    -0.342 OA
ENDBRANCH   9  12
ENDBRANCH   4   8
BRANCH   1  18
HETATM   18  S   UNL     1     -42.611 -47.745  10.209  1.00  0.00    -0.113 SA
BRANCH  18  19
HETATM   19  C   UNL     1     -43.617 -47.370   8.742  1.00  0.00     0.076 C 
HETATM   20  C   UNL     1     -45.089 -47.386   9.123  1.00  0.00     0.016 C 
ENDBRANCH  18  19
ENDBRANCH   1  18
TORSDOF 4
ENDMDL
MODEL 5
REMARK VINA RESULT:      -4.8      3.634      7.724
REMARK  4 active torsions:
REMARK  status: ('A' for Active; 'I' for Inactive)
REMARK    1  A    between atoms: C_2  and  S_3 
REMARK    2  A    between atoms: S_3  and  C_4 
REMARK    3  A    between atoms: C_7  and  N_8 
REMARK       I    between atoms: N_8  and  C_9 
REMARK    4  A    between atoms: C_9  and  C_11 
ROOT
HETATM    1  C   UNL     1     -40.040 -52.382  13.367  1.00  0.00     0.069 A 
HETATM    2  C   UNL     1     -39.276 -51.286  12.992  1.00  0.00     0.039 A 
HETATM    3  C   UNL     1     -39.872 -50.264  12.251  1.00  0.00     0.034 A 
HETATM    4  C   UNL     1     -41.218 -50.344  11.906  1.00  0.00     0.050 A 
HETATM    5  C   UNL     1     -41.901 -51.477  12.340  1.00  0.00     0.118 A 
HETATM    6  N   UNL     1     -41.349 -52.495  13.053  1.00  0.00    -0.358 N 
ATOM      7  HN  UNL     1     -41.898 -53.307  13.336  1.00  0.00     0.166 HD
ENDROOT
BRANCH   4   8
HETATM    8  N   UNL     1     -41.897 -49.338  11.176  1.00  0.00    -0.320 N 
HETATM    9  C   UNL     1     -42.527 -48.233  11.716  1.00  0.00     0.281 C 
HETATM   10  O   UNL     1     -42.525 -47.908  12.900  1.00  0.00    -0.265 OA
HETATM   11  H   UNL     1     -41.895 -49.401  10.164  1.00  0.00     0.169 HD
BRANCH   9  12
HETATM   12  C   UNL     1     -43.222 -47.380  10.684  1.00  0.00     0.159 C 
HETATM   13  C   UNL     1     -42.615 -46.238  10.340  1.00  0.00     0.177 C 
HETATM   14  O   UNL     1     -43.053 -45.332   9.427  1.00  0.00    -0.358 OA
HETATM   15  C   UNL     1     -44.329 -45.603   8.866  1.00  0.00     0.201 C 
HETATM   16  C   UNL     1     -44.972 -46.966   9.149  1.00  0.00     0.202 C 
HETATM   17  O   UNL     1     -44.416 -47.808  10.158  1.00  0.00    -0.342 OA
ENDBRANCH   9  12
ENDBRANCH   4   8
BRANCH   1  18
HETATM   18  S   UNL     1     -39.268 -53.638  14.373  1.00  0.00    -0.113 SA
BRANCH  18  19
HETATM   19  C   UNL     1     -40.382 -53.657  15.809  1.00  0.00     0.076 C 
HETATM   20  C   UNL     1     -41.213 -54.930  15.787  1.00  0.00     0.016 C 
ENDBRANCH  18  19
ENDBRANCH   1  18
TORSDOF 4
ENDMDL
MODEL 6
REMARK VINA RESULT:      -4.8      2.484      2.943
REMARK  4 active torsions:
REMARK  status: ('A' for Active; 'I' for Inactive)
REMARK    1  A    between atoms: C_2  and  S_3 
REMARK    2  A    between atoms: S_3  and  C_4 
REMARK    3  A    between atoms: C_7  and  N_8 
REMARK       I    between atoms: N_8  and  C_9 
REMARK    4  A    between atoms: C_9  and  C_11 
ROOT
HETATM    1  C   UNL     1     -40.131 -46.256  11.186  1.00  0.00     0.069 A 
HETATM    2  C   UNL     1     -39.630 -46.387  12.473  1.00  0.00     0.039 A 
HETATM    3  C   UNL     1     -39.705 -47.628  13.108  1.00  0.00     0.034 A 
HETATM    4  C   UNL     1     -40.266 -48.718  12.449  1.00  0.00     0.050 A 
HETATM    5  C   UNL     1     -40.728 -48.487  11.156  1.00  0.00     0.118 A 
HETATM    6  N   UNL     1     -40.681 -47.290  10.513  1.00  0.00    -0.358 N 
ATOM      7  HN  UNL     1     -41.044 -47.178   9.567  1.00  0.00     0.166 HD
ENDROOT
BRANCH   4   8
HETATM    8  N   UNL     1     -40.357 -50.011  13.019  1.00  0.00    -0.320 N 
HETATM    9  C   UNL     1     -39.493 -51.063  12.780  1.00  0.00     0.281 C 
HETATM   10  O   UNL     1     -38.470 -51.016  12.104  1.00  0.00    -0.265 OA
HETATM   11  H   UNL     1     -41.093 -50.183  13.694  1.00  0.00     0.169 HD
BRANCH   9  12
HETATM   12  C   UNL     1     -39.895 -52.335  13.481  1.00  0.00     0.159 C 
HETATM   13  C   UNL     1     -41.169 -52.425  13.882  1.00  0.00     0.177 C 
HETATM   14  O   UNL     1     -41.746 -53.479  14.516  1.00  0.00    -0.358 OA
HETATM   15  C   UNL     1     -40.865 -54.539  14.858  1.00  0.00     0.201 C 
HETATM   16  C   UNL     1     -39.441 -54.510  14.293  1.00  0.00     0.202 C 
HETATM   17  O   UNL     1     -38.957 -53.320  13.670  1.00  0.00    -0.342 OA
ENDBRANCH   9  12
ENDBRANCH   4   8
BRANCH   1  18
HETATM   18  S   UNL     1     -39.958 -44.675  10.375  1.00  0.00    -0.113 SA
BRANCH  18  19
HETATM   19  C   UNL     1     -40.921 -43.612  11.492  1.00  0.00     0.076 C 
HETATM   20  C   UNL     1     -42.399 -43.935  11.345  1.00  0.00     0.016 C 
ENDBRANCH  18  19
ENDBRANCH   1  18
TORSDOF 4
ENDMDL
MODEL 7
REMARK VINA RESULT:      -4.7      4.342      7.466
REMARK  4 active torsions:
REMARK  status: ('A' for Active; 'I' for Inactive)
REMARK    1  A    between atoms: C_2  and  S_3 
REMARK    2  A    between atoms: S_3  and  C_4 
REMARK    3  A    between atoms: C_7  and  N_8 
REMARK       I    between atoms: N_8  and  C_9 
REMARK    4  A    between atoms: C_9  and  C_11 
ROOT
HETATM    1  C   UNL     1     -43.020 -52.115  12.739  1.00  0.00     0.069 A 
HETATM    2  C   UNL     1     -43.849 -51.153  13.297  1.00  0.00     0.039 A 
HETATM    3  C   UNL     1     -43.538 -49.804  13.123  1.00  0.00     0.034 A 
HETATM    4  C   UNL     1     -42.415 -49.435  12.388  1.00  0.00     0.050 A 
HETATM    5  C   UNL     1     -41.654 -50.474  11.858  1.00  0.00     0.118 A 
HETATM    6  N   UNL     1     -41.923 -51.797  12.018  1.00  0.00    -0.358 N 
ATOM      7  HN  UNL     1     -41.323 -52.516  11.614  1.00  0.00     0.166 HD
ENDROOT
BRANCH   4   8
HETATM    8  N   UNL     1     -42.047 -48.088  12.150  1.00  0.00    -0.320 N 
HETATM    9  C   UNL     1     -42.195 -47.407  10.956  1.00  0.00     0.281 C 
HETATM   10  O   UNL     1     -42.743 -47.837   9.945  1.00  0.00    -0.265 OA
HETATM   11  H   UNL     1     -41.676 -47.551  12.926  1.00  0.00     0.169 HD
BRANCH   9  12
HETATM   12  C   UNL     1     -41.644 -46.005  10.997  1.00  0.00     0.159 C 
HETATM   13  C   UNL     1     -40.343 -45.861  10.715  1.00  0.00     0.177 C 
HETATM   14  O   UNL     1     -39.647 -44.695  10.680  1.00  0.00    -0.358 OA
HETATM   15  C   UNL     1     -40.373 -43.542  11.077  1.00  0.00     0.201 C 
HETATM   16  C   UNL     1     -41.888 -43.669  11.274  1.00  0.00     0.202 C 
HETATM   17  O   UNL     1     -42.483 -44.966  11.313  1.00  0.00    -0.342 OA
ENDBRANCH   9  12
ENDBRANCH   4   8
BRANCH   1  18
HETATM   18  S   UNL     1     -43.483 -53.830  12.920  1.00  0.00    -0.113 SA
BRANCH  18  19
HETATM   19  C   UNL     1     -45.262 -53.668  13.258  1.00  0.00     0.076 C 
HETATM   20  C   UNL     1     -45.725 -54.846  14.100  1.00  0.00     0.016 C 
ENDBRANCH  18  19
ENDBRANCH   1  18
TORSDOF 4
ENDMDL
MODEL 8
REMARK VINA RESULT:      -4.5     18.897     20.501
REMARK  4 active torsions:
REMARK  status: ('A' for Active; 'I' for Inactive)
REMARK    1  A    between atoms: C_2  and  S_3 
REMARK    2  A    between atoms: S_3  and  C_4 
REMARK    3  A    between atoms: C_7  and  N_8 
REMARK       I    between atoms: N_8  and  C_9 
REMARK    4  A    between atoms: C_9  and  C_11 
ROOT
HETATM    1  C   UNL     1     -26.376 -43.081  -1.083  1.00  0.00     0.069 A 
HETATM    2  C   UNL     1     -26.331 -44.429  -1.406  1.00  0.00     0.039 A 
HETATM    3  C   UNL     1     -27.486 -45.055  -1.876  1.00  0.00     0.034 A 
HETATM    4  C   UNL     1     -28.663 -44.327  -2.027  1.00  0.00     0.050 A 
HETATM    5  C   UNL     1     -28.603 -42.978  -1.688  1.00  0.00     0.118 A 
HETATM    6  N   UNL     1     -27.498 -42.340  -1.217  1.00  0.00    -0.358 N 
ATOM      7  HN  UNL     1     -27.515 -41.350  -0.976  1.00  0.00     0.166 HD
ENDROOT
BRANCH   4   8
HETATM    8  N   UNL     1     -29.868 -44.886  -2.518  1.00  0.00    -0.320 N 
HETATM    9  C   UNL     1     -30.489 -46.022  -2.036  1.00  0.00     0.281 C 
HETATM   10  O   UNL     1     -30.139 -46.674  -1.057  1.00  0.00    -0.265 OA
HETATM   11  H   UNL     1     -30.350 -44.397  -3.266  1.00  0.00     0.169 HD
BRANCH   9  12
HETATM   12  C   UNL     1     -31.722 -46.404  -2.815  1.00  0.00     0.159 C 
HETATM   13  C   UNL     1     -32.343 -45.421  -3.478  1.00  0.00     0.177 C 
HETATM   14  O   UNL     1     -33.455 -45.542  -4.250  1.00  0.00    -0.358 OA
HETATM   15  C   UNL     1     -34.050 -46.831  -4.261  1.00  0.00     0.201 C 
HETATM   16  C   UNL     1     -33.280 -47.991  -3.618  1.00  0.00     0.202 C 
HETATM   17  O   UNL     1     -32.138 -47.712  -2.809  1.00  0.00    -0.342 OA
ENDBRANCH   9  12
ENDBRANCH   4   8
BRANCH   1  18
HETATM   18  S   UNL     1     -24.865 -42.294  -0.551  1.00  0.00    -0.113 SA
BRANCH  18  19
HETATM   19  C   UNL     1     -24.993 -42.493   1.251  1.00  0.00     0.076 C 
HETATM   20  C   UNL     1     -25.748 -41.310   1.837  1.00  0.00     0.016 C 
ENDBRANCH  18  19
ENDBRANCH   1  18
TORSDOF 4
ENDMDL
MODEL 9
REMARK VINA RESULT:      -4.5     13.648     14.849
REMARK  4 active torsions:
REMARK  status: ('A' for Active; 'I' for Inactive)
REMARK    1  A    between atoms: C_2  and  S_3 
REMARK    2  A    between atoms: S_3  and  C_4 
REMARK    3  A    between atoms: C_7  and  N_8 
REMARK       I    between atoms: N_8  and  C_9 
REMARK    4  A    between atoms: C_9  and  C_11 
ROOT
HETATM    1  C   UNL     1     -50.769 -44.725   2.810  1.00  0.00     0.069 A 
HETATM    2  C   UNL     1     -49.527 -45.223   2.442  1.00  0.00     0.039 A 
HETATM    3  C   UNL     1     -49.458 -46.438   1.759  1.00  0.00     0.034 A 
HETATM    4  C   UNL     1     -50.624 -47.131   1.444  1.00  0.00     0.050 A 
HETATM    5  C   UNL     1     -51.820 -46.541   1.845  1.00  0.00     0.118 A 
HETATM    6  N   UNL     1     -51.922 -45.366   2.521  1.00  0.00    -0.358 N 
ATOM      7  HN  UNL     1     -52.827 -44.987   2.797  1.00  0.00     0.166 HD
ENDROOT
BRANCH   4   8
HETATM    8  N   UNL     1     -50.635 -48.356   0.734  1.00  0.00    -0.320 N 
HETATM    9  C   UNL     1     -50.228 -49.581   1.228  1.00  0.00     0.281 C 
HETATM   10  O   UNL     1     -49.874 -49.812   2.380  1.00  0.00    -0.265 OA
HETATM   11  H   UNL     1     -51.008 -48.357  -0.209  1.00  0.00     0.169 HD
BRANCH   9  12
HETATM   12  C   UNL     1     -50.294 -50.687   0.206  1.00  0.00     0.159 C 
HETATM   13  C   UNL     1     -51.456 -50.842  -0.440  1.00  0.00     0.177 C 
HETATM   14  O   UNL     1     -51.730 -51.760  -1.404  1.00  0.00    -0.358 OA
HETATM   15  C   UNL     1     -50.694 -52.694  -1.666  1.00  0.00     0.201 C 
HETATM   16  C   UNL     1     -49.319 -52.449  -1.034  1.00  0.00     0.202 C 
HETATM   17  O   UNL     1     -49.182 -51.464  -0.011  1.00  0.00    -0.342 OA
ENDBRANCH   9  12
ENDBRANCH   4   8
BRANCH   1  18
HETATM   18  S   UNL     1     -50.829 -43.135   3.620  1.00  0.00    -0.113 SA
BRANCH  18  19
HETATM   19  C   UNL     1     -49.169 -43.067   4.359  1.00  0.00     0.076 C 
HETATM   20  C   UNL     1     -49.273 -42.555   5.787  1.00  0.00     0.016 C 
ENDBRANCH  18  19
ENDBRANCH   1  18
TORSDOF 4
ENDMDL
