MODEL 1
REMARK VINA RESULT:      -6.3      0.000      0.000
REMARK  5 active torsions:
REMARK  status: ('A' for Active; 'I' for Inactive)
REMARK    1  A    between atoms: C_4  and  N_5 
REMARK       I    between atoms: N_5  and  C_6 
REMARK       I    between atoms: C_6  and  N_8 
REMARK    2  A    between atoms: N_8  and  C_9 
REMARK    3  A    between atoms: C_9  and  C_10 
REMARK    4  A    between atoms: C_10  and  C_11 
REMARK    5  A    between atoms: C_11  and  N_12 
ROOT
HETATM    1  N   UNL     1     -42.099 -48.235   9.537  1.00  0.00    -0.309 N 
HETATM    2  C   UNL     1     -41.546 -48.542  10.761  1.00  0.00     0.320 C 
HETATM    3  O   UNL     1     -41.912 -48.119  11.850  1.00  0.00    -0.247 OA
HETATM    4  N   UNL     1     -40.513 -49.447  10.669  1.00  0.00    -0.343 N 
HETATM    5  H   UNL     1     -41.688 -48.668   8.722  1.00  0.00     0.170 HD
HETATM    6  H   UNL     1     -39.957 -49.418   9.828  1.00  0.00     0.164 HD
ENDROOT
BRANCH   1   7
HETATM    7  C   UNL     1     -43.216 -47.391   9.328  1.00  0.00     0.039 A 
HETATM    8  C   UNL     1     -44.521 -47.874   9.244  1.00  0.00     0.054 A 
HETATM    9  C   UNL     1     -45.578 -46.993   9.063  1.00  0.00     0.007 A 
HETATM   10  C   UNL     1     -46.982 -47.522   9.031  1.00  0.00     0.068 C 
HETATM   11  N   UNL     1     -45.395 -45.662   8.944  1.00  0.00    -0.369 N 
HETATM   12  C   UNL     1     -44.124 -45.209   9.010  1.00  0.00     0.090 A 
ATOM     13  HN  UNL     1     -46.180 -45.025   8.811  1.00  0.00     0.165 HD
HETATM   14  C   UNL     1     -43.014 -46.020   9.198  1.00  0.00     0.046 A 
ENDBRANCH   1   7
BRANCH   4  15
HETATM   15  C   UNL     1     -39.847 -49.860  11.898  1.00  0.00     0.126 C 
BRANCH  15  16
HETATM   16  C   UNL     1     -40.121 -51.323  12.192  1.00  0.00     0.050 C 
BRANCH  16  17
HETATM   17  C   UNL     1     -41.511 -51.555  12.810  1.00  0.00     0.274 C 
BRANCH  17  18
HETATM   18  N   UNL     1     -42.050 -52.853  12.382  1.00  0.00     0.092 N 
HETATM   19  C   UNL     1     -43.513 -52.983  12.557  1.00  0.00     0.298 C 
HETATM   20  C   UNL     1     -43.952 -53.297  13.993  1.00  0.00     0.198 C 
HETATM   21  O   UNL     1     -43.349 -54.513  14.444  1.00  0.00    -0.388 OA
HETATM   22  C   UNL     1     -41.923 -54.390  14.427  1.00  0.00     0.198 C 
HETATM   23  C   UNL     1     -41.387 -54.005  13.034  1.00  0.00     0.298 C 
ENDBRANCH  17  18
ENDBRANCH  16  17
ENDBRANCH  15  16
ENDBRANCH   4  15
TORSDOF 5
ENDMDL
MODEL 2
REMARK VINA RESULT:      -6.2      1.878      7.458
REMARK  5 active torsions:
REMARK  status: ('A' for Active; 'I' for Inactive)
REMARK    1  A    between atoms: C_4  and  N_5 
REMARK       I    between atoms: N_5  and  C_6 
REMARK       I    between atoms: C_6  and  N_8 
REMARK    2  A    between atoms: N_8  and  C_9 
REMARK    3  A    between atoms: C_9  and  C_10 
REMARK    4  A    between atoms: C_10  and  C_11 
REMARK    5  A    between atoms: C_11  and  N_12 
ROOT
HETATM    1  N   UNL     1     -42.332 -52.357  11.810  1.00  0.00    -0.309 N 
HETATM    2  C   UNL     1     -41.518 -51.324  12.222  1.00  0.00     0.320 C 
HETATM    3  O   UNL     1     -41.318 -50.974  13.378  1.00  0.00    -0.247 OA
HETATM    4  N   UNL     1     -40.874 -50.701  11.177  1.00  0.00    -0.343 N 
HETATM    5  H   UNL     1     -42.393 -52.528  10.817  1.00  0.00     0.170 HD
HETATM    6  H   UNL     1     -41.363 -50.671  10.295  1.00  0.00     0.164 HD
ENDROOT
BRANCH   1   7
HETATM    7  C   UNL     1     -43.061 -53.218  12.664  1.00  0.00     0.039 A 
HETATM    8  C   UNL     1     -42.464 -53.944  13.693  1.00  0.00     0.054 A 
HETATM    9  C   UNL     1     -43.237 -54.754  14.513  1.00  0.00     0.007 A 
HETATM   10  C   UNL     1     -42.589 -55.485  15.651  1.00  0.00     0.068 C 
HETATM   11  N   UNL     1     -44.570 -54.887  14.345  1.00  0.00    -0.369 N 
HETATM   12  C   UNL     1     -45.133 -54.192  13.333  1.00  0.00     0.090 A 
ATOM     13  HN  UNL     1     -45.126 -55.486  14.954  1.00  0.00     0.165 HD
HETATM   14  C   UNL     1     -44.434 -53.354  12.476  1.00  0.00     0.046 A 
ENDBRANCH   1   7
BRANCH   4  15
HETATM   15  C   UNL     1     -39.977 -49.593  11.482  1.00  0.00     0.126 C 
BRANCH  15  16
HETATM   16  C   UNL     1     -40.678 -48.263  11.277  1.00  0.00     0.050 C 
BRANCH  16  17
HETATM   17  C   UNL     1     -41.806 -48.339  10.234  1.00  0.00     0.274 C 
BRANCH  17  18
HETATM   18  N   UNL     1     -42.993 -47.617  10.711  1.00  0.00     0.092 N 
HETATM   19  C   UNL     1     -43.990 -47.334   9.655  1.00  0.00     0.298 C 
HETATM   20  C   UNL     1     -43.643 -46.134   8.766  1.00  0.00     0.198 C 
HETATM   21  O   UNL     1     -43.500 -44.951   9.558  1.00  0.00    -0.388 OA
HETATM   22  C   UNL     1     -42.445 -45.124  10.510  1.00  0.00     0.198 C 
HETATM   23  C   UNL     1     -42.668 -46.355  11.412  1.00  0.00     0.298 C 
ENDBRANCH  17  18
ENDBRANCH  16  17
ENDBRANCH  15  16
ENDBRANCH   4  15
TORSDOF 5
ENDMDL
MODEL 3
REMARK VINA RESULT:      -6.0      2.823      4.265
REMARK  5 active torsions:
REMARK  status: ('A' for Active; 'I' for Inactive)
REMARK    1  A    between atoms: C_4  and  N_5 
REMARK       I    between atoms: N_5  and  C_6 
REMARK       I    between atoms: C_6  and  N_8 
REMARK    2  A    between atoms: N_8  and  C_9 
REMARK    3  A    between atoms: C_9  and  C_10 
REMARK    4  A    between atoms: C_10  and  C_11 
REMARK    5  A    between atoms: C_11  and  N_12 
ROOT
HETATM    1  N   UNL     1     -41.995 -48.231   9.503  1.00  0.00    -0.309 N 
HETATM    2  C   UNL     1     -41.614 -48.812  10.693  1.00  0.00     0.320 C 
HETATM    3  O   UNL     1     -42.170 -48.680  11.775  1.00  0.00    -0.247 OA
HETATM    4  N   UNL     1     -40.519 -49.635  10.560  1.00  0.00    -0.343 N 
HETATM    5  H   UNL     1     -41.435 -48.438   8.688  1.00  0.00     0.170 HD
HETATM    6  H   UNL     1     -39.845 -49.384   9.853  1.00  0.00     0.164 HD
ENDROOT
BRANCH   1   7
HETATM    7  C   UNL     1     -43.122 -47.395   9.320  1.00  0.00     0.039 A 
HETATM    8  C   UNL     1     -44.420 -47.892   9.209  1.00  0.00     0.054 A 
HETATM    9  C   UNL     1     -45.489 -47.021   9.055  1.00  0.00     0.007 A 
HETATM   10  C   UNL     1     -46.884 -47.567   8.994  1.00  0.00     0.068 C 
HETATM   11  N   UNL     1     -45.323 -45.683   8.989  1.00  0.00    -0.369 N 
HETATM   12  C   UNL     1     -44.060 -45.215   9.080  1.00  0.00     0.090 A 
ATOM     13  HN  UNL     1     -46.117 -45.053   8.876  1.00  0.00     0.165 HD
HETATM   14  C   UNL     1     -42.939 -46.018   9.244  1.00  0.00     0.046 A 
ENDBRANCH   1   7
BRANCH   4  15
HETATM   15  C   UNL     1     -40.020 -50.317  11.748  1.00  0.00     0.126 C 
BRANCH  15  16
HETATM   16  C   UNL     1     -38.513 -50.182  11.851  1.00  0.00     0.050 C 
BRANCH  16  17
HETATM   17  C   UNL     1     -38.080 -48.987  12.719  1.00  0.00     0.274 C 
BRANCH  17  18
HETATM   18  N   UNL     1     -39.170 -48.587  13.618  1.00  0.00     0.092 N 
HETATM   19  C   UNL     1     -39.536 -47.157  13.520  1.00  0.00     0.298 C 
HETATM   20  C   UNL     1     -38.594 -46.212  14.276  1.00  0.00     0.198 C 
HETATM   21  O   UNL     1     -38.550 -46.557  15.664  1.00  0.00    -0.388 OA
HETATM   22  C   UNL     1     -38.064 -47.895  15.822  1.00  0.00     0.198 C 
HETATM   23  C   UNL     1     -38.910 -48.918  15.037  1.00  0.00     0.298 C 
ENDBRANCH  17  18
ENDBRANCH  16  17
ENDBRANCH  15  16
ENDBRANCH   4  15
TORSDOF 5
ENDMDL
MODEL 4
REMARK VINA RESULT:      -5.9      1.558      2.366
REMARK  5 active torsions:
REMARK  status: ('A' for Active; 'I' for Inactive)
REMARK    1  A    between atoms: C_4  and  N_5 
REMARK       I    between atoms: N_5  and  C_6 
REMARK       I    between atoms: C_6  and  N_8 
REMARK    2  A    between atoms: N_8  and  C_9 
REMARK    3  A    between atoms: C_9  and  C_10 
REMARK    4  A    between atoms: C_10  and  C_11 
REMARK    5  A    between atoms: C_11  and  N_12 
ROOT
HETATM    1  N   UNL     1     -41.032 -49.203  10.637  1.00  0.00    -0.309 N 
HETATM    2  C   UNL     1     -41.104 -50.003  11.757  1.00  0.00     0.320 C 
HETATM    3  O   UNL     1     -41.719 -49.757  12.786  1.00  0.00    -0.247 OA
HETATM    4  N   UNL     1     -40.426 -51.192  11.609  1.00  0.00    -0.343 N 
HETATM    5  H   UNL     1     -40.485 -49.545   9.859  1.00  0.00     0.170 HD
HETATM    6  H   UNL     1     -39.608 -51.178  11.019  1.00  0.00     0.164 HD
ENDROOT
BRANCH   1   7
HETATM    7  C   UNL     1     -41.685 -47.959  10.473  1.00  0.00     0.039 A 
HETATM    8  C   UNL     1     -42.880 -47.822   9.768  1.00  0.00     0.054 A 
HETATM    9  C   UNL     1     -43.487 -46.579   9.661  1.00  0.00     0.007 A 
HETATM   10  C   UNL     1     -44.801 -46.457   8.948  1.00  0.00     0.068 C 
HETATM   11  N   UNL     1     -42.952 -45.467  10.208  1.00  0.00    -0.369 N 
HETATM   12  C   UNL     1     -41.785 -45.610  10.872  1.00  0.00     0.090 A 
ATOM     13  HN  UNL     1     -43.408 -44.559  10.122  1.00  0.00     0.165 HD
HETATM   14  C   UNL     1     -41.120 -46.817  11.032  1.00  0.00     0.046 A 
ENDBRANCH   1   7
BRANCH   4  15
HETATM   15  C   UNL     1     -40.431 -52.132  12.723  1.00  0.00     0.126 C 
BRANCH  15  16
HETATM   16  C   UNL     1     -41.089 -53.439  12.319  1.00  0.00     0.050 C 
BRANCH  16  17
HETATM   17  C   UNL     1     -41.930 -54.056  13.450  1.00  0.00     0.274 C 
BRANCH  17  18
HETATM   18  N   UNL     1     -43.165 -53.285  13.648  1.00  0.00     0.092 N 
HETATM   19  C   UNL     1     -43.485 -53.016  15.067  1.00  0.00     0.298 C 
HETATM   20  C   UNL     1     -44.129 -54.197  15.803  1.00  0.00     0.198 C 
HETATM   21  O   UNL     1     -45.340 -54.591  15.150  1.00  0.00    -0.388 OA
HETATM   22  C   UNL     1     -45.062 -54.997  13.806  1.00  0.00     0.198 C 
HETATM   23  C   UNL     1     -44.346 -53.895  12.999  1.00  0.00     0.298 C 
ENDBRANCH  17  18
ENDBRANCH  16  17
ENDBRANCH  15  16
ENDBRANCH   4  15
TORSDOF 5
ENDMDL
MODEL 5
REMARK VINA RESULT:      -5.9      2.340      7.171
REMARK  5 active torsions:
REMARK  status: ('A' for Active; 'I' for Inactive)
REMARK    1  A    between atoms: C_4  and  N_5 
REMARK       I    between atoms: N_5  and  C_6 
REMARK       I    between atoms: C_6  and  N_8 
REMARK    2  A    between atoms: N_8  and  C_9 
REMARK    3  A    between atoms: C_9  and  C_10 
REMARK    4  A    between atoms: C_10  and  C_11 
REMARK    5  A    between atoms: C_11  and  N_12 
ROOT
HETATM    1  N   UNL     1     -43.559 -52.172  12.262  1.00  0.00    -0.309 N 
HETATM    2  C   UNL     1     -42.472 -51.433  12.677  1.00  0.00     0.320 C 
HETATM    3  O   UNL     1     -42.143 -51.212  13.834  1.00  0.00    -0.247 OA
HETATM    4  N   UNL     1     -41.712 -50.966  11.628  1.00  0.00    -0.343 N 
HETATM    5  H   UNL     1     -43.699 -52.269  11.267  1.00  0.00     0.170 HD
HETATM    6  H   UNL     1     -42.201 -50.756  10.771  1.00  0.00     0.164 HD
ENDROOT
BRANCH   1   7
HETATM    7  C   UNL     1     -44.476 -52.832  13.114  1.00  0.00     0.039 A 
HETATM    8  C   UNL     1     -45.365 -52.148  13.942  1.00  0.00     0.054 A 
HETATM    9  C   UNL     1     -46.258 -52.851  14.737  1.00  0.00     0.007 A 
HETATM   10  C   UNL     1     -47.246 -52.100  15.579  1.00  0.00     0.068 C 
HETATM   11  N   UNL     1     -46.294 -54.200  14.760  1.00  0.00    -0.369 N 
HETATM   12  C   UNL     1     -45.416 -54.851  13.968  1.00  0.00     0.090 A 
ATOM     13  HN  UNL     1     -46.955 -54.705  15.350  1.00  0.00     0.165 HD
HETATM   14  C   UNL     1     -44.498 -54.224  13.137  1.00  0.00     0.046 A 
ENDBRANCH   1   7
BRANCH   4  15
HETATM   15  C   UNL     1     -40.527 -50.175  11.934  1.00  0.00     0.126 C 
BRANCH  15  16
HETATM   16  C   UNL     1     -40.803 -48.696  11.733  1.00  0.00     0.050 C 
BRANCH  16  17
HETATM   17  C   UNL     1     -41.688 -48.417  10.506  1.00  0.00     0.274 C 
BRANCH  17  18
HETATM   18  N   UNL     1     -42.880 -47.653  10.899  1.00  0.00     0.092 N 
HETATM   19  C   UNL     1     -43.823 -47.398   9.788  1.00  0.00     0.298 C 
HETATM   20  C   UNL     1     -43.413 -46.242   8.866  1.00  0.00     0.198 C 
HETATM   21  O   UNL     1     -43.281 -45.031   9.614  1.00  0.00    -0.388 OA
HETATM   22  C   UNL     1     -42.273 -45.181  10.620  1.00  0.00     0.198 C 
HETATM   23  C   UNL     1     -42.561 -46.369  11.560  1.00  0.00     0.298 C 
ENDBRANCH  17  18
ENDBRANCH  16  17
ENDBRANCH  15  16
ENDBRANCH   4  15
TORSDOF 5
ENDMDL
MODEL 6
REMARK VINA RESULT:      -5.7      2.029      3.264
REMARK  5 active torsions:
REMARK  status: ('A' for Active; 'I' for Inactive)
REMARK    1  A    between atoms: C_4  and  N_5 
REMARK       I    between atoms: N_5  and  C_6 
REMARK       I    between atoms: C_6  and  N_8 
REMARK    2  A    between atoms: N_8  and  C_9 
REMARK    3  A    between atoms: C_9  and  C_10 
REMARK    4  A    between atoms: C_10  and  C_11 
REMARK    5  A    between atoms: C_11  and  N_12 
ROOT
HETATM    1  N   UNL     1     -41.122 -49.331  10.561  1.00  0.00    -0.309 N 
HETATM    2  C   UNL     1     -41.010 -50.109  11.693  1.00  0.00     0.320 C 
HETATM    3  O   UNL     1     -41.162 -49.735  12.849  1.00  0.00    -0.247 OA
HETATM    4  N   UNL     1     -40.738 -51.428  11.411  1.00  0.00    -0.343 N 
HETATM    5  H   UNL     1     -40.972 -49.786   9.672  1.00  0.00     0.170 HD
HETATM    6  H   UNL     1     -40.190 -51.613  10.585  1.00  0.00     0.164 HD
ENDROOT
BRANCH   1   7
HETATM    7  C   UNL     1     -41.463 -47.959  10.538  1.00  0.00     0.039 A 
HETATM    8  C   UNL     1     -40.566 -46.952  10.892  1.00  0.00     0.054 A 
HETATM    9  C   UNL     1     -40.951 -45.620  10.826  1.00  0.00     0.007 A 
HETATM   10  C   UNL     1     -39.957 -44.547  11.155  1.00  0.00     0.068 C 
HETATM   11  N   UNL     1     -42.189 -45.247  10.441  1.00  0.00    -0.369 N 
HETATM   12  C   UNL     1     -43.055 -46.232  10.118  1.00  0.00     0.090 A 
ATOM     13  HN  UNL     1     -42.460 -44.265  10.397  1.00  0.00     0.165 HD
HETATM   14  C   UNL     1     -42.746 -47.585  10.149  1.00  0.00     0.046 A 
ENDBRANCH   1   7
BRANCH   4  15
HETATM   15  C   UNL     1     -40.602 -52.358  12.526  1.00  0.00     0.126 C 
BRANCH  15  16
HETATM   16  C   UNL     1     -41.862 -53.188  12.689  1.00  0.00     0.050 C 
BRANCH  16  17
HETATM   17  C   UNL     1     -42.762 -52.686  13.831  1.00  0.00     0.274 C 
BRANCH  17  18
HETATM   18  N   UNL     1     -44.154 -52.575  13.374  1.00  0.00     0.092 N 
HETATM   19  C   UNL     1     -45.098 -52.135  14.425  1.00  0.00     0.298 C 
HETATM   20  C   UNL     1     -45.526 -53.245  15.393  1.00  0.00     0.198 C 
HETATM   21  O   UNL     1     -46.139 -54.321  14.678  1.00  0.00    -0.388 OA
HETATM   22  C   UNL     1     -45.213 -54.878  13.739  1.00  0.00     0.198 C 
HETATM   23  C   UNL     1     -44.668 -53.819  12.759  1.00  0.00     0.298 C 
ENDBRANCH  17  18
ENDBRANCH  16  17
ENDBRANCH  15  16
ENDBRANCH   4  15
TORSDOF 5
ENDMDL
MODEL 7
REMARK VINA RESULT:      -5.7      3.832      6.608
REMARK  5 active torsions:
REMARK  status: ('A' for Active; 'I' for Inactive)
REMARK    1  A    between atoms: C_4  and  N_5 
REMARK       I    between atoms: N_5  and  C_6 
REMARK       I    between atoms: C_6  and  N_8 
REMARK    2  A    between atoms: N_8  and  C_9 
REMARK    3  A    between atoms: C_9  and  C_10 
REMARK    4  A    between atoms: C_10  and  C_11 
REMARK    5  A    between atoms: C_11  and  N_12 
ROOT
HETATM    1  N   UNL     1     -42.026 -52.534  11.832  1.00  0.00    -0.309 N 
HETATM    2  C   UNL     1     -41.626 -51.243  12.098  1.00  0.00     0.320 C 
HETATM    3  O   UNL     1     -41.910 -50.584  13.090  1.00  0.00    -0.247 OA
HETATM    4  N   UNL     1     -40.798 -50.729  11.125  1.00  0.00    -0.343 N 
HETATM    5  H   UNL     1     -41.706 -52.949  10.969  1.00  0.00     0.170 HD
HETATM    6  H   UNL     1     -40.948 -51.054  10.183  1.00  0.00     0.164 HD
ENDROOT
BRANCH   1   7
HETATM    7  C   UNL     1     -42.819 -53.340  12.683  1.00  0.00     0.039 A 
HETATM    8  C   UNL     1     -42.291 -54.047  13.762  1.00  0.00     0.054 A 
HETATM    9  C   UNL     1     -43.124 -54.802  14.576  1.00  0.00     0.007 A 
HETATM   10  C   UNL     1     -42.549 -55.511  15.765  1.00  0.00     0.068 C 
HETATM   11  N   UNL     1     -44.452 -54.897  14.355  1.00  0.00    -0.369 N 
HETATM   12  C   UNL     1     -44.949 -54.222  13.297  1.00  0.00     0.090 A 
ATOM     13  HN  UNL     1     -45.054 -55.456  14.961  1.00  0.00     0.165 HD
HETATM   14  C   UNL     1     -44.187 -53.439  12.441  1.00  0.00     0.046 A 
ENDBRANCH   1   7
BRANCH   4  15
HETATM   15  C   UNL     1     -40.299 -49.370  11.293  1.00  0.00     0.126 C 
BRANCH  15  16
HETATM   16  C   UNL     1     -38.826 -49.380  11.657  1.00  0.00     0.050 C 
BRANCH  16  17
HETATM   17  C   UNL     1     -38.584 -49.181  13.164  1.00  0.00     0.274 C 
BRANCH  17  18
HETATM   18  N   UNL     1     -37.643 -50.191  13.667  1.00  0.00     0.092 N 
HETATM   19  C   UNL     1     -38.153 -51.578  13.597  1.00  0.00     0.298 C 
HETATM   20  C   UNL     1     -39.124 -51.950  14.724  1.00  0.00     0.198 C 
HETATM   21  O   UNL     1     -38.497 -51.781  15.998  1.00  0.00    -0.388 OA
HETATM   22  C   UNL     1     -38.107 -50.415  16.176  1.00  0.00     0.198 C 
HETATM   23  C   UNL     1     -37.180 -49.922  15.047  1.00  0.00     0.298 C 
ENDBRANCH  17  18
ENDBRANCH  16  17
ENDBRANCH  15  16
ENDBRANCH   4  15
TORSDOF 5
ENDMDL
MODEL 8
REMARK VINA RESULT:      -5.7      3.046      7.918
REMARK  5 active torsions:
REMARK  status: ('A' for Active; 'I' for Inactive)
REMARK    1  A    between atoms: C_4  and  N_5 
REMARK       I    between atoms: N_5  and  C_6 
REMARK       I    between atoms: C_6  and  N_8 
REMARK    2  A    between atoms: N_8  and  C_9 
REMARK    3  A    between atoms: C_9  and  C_10 
REMARK    4  A    between atoms: C_10  and  C_11 
REMARK    5  A    between atoms: C_11  and  N_12 
ROOT
HETATM    1  N   UNL     1     -42.154 -52.475  11.800  1.00  0.00    -0.309 N 
HETATM    2  C   UNL     1     -41.716 -51.204  12.100  1.00  0.00     0.320 C 
HETATM    3  O   UNL     1     -41.922 -50.591  13.139  1.00  0.00    -0.247 OA
HETATM    4  N   UNL     1     -40.945 -50.655  11.100  1.00  0.00    -0.343 N 
HETATM    5  H   UNL     1     -41.899 -52.851  10.898  1.00  0.00     0.170 HD
HETATM    6  H   UNL     1     -41.163 -50.931  10.155  1.00  0.00     0.164 HD
ENDROOT
BRANCH   1   7
HETATM    7  C   UNL     1     -42.904 -53.310  12.662  1.00  0.00     0.039 A 
HETATM    8  C   UNL     1     -42.331 -54.002  13.729  1.00  0.00     0.054 A 
HETATM    9  C   UNL     1     -43.123 -54.787  14.555  1.00  0.00     0.007 A 
HETATM   10  C   UNL     1     -42.502 -55.480  15.731  1.00  0.00     0.068 C 
HETATM   11  N   UNL     1     -44.450 -54.928  14.358  1.00  0.00    -0.369 N 
HETATM   12  C   UNL     1     -44.990 -54.267  13.312  1.00  0.00     0.090 A 
ATOM     13  HN  UNL     1     -45.021 -55.509  14.973  1.00  0.00     0.165 HD
HETATM   14  C   UNL     1     -44.271 -53.456  12.445  1.00  0.00     0.046 A 
ENDBRANCH   1   7
BRANCH   4  15
HETATM   15  C   UNL     1     -40.413 -49.312  11.299  1.00  0.00     0.126 C 
BRANCH  15  16
HETATM   16  C   UNL     1     -41.306 -48.278  10.640  1.00  0.00     0.050 C 
BRANCH  16  17
HETATM   17  C   UNL     1     -41.339 -46.945  11.407  1.00  0.00     0.274 C 
BRANCH  17  18
HETATM   18  N   UNL     1     -40.001 -46.338  11.437  1.00  0.00     0.092 N 
HETATM   19  C   UNL     1     -39.587 -45.861  12.775  1.00  0.00     0.298 C 
HETATM   20  C   UNL     1     -40.187 -44.508  13.175  1.00  0.00     0.198 C 
HETATM   21  O   UNL     1     -39.828 -43.502  12.223  1.00  0.00    -0.388 OA
HETATM   22  C   UNL     1     -40.330 -43.850  10.929  1.00  0.00     0.198 C 
HETATM   23  C   UNL     1     -39.837 -45.235  10.464  1.00  0.00     0.298 C 
ENDBRANCH  17  18
ENDBRANCH  16  17
ENDBRANCH  15  16
ENDBRANCH   4  15
TORSDOF 5
ENDMDL
MODEL 9
REMARK VINA RESULT:      -5.6      2.509      4.173
REMARK  5 active torsions:
REMARK  status: ('A' for Active; 'I' for Inactive)
REMARK    1  A    between atoms: C_4  and  N_5 
REMARK       I    between atoms: N_5  and  C_6 
REMARK       I    between atoms: C_6  and  N_8 
REMARK    2  A    between atoms: N_8  and  C_9 
REMARK    3  A    between atoms: C_9  and  C_10 
REMARK    4  A    between atoms: C_10  and  C_11 
REMARK    5  A    between atoms: C_11  and  N_12 
ROOT
HETATM    1  N   UNL     1     -41.052 -49.365  10.594  1.00  0.00    -0.309 N 
HETATM    2  C   UNL     1     -41.392 -50.227  11.614  1.00  0.00     0.320 C 
HETATM    3  O   UNL     1     -42.141 -49.983  12.552  1.00  0.00    -0.247 OA
HETATM    4  N   UNL     1     -40.826 -51.473  11.472  1.00  0.00    -0.343 N 
HETATM    5  H   UNL     1     -40.422 -49.713   9.886  1.00  0.00     0.170 HD
HETATM    6  H   UNL     1     -39.924 -51.514  11.022  1.00  0.00     0.164 HD
ENDROOT
BRANCH   1   7
HETATM    7  C   UNL     1     -41.537 -48.045  10.439  1.00  0.00     0.039 A 
HETATM    8  C   UNL     1     -42.698 -47.746   9.727  1.00  0.00     0.054 A 
HETATM    9  C   UNL     1     -43.137 -46.433   9.630  1.00  0.00     0.007 A 
HETATM   10  C   UNL     1     -44.418 -46.135   8.910  1.00  0.00     0.068 C 
HETATM   11  N   UNL     1     -42.466 -45.406  10.191  1.00  0.00    -0.369 N 
HETATM   12  C   UNL     1     -41.333 -45.706  10.862  1.00  0.00     0.090 A 
ATOM     13  HN  UNL     1     -42.799 -44.445  10.112  1.00  0.00     0.165 HD
HETATM   14  C   UNL     1     -40.832 -46.991  11.014  1.00  0.00     0.046 A 
ENDBRANCH   1   7
BRANCH   4  15
HETATM   15  C   UNL     1     -41.114 -52.481  12.485  1.00  0.00     0.126 C 
BRANCH  15  16
HETATM   16  C   UNL     1     -39.890 -52.746  13.342  1.00  0.00     0.050 C 
BRANCH  16  17
HETATM   17  C   UNL     1     -39.648 -51.647  14.390  1.00  0.00     0.274 C 
BRANCH  17  18
HETATM   18  N   UNL     1     -38.227 -51.277  14.424  1.00  0.00     0.092 N 
HETATM   19  C   UNL     1     -37.897 -50.249  15.436  1.00  0.00     0.298 C 
HETATM   20  C   UNL     1     -38.239 -48.815  15.012  1.00  0.00     0.198 C 
HETATM   21  O   UNL     1     -37.552 -48.475  13.805  1.00  0.00    -0.388 OA
HETATM   22  C   UNL     1     -37.945 -49.359  12.750  1.00  0.00     0.198 C 
HETATM   23  C   UNL     1     -37.705 -50.839  13.111  1.00  0.00     0.298 C 
ENDBRANCH  17  18
ENDBRANCH  16  17
ENDBRANCH  15  16
ENDBRANCH   4  15
TORSDOF 5
ENDMDL
