MODEL 1
REMARK VINA RESULT:      -5.8      0.000      0.000
REMARK  5 active torsions:
REMARK  status: ('A' for Active; 'I' for Inactive)
REMARK    1  A    between atoms: C_2  and  C_3 
REMARK    2  A    between atoms: C_3  and  C_4 
REMARK    3  A    between atoms: C_4  and  N_6 
REMARK       I    between atoms: N_6  and  C_7 
REMARK    4  A    between atoms: C_7  and  C_9 
REMARK    5  A    between atoms: C_9  and  N_10 
ROOT
HETATM    1  C   UNL     1     -42.665 -53.026  12.372  1.00  0.00     0.255 C 
ENDROOT
BRANCH   1   2
HETATM    2  C   UNL     1     -44.172 -53.252  12.502  1.00  0.00     0.237 C 
HETATM    3  N   UNL     1     -44.903 -52.128  12.846  1.00  0.00    -0.355 N 
HETATM    4  H   UNL     1     -44.470 -51.225  12.687  1.00  0.00     0.162 HD
HETATM    5  O   UNL     1     -44.680 -54.361  12.338  1.00  0.00    -0.272 OA
BRANCH   3   6
HETATM    6  C   UNL     1     -46.365 -52.164  12.888  1.00  0.00     0.080 C 
HETATM    7  C   UNL     1     -46.937 -51.662  11.560  1.00  0.00     0.032 C 
BRANCH   6   8
HETATM    8  C   UNL     1     -46.884 -51.352  14.089  1.00  0.00     0.024 C 
BRANCH   8   9
HETATM    9  C   UNL     1     -47.112 -52.212  15.338  1.00  0.00    -0.003 C 
HETATM   10  C   UNL     1     -47.501 -51.377  16.547  1.00  0.00     0.005 C 
ENDBRANCH   8   9
ENDBRANCH   6   8
ENDBRANCH   3   6
ENDBRANCH   1   2
BRANCH   1  11
HETATM   11  N   UNL     1     -41.951 -53.749  13.411  1.00  0.00    -0.246 N 
HETATM   12  N   UNL     1     -42.740 -54.463  14.324  1.00  0.00    -0.261 N 
HETATM   13  C   UNL     1     -42.219 -55.078  15.428  1.00  0.00     0.260 A 
HETATM   14  H   UNL     1     -43.718 -54.630  14.113  1.00  0.00     0.190 HD
HETATM   15  O   UNL     1     -42.907 -55.694  16.235  1.00  0.00    -0.267 OA
HETATM   16  C   UNL     1     -40.760 -54.969  15.610  1.00  0.00     0.081 A 
HETATM   17  C   UNL     1     -40.001 -54.308  14.731  1.00  0.00     0.081 A 
HETATM   18  C   UNL     1     -40.589 -53.624  13.558  1.00  0.00     0.262 A 
HETATM   19  O   UNL     1     -39.869 -52.983  12.800  1.00  0.00    -0.267 OA
ENDBRANCH   1  11
TORSDOF 5
ENDMDL
MODEL 2
REMARK VINA RESULT:      -5.6      3.206      4.588
REMARK  5 active torsions:
REMARK  status: ('A' for Active; 'I' for Inactive)
REMARK    1  A    between atoms: C_2  and  C_3 
REMARK    2  A    between atoms: C_3  and  C_4 
REMARK    3  A    between atoms: C_4  and  N_6 
REMARK       I    between atoms: N_6  and  C_7 
REMARK    4  A    between atoms: C_7  and  C_9 
REMARK    5  A    between atoms: C_9  and  N_10 
ROOT
HETATM    1  C   UNL     1     -41.367 -52.335  11.888  1.00  0.00     0.255 C 
ENDROOT
BRANCH   1   2
HETATM    2  C   UNL     1     -42.652 -52.276  12.715  1.00  0.00     0.237 C 
HETATM    3  N   UNL     1     -43.584 -53.256  12.416  1.00  0.00    -0.355 N 
HETATM    4  H   UNL     1     -43.251 -54.082  11.931  1.00  0.00     0.162 HD
HETATM    5  O   UNL     1     -42.841 -51.402  13.561  1.00  0.00    -0.272 OA
BRANCH   3   6
HETATM    6  C   UNL     1     -44.806 -53.398  13.207  1.00  0.00     0.080 C 
HETATM    7  C   UNL     1     -45.053 -54.875  13.523  1.00  0.00     0.032 C 
BRANCH   6   8
HETATM    8  C   UNL     1     -45.995 -52.753  12.471  1.00  0.00     0.024 C 
BRANCH   8   9
HETATM    9  C   UNL     1     -46.397 -51.395  13.059  1.00  0.00    -0.003 C 
HETATM   10  C   UNL     1     -46.730 -51.488  14.540  1.00  0.00     0.005 C 
ENDBRANCH   8   9
ENDBRANCH   6   8
ENDBRANCH   3   6
ENDBRANCH   1   2
BRANCH   1  11
HETATM   11  N   UNL     1     -40.669 -51.062  11.941  1.00  0.00    -0.246 N 
HETATM   12  N   UNL     1     -41.310 -49.977  11.328  1.00  0.00    -0.261 N 
HETATM   13  C   UNL     1     -40.717 -48.754  11.183  1.00  0.00     0.260 A 
HETATM   14  H   UNL     1     -42.290 -50.055  11.075  1.00  0.00     0.190 HD
HETATM   15  O   UNL     1     -41.270 -47.806  10.637  1.00  0.00    -0.267 OA
HETATM   16  C   UNL     1     -39.353 -48.620  11.726  1.00  0.00     0.081 A 
HETATM   17  C   UNL     1     -38.745 -49.645  12.331  1.00  0.00     0.081 A 
HETATM   18  C   UNL     1     -39.394 -50.969  12.451  1.00  0.00     0.262 A 
HETATM   19  O   UNL     1     -38.787 -51.903  12.966  1.00  0.00    -0.267 OA
ENDBRANCH   1  11
TORSDOF 5
ENDMDL
MODEL 3
REMARK VINA RESULT:      -5.5      4.214      5.621
REMARK  5 active torsions:
REMARK  status: ('A' for Active; 'I' for Inactive)
REMARK    1  A    between atoms: C_2  and  C_3 
REMARK    2  A    between atoms: C_3  and  C_4 
REMARK    3  A    between atoms: C_4  and  N_6 
REMARK       I    between atoms: N_6  and  C_7 
REMARK    4  A    between atoms: C_7  and  C_9 
REMARK    5  A    between atoms: C_9  and  N_10 
ROOT
HETATM    1  C   UNL     1     -40.945 -51.864  11.779  1.00  0.00     0.255 C 
ENDROOT
BRANCH   1   2
HETATM    2  C   UNL     1     -41.403 -50.426  12.031  1.00  0.00     0.237 C 
HETATM    3  N   UNL     1     -41.153 -49.544  10.994  1.00  0.00    -0.355 N 
HETATM    4  H   UNL     1     -40.989 -49.941  10.075  1.00  0.00     0.162 HD
HETATM    5  O   UNL     1     -41.927 -50.087  13.092  1.00  0.00    -0.272 OA
BRANCH   3   6
HETATM    6  C   UNL     1     -41.643 -48.166  11.044  1.00  0.00     0.080 C 
HETATM    7  C   UNL     1     -42.487 -47.868   9.801  1.00  0.00     0.032 C 
BRANCH   6   8
HETATM    8  C   UNL     1     -40.464 -47.187  11.195  1.00  0.00     0.024 C 
BRANCH   8   9
HETATM    9  C   UNL     1     -40.813 -45.760  10.756  1.00  0.00    -0.003 C 
HETATM   10  C   UNL     1     -39.615 -45.032  10.167  1.00  0.00     0.005 C 
ENDBRANCH   8   9
ENDBRANCH   6   8
ENDBRANCH   3   6
ENDBRANCH   1   2
BRANCH   1  11
HETATM   11  N   UNL     1     -41.857 -52.805  12.407  1.00  0.00    -0.246 N 
HETATM   12  N   UNL     1     -43.195 -52.738  11.998  1.00  0.00    -0.261 N 
HETATM   13  C   UNL     1     -44.188 -53.466  12.593  1.00  0.00     0.260 A 
HETATM   14  H   UNL     1     -43.435 -52.219  11.159  1.00  0.00     0.190 HD
HETATM   15  O   UNL     1     -45.362 -53.402  12.246  1.00  0.00    -0.267 OA
HETATM   16  C   UNL     1     -43.775 -54.353  13.696  1.00  0.00     0.081 A 
HETATM   17  C   UNL     1     -42.497 -54.436  14.077  1.00  0.00     0.081 A 
HETATM   18  C   UNL     1     -41.443 -53.618  13.437  1.00  0.00     0.262 A 
HETATM   19  O   UNL     1     -40.288 -53.680  13.846  1.00  0.00    -0.267 OA
ENDBRANCH   1  11
TORSDOF 5
ENDMDL
MODEL 4
REMARK VINA RESULT:      -5.2      3.997      5.579
REMARK  5 active torsions:
REMARK  status: ('A' for Active; 'I' for Inactive)
REMARK    1  A    between atoms: C_2  and  C_3 
REMARK    2  A    between atoms: C_3  and  C_4 
REMARK    3  A    between atoms: C_4  and  N_6 
REMARK       I    between atoms: N_6  and  C_7 
REMARK    4  A    between atoms: C_7  and  C_9 
REMARK    5  A    between atoms: C_9  and  N_10 
ROOT
HETATM    1  C   UNL     1     -43.006 -49.280  12.939  1.00  0.00     0.255 C 
ENDROOT
BRANCH   1   2
HETATM    2  C   UNL     1     -42.543 -48.762  11.576  1.00  0.00     0.237 C 
HETATM    3  N   UNL     1     -43.517 -48.112  10.837  1.00  0.00    -0.355 N 
HETATM    4  H   UNL     1     -44.326 -47.763  11.339  1.00  0.00     0.162 HD
HETATM    5  O   UNL     1     -41.395 -48.940  11.168  1.00  0.00    -0.272 OA
BRANCH   3   6
HETATM    6  C   UNL     1     -43.190 -47.459   9.570  1.00  0.00     0.080 C 
HETATM    7  C   UNL     1     -42.815 -45.996   9.819  1.00  0.00     0.032 C 
BRANCH   6   8
HETATM    8  C   UNL     1     -44.361 -47.599   8.579  1.00  0.00     0.024 C 
BRANCH   8   9
HETATM    9  C   UNL     1     -45.725 -47.332   9.226  1.00  0.00    -0.003 C 
HETATM   10  C   UNL     1     -46.737 -48.419   8.900  1.00  0.00     0.005 C 
ENDBRANCH   8   9
ENDBRANCH   6   8
ENDBRANCH   3   6
ENDBRANCH   1   2
BRANCH   1  11
HETATM   11  N   UNL     1     -42.934 -50.731  12.982  1.00  0.00    -0.246 N 
HETATM   12  N   UNL     1     -41.699 -51.301  12.645  1.00  0.00    -0.261 N 
HETATM   13  C   UNL     1     -41.519 -52.650  12.513  1.00  0.00     0.260 A 
HETATM   14  H   UNL     1     -40.873 -50.712  12.603  1.00  0.00     0.190 HD
HETATM   15  O   UNL     1     -40.443 -53.151  12.208  1.00  0.00    -0.267 OA
HETATM   16  C   UNL     1     -42.701 -53.494  12.761  1.00  0.00     0.081 A 
HETATM   17  C   UNL     1     -43.876 -52.957  13.103  1.00  0.00     0.081 A 
HETATM   18  C   UNL     1     -44.057 -51.493  13.212  1.00  0.00     0.262 A 
HETATM   19  O   UNL     1     -45.162 -51.031  13.477  1.00  0.00    -0.267 OA
ENDBRANCH   1  11
TORSDOF 5
ENDMDL
MODEL 5
REMARK VINA RESULT:      -5.0      3.494      5.749
REMARK  5 active torsions:
REMARK  status: ('A' for Active; 'I' for Inactive)
REMARK    1  A    between atoms: C_2  and  C_3 
REMARK    2  A    between atoms: C_3  and  C_4 
REMARK    3  A    between atoms: C_4  and  N_6 
REMARK       I    between atoms: N_6  and  C_7 
REMARK    4  A    between atoms: C_7  and  C_9 
REMARK    5  A    between atoms: C_9  and  N_10 
ROOT
HETATM    1  C   UNL     1     -40.989 -53.162  12.091  1.00  0.00     0.255 C 
ENDROOT
BRANCH   1   2
HETATM    2  C   UNL     1     -40.792 -51.646  12.161  1.00  0.00     0.237 C 
HETATM    3  N   UNL     1     -39.474 -51.233  12.258  1.00  0.00    -0.355 N 
HETATM    4  H   UNL     1     -38.758 -51.892  11.973  1.00  0.00     0.162 HD
HETATM    5  O   UNL     1     -41.744 -50.866  12.159  1.00  0.00    -0.272 OA
BRANCH   3   6
HETATM    6  C   UNL     1     -39.126 -49.813  12.212  1.00  0.00     0.080 C 
HETATM    7  C   UNL     1     -37.794 -49.627  11.481  1.00  0.00     0.032 C 
BRANCH   6   8
HETATM    8  C   UNL     1     -39.094 -49.226  13.636  1.00  0.00     0.024 C 
BRANCH   8   9
HETATM    9  C   UNL     1     -39.714 -47.827  13.718  1.00  0.00    -0.003 C 
HETATM   10  C   UNL     1     -38.679 -46.758  14.033  1.00  0.00     0.005 C 
ENDBRANCH   8   9
ENDBRANCH   6   8
ENDBRANCH   3   6
ENDBRANCH   1   2
BRANCH   1  11
HETATM   11  N   UNL     1     -42.236 -53.542  12.732  1.00  0.00    -0.246 N 
HETATM   12  N   UNL     1     -43.413 -53.159  12.076  1.00  0.00    -0.261 N 
HETATM   13  C   UNL     1     -44.655 -53.330  12.624  1.00  0.00     0.260 A 
HETATM   14  H   UNL     1     -43.367 -52.843  11.112  1.00  0.00     0.190 HD
HETATM   15  O   UNL     1     -45.686 -52.985  12.057  1.00  0.00    -0.267 OA
HETATM   16  C   UNL     1     -44.700 -53.962  13.954  1.00  0.00     0.081 A 
HETATM   17  C   UNL     1     -43.582 -54.349  14.576  1.00  0.00     0.081 A 
HETATM   18  C   UNL     1     -42.247 -54.128  13.977  1.00  0.00     0.262 A 
HETATM   19  O   UNL     1     -41.238 -54.448  14.598  1.00  0.00    -0.267 OA
ENDBRANCH   1  11
TORSDOF 5
ENDMDL
MODEL 6
REMARK VINA RESULT:      -4.9      3.165      4.302
REMARK  5 active torsions:
REMARK  status: ('A' for Active; 'I' for Inactive)
REMARK    1  A    between atoms: C_2  and  C_3 
REMARK    2  A    between atoms: C_3  and  C_4 
REMARK    3  A    between atoms: C_4  and  N_6 
REMARK       I    between atoms: N_6  and  C_7 
REMARK    4  A    between atoms: C_7  and  C_9 
REMARK    5  A    between atoms: C_9  and  N_10 
ROOT
HETATM    1  C   UNL     1     -41.191 -51.894  11.761  1.00  0.00     0.255 C 
ENDROOT
BRANCH   1   2
HETATM    2  C   UNL     1     -42.291 -51.965  12.821  1.00  0.00     0.237 C 
HETATM    3  N   UNL     1     -43.503 -52.462  12.371  1.00  0.00    -0.355 N 
HETATM    4  H   UNL     1     -43.494 -53.008  11.517  1.00  0.00     0.162 HD
HETATM    5  O   UNL     1     -42.108 -51.580  13.975  1.00  0.00    -0.272 OA
BRANCH   3   6
HETATM    6  C   UNL     1     -44.609 -52.700  13.299  1.00  0.00     0.080 C 
HETATM    7  C   UNL     1     -44.965 -54.189  13.313  1.00  0.00     0.032 C 
BRANCH   6   8
HETATM    8  C   UNL     1     -45.815 -51.816  12.929  1.00  0.00     0.024 C 
BRANCH   8   9
HETATM    9  C   UNL     1     -46.668 -51.431  14.143  1.00  0.00    -0.003 C 
HETATM   10  C   UNL     1     -45.823 -51.188  15.383  1.00  0.00     0.005 C 
ENDBRANCH   8   9
ENDBRANCH   6   8
ENDBRANCH   3   6
ENDBRANCH   1   2
BRANCH   1  11
HETATM   11  N   UNL     1     -40.206 -50.887  12.117  1.00  0.00    -0.246 N 
HETATM   12  N   UNL     1     -39.270 -51.252  13.093  1.00  0.00    -0.261 N 
HETATM   13  C   UNL     1     -38.371 -50.369  13.624  1.00  0.00     0.260 A 
HETATM   14  H   UNL     1     -39.170 -52.230  13.348  1.00  0.00     0.190 HD
HETATM   15  O   UNL     1     -37.558 -50.682  14.486  1.00  0.00    -0.267 OA
HETATM   16  C   UNL     1     -38.421 -48.992  13.099  1.00  0.00     0.081 A 
HETATM   17  C   UNL     1     -39.298 -48.643  12.153  1.00  0.00     0.081 A 
HETATM   18  C   UNL     1     -40.281 -49.608  11.614  1.00  0.00     0.262 A 
HETATM   19  O   UNL     1     -41.106 -49.241  10.783  1.00  0.00    -0.267 OA
ENDBRANCH   1  11
TORSDOF 5
ENDMDL
MODEL 7
REMARK VINA RESULT:      -4.7      3.261      5.312
REMARK  5 active torsions:
REMARK  status: ('A' for Active; 'I' for Inactive)
REMARK    1  A    between atoms: C_2  and  C_3 
REMARK    2  A    between atoms: C_3  and  C_4 
REMARK    3  A    between atoms: C_4  and  N_6 
REMARK       I    between atoms: N_6  and  C_7 
REMARK    4  A    between atoms: C_7  and  C_9 
REMARK    5  A    between atoms: C_9  and  N_10 
ROOT
HETATM    1  C   UNL     1     -41.808 -51.866  14.035  1.00  0.00     0.255 C 
ENDROOT
BRANCH   1   2
HETATM    2  C   UNL     1     -41.265 -51.371  12.693  1.00  0.00     0.237 C 
HETATM    3  N   UNL     1     -40.866 -50.046  12.678  1.00  0.00    -0.355 N 
HETATM    4  H   UNL     1     -40.670 -49.609  13.572  1.00  0.00     0.162 HD
HETATM    5  O   UNL     1     -41.218 -52.100  11.702  1.00  0.00    -0.272 OA
BRANCH   3   6
HETATM    6  C   UNL     1     -40.215 -49.470  11.501  1.00  0.00     0.080 C 
HETATM    7  C   UNL     1     -38.699 -49.427  11.713  1.00  0.00     0.032 C 
BRANCH   6   8
HETATM    8  C   UNL     1     -40.799 -48.077  11.197  1.00  0.00     0.024 C 
BRANCH   8   9
HETATM    9  C   UNL     1     -42.063 -48.136  10.331  1.00  0.00    -0.003 C 
HETATM   10  C   UNL     1     -43.307 -47.726  11.102  1.00  0.00     0.005 C 
ENDBRANCH   8   9
ENDBRANCH   6   8
ENDBRANCH   3   6
ENDBRANCH   1   2
BRANCH   1  11
HETATM   11  N   UNL     1     -42.855 -52.851  13.827  1.00  0.00    -0.246 N 
HETATM   12  N   UNL     1     -43.895 -52.479  12.965  1.00  0.00    -0.261 N 
HETATM   13  C   UNL     1     -45.012 -53.246  12.778  1.00  0.00     0.260 A 
HETATM   14  H   UNL     1     -43.780 -51.667  12.366  1.00  0.00     0.190 HD
HETATM   15  O   UNL     1     -45.928 -52.918  12.033  1.00  0.00    -0.267 OA
HETATM   16  C   UNL     1     -45.066 -54.514  13.527  1.00  0.00     0.081 A 
HETATM   17  C   UNL     1     -44.068 -54.884  14.335  1.00  0.00     0.081 A 
HETATM   18  C   UNL     1     -42.881 -54.025  14.545  1.00  0.00     0.262 A 
HETATM   19  O   UNL     1     -42.008 -54.371  15.334  1.00  0.00    -0.267 OA
ENDBRANCH   1  11
TORSDOF 5
ENDMDL
MODEL 8
REMARK VINA RESULT:      -4.7      4.215      6.226
REMARK  5 active torsions:
REMARK  status: ('A' for Active; 'I' for Inactive)
REMARK    1  A    between atoms: C_2  and  C_3 
REMARK    2  A    between atoms: C_3  and  C_4 
REMARK    3  A    between atoms: C_4  and  N_6 
REMARK       I    between atoms: N_6  and  C_7 
REMARK    4  A    between atoms: C_7  and  C_9 
REMARK    5  A    between atoms: C_9  and  N_10 
ROOT
HETATM    1  C   UNL     1     -39.981 -50.823  12.111  1.00  0.00     0.255 C 
ENDROOT
BRANCH   1   2
HETATM    2  C   UNL     1     -41.020 -51.431  13.054  1.00  0.00     0.237 C 
HETATM    3  N   UNL     1     -40.889 -52.793  13.266  1.00  0.00    -0.355 N 
HETATM    4  H   UNL     1     -39.990 -53.212  13.057  1.00  0.00     0.162 HD
HETATM    5  O   UNL     1     -41.917 -50.754  13.558  1.00  0.00    -0.272 OA
BRANCH   3   6
HETATM    6  C   UNL     1     -41.735 -53.488  14.236  1.00  0.00     0.080 C 
HETATM    7  C   UNL     1     -40.891 -54.468  15.056  1.00  0.00     0.032 C 
BRANCH   6   8
HETATM    8  C   UNL     1     -42.906 -54.187  13.519  1.00  0.00     0.024 C 
BRANCH   8   9
HETATM    9  C   UNL     1     -43.972 -54.710  14.487  1.00  0.00    -0.003 C 
HETATM   10  C   UNL     1     -45.265 -55.074  13.774  1.00  0.00     0.005 C 
ENDBRANCH   8   9
ENDBRANCH   6   8
ENDBRANCH   3   6
ENDBRANCH   1   2
BRANCH   1  11
HETATM   11  N   UNL     1     -40.332 -49.451  11.785  1.00  0.00    -0.246 N 
HETATM   12  N   UNL     1     -41.385 -49.280  10.877  1.00  0.00    -0.261 N 
HETATM   13  C   UNL     1     -41.738 -48.058  10.375  1.00  0.00     0.260 A 
HETATM   14  H   UNL     1     -41.988 -50.067  10.658  1.00  0.00     0.190 HD
HETATM   15  O   UNL     1     -42.652 -47.906   9.572  1.00  0.00    -0.267 OA
HETATM   16  C   UNL     1     -40.956 -46.904  10.855  1.00  0.00     0.081 A 
HETATM   17  C   UNL     1     -39.965 -47.059  11.737  1.00  0.00     0.081 A 
HETATM   18  C   UNL     1     -39.580 -48.394  12.245  1.00  0.00     0.262 A 
HETATM   19  O   UNL     1     -38.631 -48.506  13.014  1.00  0.00    -0.267 OA
ENDBRANCH   1  11
TORSDOF 5
ENDMDL
MODEL 9
REMARK VINA RESULT:      -4.7      5.019      6.687
REMARK  5 active torsions:
REMARK  status: ('A' for Active; 'I' for Inactive)
REMARK    1  A    between atoms: C_2  and  C_3 
REMARK    2  A    between atoms: C_3  and  C_4 
REMARK    3  A    between atoms: C_4  and  N_6 
REMARK       I    between atoms: N_6  and  C_7 
REMARK    4  A    between atoms: C_7  and  C_9 
REMARK    5  A    between atoms: C_9  and  N_10 
ROOT
HETATM    1  C   UNL     1     -40.731 -49.714  11.004  1.00  0.00     0.255 C 
ENDROOT
BRANCH   1   2
HETATM    2  C   UNL     1     -41.602 -50.343  12.093  1.00  0.00     0.237 C 
HETATM    3  N   UNL     1     -41.932 -51.671  11.880  1.00  0.00    -0.355 N 
HETATM    4  H   UNL     1     -41.354 -52.196  11.232  1.00  0.00     0.162 HD
HETATM    5  O   UNL     1     -41.995 -49.699  13.065  1.00  0.00    -0.272 OA
BRANCH   3   6
HETATM    6  C   UNL     1     -42.656 -52.437  12.894  1.00  0.00     0.080 C 
HETATM    7  C   UNL     1     -41.976 -53.792  13.108  1.00  0.00     0.032 C 
BRANCH   6   8
HETATM    8  C   UNL     1     -44.136 -52.587  12.493  1.00  0.00     0.024 C 
BRANCH   8   9
HETATM    9  C   UNL     1     -45.061 -51.631  13.255  1.00  0.00    -0.003 C 
HETATM   10  C   UNL     1     -46.477 -51.642  12.703  1.00  0.00     0.005 C 
ENDBRANCH   8   9
ENDBRANCH   6   8
ENDBRANCH   3   6
ENDBRANCH   1   2
BRANCH   1  11
HETATM   11  N   UNL     1     -40.800 -48.264  11.073  1.00  0.00    -0.246 N 
HETATM   12  N   UNL     1     -41.762 -47.650  10.261  1.00  0.00    -0.261 N 
HETATM   13  C   UNL     1     -41.854 -46.293  10.121  1.00  0.00     0.260 A 
HETATM   14  H   UNL     1     -42.494 -48.214   9.841  1.00  0.00     0.190 HD
HETATM   15  O   UNL     1     -42.687 -45.752   9.403  1.00  0.00    -0.267 OA
HETATM   16  C   UNL     1     -40.887 -45.489  10.891  1.00  0.00     0.081 A 
HETATM   17  C   UNL     1     -39.980 -46.069  11.683  1.00  0.00     0.081 A 
HETATM   18  C   UNL     1     -39.879 -47.541  11.797  1.00  0.00     0.262 A 
HETATM   19  O   UNL     1     -39.002 -48.042  12.494  1.00  0.00    -0.267 OA
ENDBRANCH   1  11
TORSDOF 5
ENDMDL
