MODEL 1
REMARK VINA RESULT:      -6.0      0.000      0.000
REMARK  2 active torsions:
REMARK  status: ('A' for Active; 'I' for Inactive)
REMARK    1  A    between atoms: C_6  and  C_7 
REMARK       I    between atoms: C_7  and  N_9 
REMARK    2  A    between atoms: N_9  and  C_10 
ROOT
HETATM    1  C   UNL     1     -44.113 -52.217  13.004  1.00  0.00     0.252 C 
HETATM    2  O   UNL     1     -43.977 -51.471  13.973  1.00  0.00    -0.270 OA
HETATM    3  N   UNL     1     -43.096 -52.548  12.133  1.00  0.00    -0.309 N 
HETATM    4  H   UNL     1     -43.043 -53.530  11.897  1.00  0.00     0.170 HD
ENDROOT
BRANCH   3   5
HETATM    5  C   UNL     1     -41.840 -51.922  12.209  1.00  0.00     0.129 A 
HETATM    6  N   UNL     1     -41.842 -50.649  11.744  1.00  0.00    -0.351 N 
HETATM    7  C   UNL     1     -40.654 -50.004  11.716  1.00  0.00     0.090 A 
ATOM      8  HN  UNL     1     -42.700 -50.198  11.428  1.00  0.00     0.166 HD
HETATM    9  C   UNL     1     -39.468 -50.545  12.184  1.00  0.00     0.019 A 
HETATM   10  C   UNL     1     -39.498 -51.827  12.724  1.00  0.00     0.029 A 
HETATM   11  C   UNL     1     -40.699 -52.534  12.747  1.00  0.00     0.078 A 
HETATM   12 CL   UNL     1     -40.711 -54.050  13.579  1.00  0.00    -0.080 Cl
ENDBRANCH   3   5
BRANCH   1  13
HETATM   13  C   UNL     1     -45.424 -52.959  12.696  1.00  0.00     0.217 C 
HETATM   14  C   UNL     1     -46.505 -52.863  13.764  1.00  0.00     0.022 C 
HETATM   15  C   UNL     1     -46.770 -51.476  14.329  1.00  0.00     0.013 C 
HETATM   16  C   UNL     1     -46.055 -53.894  14.779  1.00  0.00     0.033 C 
HETATM   17  C   UNL     1     -45.290 -54.908  13.942  1.00  0.00     0.169 C 
HETATM   18  O   UNL     1     -45.127 -54.362  12.618  1.00  0.00    -0.376 OA
ENDBRANCH   1  13
TORSDOF 2
ENDMDL
MODEL 2
REMARK VINA RESULT:      -5.8      2.393      5.940
REMARK  2 active torsions:
REMARK  status: ('A' for Active; 'I' for Inactive)
REMARK    1  A    between atoms: C_6  and  C_7 
REMARK       I    between atoms: C_7  and  N_9 
REMARK    2  A    between atoms: N_9  and  C_10 
ROOT
HETATM    1  C   UNL     1     -40.700 -50.498  12.179  1.00  0.00     0.252 C 
HETATM    2  O   UNL     1     -41.345 -50.017  13.111  1.00  0.00    -0.270 OA
HETATM    3  N   UNL     1     -40.910 -51.761  11.663  1.00  0.00    -0.309 N 
HETATM    4  H   UNL     1     -40.926 -51.808  10.653  1.00  0.00     0.170 HD
ENDROOT
BRANCH   3   5
HETATM    5  C   UNL     1     -41.795 -52.661  12.279  1.00  0.00     0.129 A 
HETATM    6  N   UNL     1     -43.066 -52.571  11.817  1.00  0.00    -0.351 N 
HETATM    7  C   UNL     1     -43.992 -53.354  12.412  1.00  0.00     0.090 A 
ATOM      8  HN  UNL     1     -43.312 -51.940  11.054  1.00  0.00     0.166 HD
HETATM    9  C   UNL     1     -43.706 -54.270  13.412  1.00  0.00     0.019 A 
HETATM   10  C   UNL     1     -42.384 -54.400  13.825  1.00  0.00     0.029 A 
HETATM   11  C   UNL     1     -41.404 -53.591  13.252  1.00  0.00     0.078 A 
HETATM   12 CL   UNL     1     -39.760 -53.913  13.683  1.00  0.00    -0.080 Cl
ENDBRANCH   3   5
BRANCH   1  13
HETATM   13  C   UNL     1     -39.637 -49.707  11.400  1.00  0.00     0.217 C 
HETATM   14  C   UNL     1     -38.271 -49.602  12.065  1.00  0.00     0.022 C 
HETATM   15  C   UNL     1     -37.700 -50.891  12.634  1.00  0.00     0.013 C 
HETATM   16  C   UNL     1     -38.484 -48.494  13.076  1.00  0.00     0.033 C 
HETATM   17  C   UNL     1     -39.573 -47.640  12.446  1.00  0.00     0.169 C 
HETATM   18  O   UNL     1     -40.087 -48.347  11.298  1.00  0.00    -0.376 OA
ENDBRANCH   1  13
TORSDOF 2
ENDMDL
MODEL 3
REMARK VINA RESULT:      -5.6      2.842      4.038
REMARK  2 active torsions:
REMARK  status: ('A' for Active; 'I' for Inactive)
REMARK    1  A    between atoms: C_6  and  C_7 
REMARK       I    between atoms: C_7  and  N_9 
REMARK    2  A    between atoms: N_9  and  C_10 
ROOT
HETATM    1  C   UNL     1     -41.108 -51.727  12.552  1.00  0.00     0.252 C 
HETATM    2  O   UNL     1     -41.560 -51.163  13.548  1.00  0.00    -0.270 OA
HETATM    3  N   UNL     1     -40.584 -51.067  11.460  1.00  0.00    -0.309 N 
HETATM    4  H   UNL     1     -39.713 -51.448  11.113  1.00  0.00     0.170 HD
ENDROOT
BRANCH   3   5
HETATM    5  C   UNL     1     -40.670 -49.670  11.343  1.00  0.00     0.129 A 
HETATM    6  N   UNL     1     -41.883 -49.237  10.922  1.00  0.00    -0.351 N 
HETATM    7  C   UNL     1     -42.022 -47.909  10.715  1.00  0.00     0.090 A 
ATOM      8  HN  UNL     1     -42.656 -49.884  10.767  1.00  0.00     0.166 HD
HETATM    9  C   UNL     1     -41.027 -46.977  10.963  1.00  0.00     0.019 A 
HETATM   10  C   UNL     1     -39.811 -47.432  11.463  1.00  0.00     0.029 A 
HETATM   11  C   UNL     1     -39.620 -48.798  11.665  1.00  0.00     0.078 A 
HETATM   12 CL   UNL     1     -38.155 -49.287  12.443  1.00  0.00    -0.080 Cl
ENDBRANCH   3   5
BRANCH   1  13
HETATM   13  C   UNL     1     -40.978 -53.255  12.442  1.00  0.00     0.217 C 
HETATM   14  C   UNL     1     -42.088 -54.063  13.101  1.00  0.00     0.022 C 
HETATM   15  C   UNL     1     -43.510 -53.604  12.820  1.00  0.00     0.013 C 
HETATM   16  C   UNL     1     -41.684 -54.045  14.561  1.00  0.00     0.033 C 
HETATM   17  C   UNL     1     -40.169 -53.917  14.510  1.00  0.00     0.169 C 
HETATM   18  O   UNL     1     -39.789 -53.648  13.146  1.00  0.00    -0.376 OA
ENDBRANCH   1  13
TORSDOF 2
ENDMDL
MODEL 4
REMARK VINA RESULT:      -5.2      3.199      4.874
REMARK  2 active torsions:
REMARK  status: ('A' for Active; 'I' for Inactive)
REMARK    1  A    between atoms: C_6  and  C_7 
REMARK       I    between atoms: C_7  and  N_9 
REMARK    2  A    between atoms: N_9  and  C_10 
ROOT
HETATM    1  C   UNL     1     -41.622 -50.514  11.853  1.00  0.00     0.252 C 
HETATM    2  O   UNL     1     -42.481 -50.107  12.633  1.00  0.00    -0.270 OA
HETATM    3  N   UNL     1     -40.985 -49.722  10.920  1.00  0.00    -0.309 N 
HETATM    4  H   UNL     1     -39.983 -49.849  10.869  1.00  0.00     0.170 HD
ENDROOT
BRANCH   3   5
HETATM    5  C   UNL     1     -41.393 -48.397  10.691  1.00  0.00     0.129 A 
HETATM    6  N   UNL     1     -42.547 -48.300   9.987  1.00  0.00    -0.351 N 
HETATM    7  C   UNL     1     -42.967 -47.057   9.664  1.00  0.00     0.090 A 
ATOM      8  HN  UNL     1     -43.075 -49.129   9.714  1.00  0.00     0.166 HD
HETATM    9  C   UNL     1     -42.322 -45.895  10.057  1.00  0.00     0.019 A 
HETATM   10  C   UNL     1     -41.178 -46.011  10.839  1.00  0.00     0.029 A 
HETATM   11  C   UNL     1     -40.699 -47.277  11.172  1.00  0.00     0.078 A 
HETATM   12 CL   UNL     1     -39.374 -47.358  12.281  1.00  0.00    -0.080 Cl
ENDBRANCH   3   5
BRANCH   1  13
HETATM   13  C   UNL     1     -41.072 -51.950  11.887  1.00  0.00     0.217 C 
HETATM   14  C   UNL     1     -41.862 -52.941  12.731  1.00  0.00     0.022 C 
HETATM   15  C   UNL     1     -43.372 -52.927  12.546  1.00  0.00     0.013 C 
HETATM   16  C   UNL     1     -41.385 -52.629  14.135  1.00  0.00     0.033 C 
HETATM   17  C   UNL     1     -39.975 -52.100  13.922  1.00  0.00     0.169 C 
HETATM   18  O   UNL     1     -39.777 -51.911  12.507  1.00  0.00    -0.376 OA
ENDBRANCH   1  13
TORSDOF 2
ENDMDL
MODEL 5
REMARK VINA RESULT:      -5.2      1.878      2.254
REMARK  2 active torsions:
REMARK  status: ('A' for Active; 'I' for Inactive)
REMARK    1  A    between atoms: C_6  and  C_7 
REMARK       I    between atoms: C_7  and  N_9 
REMARK    2  A    between atoms: N_9  and  C_10 
ROOT
HETATM    1  C   UNL     1     -43.764 -52.838  13.605  1.00  0.00     0.252 C 
HETATM    2  O   UNL     1     -43.586 -51.794  14.232  1.00  0.00    -0.270 OA
HETATM    3  N   UNL     1     -42.841 -53.861  13.526  1.00  0.00    -0.309 N 
HETATM    4  H   UNL     1     -43.224 -54.788  13.658  1.00  0.00     0.170 HD
ENDROOT
BRANCH   3   5
HETATM    5  C   UNL     1     -41.544 -53.712  14.044  1.00  0.00     0.129 A 
HETATM    6  N   UNL     1     -40.833 -52.725  13.445  1.00  0.00    -0.351 N 
HETATM    7  C   UNL     1     -39.550 -52.568  13.838  1.00  0.00     0.090 A 
ATOM      8  HN  UNL     1     -41.248 -52.128  12.730  1.00  0.00     0.166 HD
HETATM    9  C   UNL     1     -38.951 -53.310  14.844  1.00  0.00     0.019 A 
HETATM   10  C   UNL     1     -39.717 -54.270  15.496  1.00  0.00     0.029 A 
HETATM   11  C   UNL     1     -41.037 -54.480  15.102  1.00  0.00     0.078 A 
HETATM   12 CL   UNL     1     -41.987 -55.565  16.056  1.00  0.00    -0.080 Cl
ENDBRANCH   3   5
BRANCH   1  13
HETATM   13  C   UNL     1     -45.092 -53.180  12.909  1.00  0.00     0.217 C 
HETATM   14  C   UNL     1     -46.355 -52.800  13.669  1.00  0.00     0.022 C 
HETATM   15  C   UNL     1     -46.384 -51.403  14.268  1.00  0.00     0.013 C 
HETATM   16  C   UNL     1     -46.487 -53.930  14.670  1.00  0.00     0.033 C 
HETATM   17  C   UNL     1     -45.822 -55.106  13.970  1.00  0.00     0.169 C 
HETATM   18  O   UNL     1     -45.169 -54.609  12.784  1.00  0.00    -0.376 OA
ENDBRANCH   1  13
TORSDOF 2
ENDMDL
MODEL 6
REMARK VINA RESULT:      -5.2      2.324      5.343
REMARK  2 active torsions:
REMARK  status: ('A' for Active; 'I' for Inactive)
REMARK    1  A    between atoms: C_6  and  C_7 
REMARK       I    between atoms: C_7  and  N_9 
REMARK    2  A    between atoms: N_9  and  C_10 
ROOT
HETATM    1  C   UNL     1     -42.069 -53.784  13.460  1.00  0.00     0.252 C 
HETATM    2  O   UNL     1     -42.668 -54.586  14.176  1.00  0.00    -0.270 OA
HETATM    3  N   UNL     1     -42.601 -52.587  13.026  1.00  0.00    -0.309 N 
HETATM    4  H   UNL     1     -41.979 -51.794  13.104  1.00  0.00     0.170 HD
ENDROOT
BRANCH   3   5
HETATM    5  C   UNL     1     -43.949 -52.265  13.254  1.00  0.00     0.129 A 
HETATM    6  N   UNL     1     -44.792 -52.772  12.322  1.00  0.00    -0.351 N 
HETATM    7  C   UNL     1     -46.098 -52.445  12.432  1.00  0.00     0.090 A 
ATOM      8  HN  UNL     1     -44.455 -53.375  11.571  1.00  0.00     0.166 HD
HETATM    9  C   UNL     1     -46.621 -51.679  13.461  1.00  0.00     0.019 A 
HETATM   10  C   UNL     1     -45.753 -51.226  14.449  1.00  0.00     0.029 A 
HETATM   11  C   UNL     1     -44.394 -51.521  14.357  1.00  0.00     0.078 A 
HETATM   12 CL   UNL     1     -43.393 -51.076  15.695  1.00  0.00    -0.080 Cl
ENDBRANCH   3   5
BRANCH   1  13
HETATM   13  C   UNL     1     -40.603 -53.970  13.038  1.00  0.00     0.217 C 
HETATM   14  C   UNL     1     -39.595 -54.075  14.175  1.00  0.00     0.022 C 
HETATM   15  C   UNL     1     -39.967 -55.003  15.320  1.00  0.00     0.013 C 
HETATM   16  C   UNL     1     -39.391 -52.625  14.565  1.00  0.00     0.033 C 
HETATM   17  C   UNL     1     -39.661 -51.867  13.274  1.00  0.00     0.169 C 
HETATM   18  O   UNL     1     -40.200 -52.797  12.314  1.00  0.00    -0.376 OA
ENDBRANCH   1  13
TORSDOF 2
ENDMDL
MODEL 7
REMARK VINA RESULT:      -5.0      4.765      6.580
REMARK  2 active torsions:
REMARK  status: ('A' for Active; 'I' for Inactive)
REMARK    1  A    between atoms: C_6  and  C_7 
REMARK       I    between atoms: C_7  and  N_9 
REMARK    2  A    between atoms: N_9  and  C_10 
ROOT
HETATM    1  C   UNL     1     -39.444 -48.915  11.947  1.00  0.00     0.252 C 
HETATM    2  O   UNL     1     -38.714 -48.266  12.695  1.00  0.00    -0.270 OA
HETATM    3  N   UNL     1     -40.354 -48.354  11.074  1.00  0.00    -0.309 N 
HETATM    4  H   UNL     1     -40.352 -48.754  10.145  1.00  0.00     0.170 HD
ENDROOT
BRANCH   3   5
HETATM    5  C   UNL     1     -40.620 -46.975  11.088  1.00  0.00     0.129 A 
HETATM    6  N   UNL     1     -39.725 -46.244  10.378  1.00  0.00    -0.351 N 
HETATM    7  C   UNL     1     -39.872 -44.901  10.404  1.00  0.00     0.090 A 
ATOM      8  HN  UNL     1     -38.976 -46.688   9.849  1.00  0.00     0.166 HD
HETATM    9  C   UNL     1     -40.903 -44.246  11.058  1.00  0.00     0.019 A 
HETATM   10  C   UNL     1     -41.853 -45.015  11.722  1.00  0.00     0.029 A 
HETATM   11  C   UNL     1     -41.722 -46.403  11.740  1.00  0.00     0.078 A 
HETATM   12 CL   UNL     1     -43.018 -47.313  12.436  1.00  0.00    -0.080 Cl
ENDBRANCH   3   5
BRANCH   1  13
HETATM   13  C   UNL     1     -39.363 -50.445  11.818  1.00  0.00     0.217 C 
HETATM   14  C   UNL     1     -39.899 -51.238  13.002  1.00  0.00     0.022 C 
HETATM   15  C   UNL     1     -41.247 -50.797  13.552  1.00  0.00     0.013 C 
HETATM   16  C   UNL     1     -38.751 -51.171  13.988  1.00  0.00     0.033 C 
HETATM   17  C   UNL     1     -37.525 -51.036  13.098  1.00  0.00     0.169 C 
HETATM   18  O   UNL     1     -37.976 -50.808  11.748  1.00  0.00    -0.376 OA
ENDBRANCH   1  13
TORSDOF 2
ENDMDL
MODEL 8
REMARK VINA RESULT:      -5.0      2.136      2.602
REMARK  2 active torsions:
REMARK  status: ('A' for Active; 'I' for Inactive)
REMARK    1  A    between atoms: C_6  and  C_7 
REMARK       I    between atoms: C_7  and  N_9 
REMARK    2  A    between atoms: N_9  and  C_10 
ROOT
HETATM    1  C   UNL     1     -42.433 -52.149  12.875  1.00  0.00     0.252 C 
HETATM    2  O   UNL     1     -41.894 -52.066  13.978  1.00  0.00    -0.270 OA
HETATM    3  N   UNL     1     -41.974 -51.514  11.739  1.00  0.00    -0.309 N 
HETATM    4  H   UNL     1     -41.956 -52.091  10.909  1.00  0.00     0.170 HD
ENDROOT
BRANCH   3   5
HETATM    5  C   UNL     1     -40.920 -50.587  11.800  1.00  0.00     0.129 A 
HETATM    6  N   UNL     1     -39.700 -51.164  11.927  1.00  0.00    -0.351 N 
HETATM    7  C   UNL     1     -38.641 -50.336  12.065  1.00  0.00     0.090 A 
ATOM      8  HN  UNL     1     -39.586 -52.177  11.919  1.00  0.00     0.166 HD
HETATM    9  C   UNL     1     -38.728 -48.954  12.026  1.00  0.00     0.019 A 
HETATM   10  C   UNL     1     -39.978 -48.380  11.823  1.00  0.00     0.029 A 
HETATM   11  C   UNL     1     -41.098 -49.200  11.701  1.00  0.00     0.078 A 
HETATM   12 CL   UNL     1     -42.596 -48.441  11.285  1.00  0.00    -0.080 Cl
ENDBRANCH   3   5
BRANCH   1  13
HETATM   13  C   UNL     1     -43.641 -53.059  12.600  1.00  0.00     0.217 C 
HETATM   14  C   UNL     1     -44.927 -52.690  13.326  1.00  0.00     0.022 C 
HETATM   15  C   UNL     1     -45.319 -51.221  13.294  1.00  0.00     0.013 C 
HETATM   16  C   UNL     1     -44.698 -53.263  14.709  1.00  0.00     0.033 C 
HETATM   17  C   UNL     1     -43.763 -54.436  14.459  1.00  0.00     0.169 C 
HETATM   18  O   UNL     1     -43.323 -54.372  13.087  1.00  0.00    -0.376 OA
ENDBRANCH   1  13
TORSDOF 2
ENDMDL
MODEL 9
REMARK VINA RESULT:      -4.8      5.417      7.040
REMARK  2 active torsions:
REMARK  status: ('A' for Active; 'I' for Inactive)
REMARK    1  A    between atoms: C_6  and  C_7 
REMARK       I    between atoms: C_7  and  N_9 
REMARK    2  A    between atoms: N_9  and  C_10 
ROOT
HETATM    1  C   UNL     1     -40.290 -47.147  11.640  1.00  0.00     0.252 C 
HETATM    2  O   UNL     1     -39.662 -46.740  12.617  1.00  0.00    -0.270 OA
HETATM    3  N   UNL     1     -40.249 -48.447  11.181  1.00  0.00    -0.309 N 
HETATM    4  H   UNL     1     -41.151 -48.843  10.949  1.00  0.00     0.170 HD
ENDROOT
BRANCH   3   5
HETATM    5  C   UNL     1     -39.350 -49.381  11.720  1.00  0.00     0.129 A 
HETATM    6  N   UNL     1     -38.133 -49.369  11.122  1.00  0.00    -0.351 N 
HETATM    7  C   UNL     1     -37.236 -50.290  11.536  1.00  0.00     0.090 A 
ATOM      8  HN  UNL     1     -37.906 -48.694  10.392  1.00  0.00     0.166 HD
HETATM    9  C   UNL     1     -37.469 -51.192  12.562  1.00  0.00     0.019 A 
HETATM   10  C   UNL     1     -38.697 -51.144  13.213  1.00  0.00     0.029 A 
HETATM   11  C   UNL     1     -39.659 -50.225  12.797  1.00  0.00     0.078 A 
HETATM   12 CL   UNL     1     -41.098 -50.098  13.748  1.00  0.00    -0.080 Cl
ENDBRANCH   3   5
BRANCH   1  13
HETATM   13  C   UNL     1     -41.286 -46.272  10.862  1.00  0.00     0.217 C 
HETATM   14  C   UNL     1     -40.790 -44.884  10.479  1.00  0.00     0.022 C 
HETATM   15  C   UNL     1     -39.396 -44.812   9.876  1.00  0.00     0.013 C 
HETATM   16  C   UNL     1     -40.973 -44.105  11.765  1.00  0.00     0.033 C 
HETATM   17  C   UNL     1     -42.135 -44.811  12.448  1.00  0.00     0.169 C 
HETATM   18  O   UNL     1     -42.413 -46.022  11.716  1.00  0.00    -0.376 OA
ENDBRANCH   1  13
TORSDOF 2
ENDMDL
