MODEL 1
REMARK VINA RESULT:      -5.3      0.000      0.000
REMARK  7 active torsions:
REMARK  status: ('A' for Active; 'I' for Inactive)
REMARK    1  A    between atoms: C_2  and  N_3 
REMARK       I    between atoms: N_3  and  C_4 
REMARK    2  A    between atoms: C_4  and  C_6 
REMARK    3  A    between atoms: C_6  and  C_7 
REMARK    4  A    between atoms: C_7  and  N_8 
REMARK    5  A    between atoms: N_8  and  C_9 
REMARK    6  A    between atoms: C_9  and  C_11 
REMARK    7  A    between atoms: C_11  and  N_12 
ROOT
HETATM    1  N   UNL     1     -41.569 -48.254   9.892  1.00  0.00     0.089 N 
HETATM    2  H   UNL     1     -41.625 -48.937   9.134  1.00  0.00     0.316 HD
ENDROOT
BRANCH   1   3
HETATM    3  C   UNL     1     -41.475 -48.944  11.178  1.00  0.00     0.279 C 
BRANCH   3   4
HETATM    4  C   UNL     1     -40.049 -49.382  11.502  1.00  0.00     0.132 C 
BRANCH   4   5
HETATM    5  C   UNL     1     -40.105 -50.752  12.152  1.00  0.00     0.219 C 
HETATM    6  N   UNL     1     -40.954 -51.635  11.529  1.00  0.00    -0.361 N 
HETATM    7  H   UNL     1     -41.374 -51.384  10.643  1.00  0.00     0.162 HD
HETATM    8  O   UNL     1     -39.456 -51.048  13.152  1.00  0.00    -0.274 OA
BRANCH   6   9
HETATM    9  C   UNL     1     -41.101 -52.991  12.018  1.00  0.00     0.118 C 
HETATM   10  C   UNL     1     -42.347 -53.150  12.869  1.00  0.00     0.026 C 
ENDBRANCH   6   9
ENDBRANCH   4   5
ENDBRANCH   3   4
ENDBRANCH   1   3
BRANCH   1  11
HETATM   11  C   UNL     1     -42.724 -47.329   9.790  1.00  0.00     0.236 C 
HETATM   12  C   UNL     1     -42.343 -45.904  10.219  1.00  0.00     0.044 C 
BRANCH  11  13
HETATM   13  C   UNL     1     -43.428 -47.289   8.415  1.00  0.00     0.183 C 
BRANCH  13  14
HETATM   14  N   UNL     1     -44.796 -47.772   8.448  1.00  0.00    -0.302 N 
HETATM   15  C   UNL     1     -45.719 -47.552   9.430  1.00  0.00     0.111 A 
HETATM   16  C   UNL     1     -46.850 -48.232   9.051  1.00  0.00     0.037 A 
HETATM   17  C   UNL     1     -46.501 -48.853   7.836  1.00  0.00     0.108 A 
HETATM   18  N   UNL     1     -45.237 -48.605   7.483  1.00  0.00    -0.310 N 
ATOM     19  HN  UNL     1     -44.727 -48.962   6.674  1.00  0.00     0.186 HD
ENDBRANCH  13  14
ENDBRANCH  11  13
ENDBRANCH   1  11
TORSDOF 7
ENDMDL
MODEL 2
REMARK VINA RESULT:      -5.1      2.666      5.486
REMARK  7 active torsions:
REMARK  status: ('A' for Active; 'I' for Inactive)
REMARK    1  A    between atoms: C_2  and  N_3 
REMARK       I    between atoms: N_3  and  C_4 
REMARK    2  A    between atoms: C_4  and  C_6 
REMARK    3  A    between atoms: C_6  and  C_7 
REMARK    4  A    between atoms: C_7  and  N_8 
REMARK    5  A    between atoms: N_8  and  C_9 
REMARK    6  A    between atoms: C_9  and  C_11 
REMARK    7  A    between atoms: C_11  and  N_12 
ROOT
HETATM    1  N   UNL     1     -42.017 -50.921  11.881  1.00  0.00     0.089 N 
HETATM    2  H   UNL     1     -42.360 -50.757  10.933  1.00  0.00     0.316 HD
ENDROOT
BRANCH   1   3
HETATM    3  C   UNL     1     -40.602 -50.562  11.967  1.00  0.00     0.279 C 
BRANCH   3   4
HETATM    4  C   UNL     1     -40.253 -49.351  11.104  1.00  0.00     0.132 C 
BRANCH   4   5
HETATM    5  C   UNL     1     -41.501 -48.505  10.938  1.00  0.00     0.219 C 
HETATM    6  N   UNL     1     -41.897 -48.338   9.633  1.00  0.00    -0.361 N 
HETATM    7  H   UNL     1     -41.439 -48.866   8.900  1.00  0.00     0.162 HD
HETATM    8  O   UNL     1     -42.105 -48.005  11.884  1.00  0.00    -0.274 OA
BRANCH   6   9
HETATM    9  C   UNL     1     -43.084 -47.573   9.311  1.00  0.00     0.118 C 
HETATM   10  C   UNL     1     -43.532 -47.804   7.879  1.00  0.00     0.026 C 
ENDBRANCH   6   9
ENDBRANCH   4   5
ENDBRANCH   3   4
ENDBRANCH   1   3
BRANCH   1  11
HETATM   11  C   UNL     1     -42.303 -52.326  12.259  1.00  0.00     0.236 C 
HETATM   12  C   UNL     1     -41.013 -53.153  12.368  1.00  0.00     0.044 C 
BRANCH  11  13
HETATM   13  C   UNL     1     -43.153 -52.513  13.536  1.00  0.00     0.183 C 
BRANCH  13  14
HETATM   14  N   UNL     1     -44.552 -52.170  13.360  1.00  0.00    -0.302 N 
HETATM   15  C   UNL     1     -45.354 -51.515  14.250  1.00  0.00     0.111 A 
HETATM   16  C   UNL     1     -46.597 -51.453  13.670  1.00  0.00     0.037 A 
HETATM   17  C   UNL     1     -46.449 -52.121  12.440  1.00  0.00     0.108 A 
HETATM   18  N   UNL     1     -45.213 -52.592  12.262  1.00  0.00    -0.310 N 
ATOM     19  HN  UNL     1     -44.854 -53.142  11.481  1.00  0.00     0.186 HD
ENDBRANCH  13  14
ENDBRANCH  11  13
ENDBRANCH   1  11
TORSDOF 7
ENDMDL
MODEL 3
REMARK VINA RESULT:      -5.1      2.774      4.727
REMARK  7 active torsions:
REMARK  status: ('A' for Active; 'I' for Inactive)
REMARK    1  A    between atoms: C_2  and  N_3 
REMARK       I    between atoms: N_3  and  C_4 
REMARK    2  A    between atoms: C_4  and  C_6 
REMARK    3  A    between atoms: C_6  and  C_7 
REMARK    4  A    between atoms: C_7  and  N_8 
REMARK    5  A    between atoms: N_8  and  C_9 
REMARK    6  A    between atoms: C_9  and  C_11 
REMARK    7  A    between atoms: C_11  and  N_12 
ROOT
HETATM    1  N   UNL     1     -41.198 -51.491  11.633  1.00  0.00     0.089 N 
HETATM    2  H   UNL     1     -41.481 -51.229  10.687  1.00  0.00     0.316 HD
ENDROOT
BRANCH   1   3
HETATM    3  C   UNL     1     -42.380 -51.775  12.446  1.00  0.00     0.279 C 
BRANCH   3   4
HETATM    4  C   UNL     1     -42.866 -53.214  12.287  1.00  0.00     0.132 C 
BRANCH   4   5
HETATM    5  C   UNL     1     -44.365 -53.241  12.515  1.00  0.00     0.219 C 
HETATM    6  N   UNL     1     -44.947 -51.997  12.575  1.00  0.00    -0.361 N 
HETATM    7  H   UNL     1     -44.398 -51.177  12.347  1.00  0.00     0.162 HD
HETATM    8  O   UNL     1     -45.007 -54.281  12.641  1.00  0.00    -0.274 OA
BRANCH   6   9
HETATM    9  C   UNL     1     -46.376 -51.856  12.767  1.00  0.00     0.118 C 
HETATM   10  C   UNL     1     -46.716 -51.456  14.191  1.00  0.00     0.026 C 
ENDBRANCH   6   9
ENDBRANCH   4   5
ENDBRANCH   3   4
ENDBRANCH   1   3
BRANCH   1  11
HETATM   11  C   UNL     1     -40.332 -50.422  12.187  1.00  0.00     0.236 C 
HETATM   12  C   UNL     1     -38.953 -50.966  12.588  1.00  0.00     0.044 C 
BRANCH  11  13
HETATM   13  C   UNL     1     -40.160 -49.173  11.292  1.00  0.00     0.183 C 
BRANCH  13  14
HETATM   14  N   UNL     1     -41.409 -48.505  10.980  1.00  0.00    -0.302 N 
HETATM   15  C   UNL     1     -42.352 -48.072  11.869  1.00  0.00     0.111 A 
HETATM   16  C   UNL     1     -43.371 -47.543  11.116  1.00  0.00     0.037 A 
HETATM   17  C   UNL     1     -42.960 -47.725   9.782  1.00  0.00     0.108 A 
HETATM   18  N   UNL     1     -41.781 -48.344   9.693  1.00  0.00    -0.310 N 
ATOM     19  HN  UNL     1     -41.280 -48.629   8.851  1.00  0.00     0.186 HD
ENDBRANCH  13  14
ENDBRANCH  11  13
ENDBRANCH   1  11
TORSDOF 7
ENDMDL
MODEL 4
REMARK VINA RESULT:      -4.9      3.866      6.019
REMARK  7 active torsions:
REMARK  status: ('A' for Active; 'I' for Inactive)
REMARK    1  A    between atoms: C_2  and  N_3 
REMARK       I    between atoms: N_3  and  C_4 
REMARK    2  A    between atoms: C_4  and  C_6 
REMARK    3  A    between atoms: C_6  and  C_7 
REMARK    4  A    between atoms: C_7  and  N_8 
REMARK    5  A    between atoms: N_8  and  C_9 
REMARK    6  A    between atoms: C_9  and  C_11 
REMARK    7  A    between atoms: C_11  and  N_12 
ROOT
HETATM    1  N   UNL     1     -41.644 -50.728  11.583  1.00  0.00     0.089 N 
HETATM    2  H   UNL     1     -42.016 -51.088  10.703  1.00  0.00     0.316 HD
ENDROOT
BRANCH   1   3
HETATM    3  C   UNL     1     -42.299 -51.392  12.710  1.00  0.00     0.279 C 
BRANCH   3   4
HETATM    4  C   UNL     1     -42.712 -52.825  12.383  1.00  0.00     0.132 C 
BRANCH   4   5
HETATM    5  C   UNL     1     -44.219 -52.933  12.520  1.00  0.00     0.219 C 
HETATM    6  N   UNL     1     -44.850 -51.732  12.742  1.00  0.00    -0.361 N 
HETATM    7  H   UNL     1     -44.322 -50.871  12.675  1.00  0.00     0.162 HD
HETATM    8  O   UNL     1     -44.826 -53.999  12.447  1.00  0.00    -0.274 OA
BRANCH   6   9
HETATM    9  C   UNL     1     -46.291 -51.667  12.874  1.00  0.00     0.118 C 
HETATM   10  C   UNL     1     -46.715 -51.431  14.312  1.00  0.00     0.026 C 
ENDBRANCH   6   9
ENDBRANCH   4   5
ENDBRANCH   3   4
ENDBRANCH   1   3
BRANCH   1  11
HETATM   11  C   UNL     1     -41.782 -49.252  11.594  1.00  0.00     0.236 C 
HETATM   12  C   UNL     1     -42.601 -48.772  12.802  1.00  0.00     0.044 C 
BRANCH  11  13
HETATM   13  C   UNL     1     -40.459 -48.457  11.513  1.00  0.00     0.183 C 
BRANCH  13  14
HETATM   14  N   UNL     1     -39.293 -49.227  11.904  1.00  0.00    -0.302 N 
HETATM   15  C   UNL     1     -38.804 -49.388  13.170  1.00  0.00     0.111 A 
HETATM   16  C   UNL     1     -37.673 -50.158  13.046  1.00  0.00     0.037 A 
HETATM   17  C   UNL     1     -37.551 -50.391  11.664  1.00  0.00     0.108 A 
HETATM   18  N   UNL     1     -38.515 -49.795  10.959  1.00  0.00    -0.310 N 
ATOM     19  HN  UNL     1     -38.636 -49.774   9.946  1.00  0.00     0.186 HD
ENDBRANCH  13  14
ENDBRANCH  11  13
ENDBRANCH   1  11
TORSDOF 7
ENDMDL
MODEL 5
REMARK VINA RESULT:      -4.8      4.630      6.772
REMARK  7 active torsions:
REMARK  status: ('A' for Active; 'I' for Inactive)
REMARK    1  A    between atoms: C_2  and  N_3 
REMARK       I    between atoms: N_3  and  C_4 
REMARK    2  A    between atoms: C_4  and  C_6 
REMARK    3  A    between atoms: C_6  and  C_7 
REMARK    4  A    between atoms: C_7  and  N_8 
REMARK    5  A    between atoms: N_8  and  C_9 
REMARK    6  A    between atoms: C_9  and  C_11 
REMARK    7  A    between atoms: C_11  and  N_12 
ROOT
HETATM    1  N   UNL     1     -42.410 -53.096  12.173  1.00  0.00     0.089 N 
HETATM    2  H   UNL     1     -43.389 -52.844  12.322  1.00  0.00     0.316 HD
ENDROOT
BRANCH   1   3
HETATM    3  C   UNL     1     -42.007 -54.120  13.136  1.00  0.00     0.279 C 
BRANCH   3   4
HETATM    4  C   UNL     1     -43.061 -54.352  14.217  1.00  0.00     0.132 C 
BRANCH   4   5
HETATM    5  C   UNL     1     -44.426 -54.051  13.628  1.00  0.00     0.219 C 
HETATM    6  N   UNL     1     -45.144 -53.110  14.327  1.00  0.00    -0.361 N 
HETATM    7  H   UNL     1     -44.699 -52.600  15.080  1.00  0.00     0.162 HD
HETATM    8  O   UNL     1     -44.859 -54.602  12.619  1.00  0.00    -0.274 OA
BRANCH   6   9
HETATM    9  C   UNL     1     -46.459 -52.699  13.879  1.00  0.00     0.118 C 
HETATM   10  C   UNL     1     -46.389 -51.491  12.963  1.00  0.00     0.026 C 
ENDBRANCH   6   9
ENDBRANCH   4   5
ENDBRANCH   3   4
ENDBRANCH   1   3
BRANCH   1  11
HETATM   11  C   UNL     1     -41.584 -51.866  12.225  1.00  0.00     0.236 C 
HETATM   12  C   UNL     1     -42.395 -50.664  12.733  1.00  0.00     0.044 C 
BRANCH  11  13
HETATM   13  C   UNL     1     -40.266 -51.981  13.024  1.00  0.00     0.183 C 
BRANCH  13  14
HETATM   14  N   UNL     1     -39.315 -50.926  12.732  1.00  0.00    -0.302 N 
HETATM   15  C   UNL     1     -38.779 -50.035  13.619  1.00  0.00     0.111 A 
HETATM   16  C   UNL     1     -37.968 -49.206  12.885  1.00  0.00     0.037 A 
HETATM   17  C   UNL     1     -38.100 -49.661  11.560  1.00  0.00     0.108 A 
HETATM   18  N   UNL     1     -38.949 -50.686  11.456  1.00  0.00    -0.310 N 
ATOM     19  HN  UNL     1     -39.249 -51.173  10.611  1.00  0.00     0.186 HD
ENDBRANCH  13  14
ENDBRANCH  11  13
ENDBRANCH   1  11
TORSDOF 7
ENDMDL
MODEL 6
REMARK VINA RESULT:      -4.8      3.800      6.296
REMARK  7 active torsions:
REMARK  status: ('A' for Active; 'I' for Inactive)
REMARK    1  A    between atoms: C_2  and  N_3 
REMARK       I    between atoms: N_3  and  C_4 
REMARK    2  A    between atoms: C_4  and  C_6 
REMARK    3  A    between atoms: C_6  and  C_7 
REMARK    4  A    between atoms: C_7  and  N_8 
REMARK    5  A    between atoms: N_8  and  C_9 
REMARK    6  A    between atoms: C_9  and  C_11 
REMARK    7  A    between atoms: C_11  and  N_12 
ROOT
HETATM    1  N   UNL     1     -42.547 -53.713  12.796  1.00  0.00     0.089 N 
HETATM    2  H   UNL     1     -43.513 -53.866  12.501  1.00  0.00     0.316 HD
ENDROOT
BRANCH   1   3
HETATM    3  C   UNL     1     -42.341 -54.266  14.134  1.00  0.00     0.279 C 
BRANCH   3   4
HETATM    4  C   UNL     1     -43.535 -55.087  14.617  1.00  0.00     0.132 C 
BRANCH   4   5
HETATM    5  C   UNL     1     -44.798 -54.486  14.031  1.00  0.00     0.219 C 
HETATM    6  N   UNL     1     -45.442 -53.606  14.868  1.00  0.00    -0.361 N 
HETATM    7  H   UNL     1     -44.997 -53.319  15.730  1.00  0.00     0.162 HD
HETATM    8  O   UNL     1     -45.217 -54.764  12.910  1.00  0.00    -0.274 OA
BRANCH   6   9
HETATM    9  C   UNL     1     -46.653 -52.933  14.444  1.00  0.00     0.118 C 
HETATM   10  C   UNL     1     -46.420 -51.452  14.207  1.00  0.00     0.026 C 
ENDBRANCH   6   9
ENDBRANCH   4   5
ENDBRANCH   3   4
ENDBRANCH   1   3
BRANCH   1  11
HETATM   11  C   UNL     1     -42.237 -52.266  12.690  1.00  0.00     0.236 C 
HETATM   12  C   UNL     1     -42.192 -51.598  14.072  1.00  0.00     0.044 C 
BRANCH  11  13
HETATM   13  C   UNL     1     -40.956 -51.915  11.899  1.00  0.00     0.183 C 
BRANCH  13  14
HETATM   14  N   UNL     1     -40.766 -50.490  11.704  1.00  0.00    -0.302 N 
HETATM   15  C   UNL     1     -39.671 -49.754  12.059  1.00  0.00     0.111 A 
HETATM   16  C   UNL     1     -39.958 -48.455  11.718  1.00  0.00     0.037 A 
HETATM   17  C   UNL     1     -41.260 -48.507  11.185  1.00  0.00     0.108 A 
HETATM   18  N   UNL     1     -41.771 -49.740  11.208  1.00  0.00    -0.310 N 
ATOM     19  HN  UNL     1     -42.702 -50.043  10.920  1.00  0.00     0.186 HD
ENDBRANCH  13  14
ENDBRANCH  11  13
ENDBRANCH   1  11
TORSDOF 7
ENDMDL
MODEL 7
REMARK VINA RESULT:      -4.7      2.914      6.640
REMARK  7 active torsions:
REMARK  status: ('A' for Active; 'I' for Inactive)
REMARK    1  A    between atoms: C_2  and  N_3 
REMARK       I    between atoms: N_3  and  C_4 
REMARK    2  A    between atoms: C_4  and  C_6 
REMARK    3  A    between atoms: C_6  and  C_7 
REMARK    4  A    between atoms: C_7  and  N_8 
REMARK    5  A    between atoms: N_8  and  C_9 
REMARK    6  A    between atoms: C_9  and  C_11 
REMARK    7  A    between atoms: C_11  and  N_12 
ROOT
HETATM    1  N   UNL     1     -41.088 -47.644  11.707  1.00  0.00     0.089 N 
HETATM    2  H   UNL     1     -40.131 -47.707  11.356  1.00  0.00     0.316 HD
ENDROOT
BRANCH   1   3
HETATM    3  C   UNL     1     -41.220 -46.486  12.591  1.00  0.00     0.279 C 
BRANCH   3   4
HETATM    4  C   UNL     1     -42.313 -45.523  12.132  1.00  0.00     0.132 C 
BRANCH   4   5
HETATM    5  C   UNL     1     -42.396 -45.578  10.619  1.00  0.00     0.219 C 
HETATM    6  N   UNL     1     -43.599 -46.040  10.139  1.00  0.00    -0.361 N 
HETATM    7  H   UNL     1     -44.369 -46.188  10.780  1.00  0.00     0.162 HD
HETATM    8  O   UNL     1     -41.471 -45.246   9.882  1.00  0.00    -0.274 OA
BRANCH   6   9
HETATM    9  C   UNL     1     -43.842 -46.131   8.714  1.00  0.00     0.118 C 
HETATM   10  C   UNL     1     -43.611 -47.537   8.192  1.00  0.00     0.026 C 
ENDBRANCH   6   9
ENDBRANCH   4   5
ENDBRANCH   3   4
ENDBRANCH   1   3
BRANCH   1  11
HETATM   11  C   UNL     1     -41.450 -48.932  12.348  1.00  0.00     0.236 C 
HETATM   12  C   UNL     1     -42.970 -49.069  12.517  1.00  0.00     0.044 C 
BRANCH  11  13
HETATM   13  C   UNL     1     -40.884 -50.198  11.665  1.00  0.00     0.183 C 
BRANCH  13  14
HETATM   14  N   UNL     1     -39.447 -50.340  11.802  1.00  0.00    -0.302 N 
HETATM   15  C   UNL     1     -38.771 -50.844  12.878  1.00  0.00     0.111 A 
HETATM   16  C   UNL     1     -37.437 -50.742  12.572  1.00  0.00     0.037 A 
HETATM   17  C   UNL     1     -37.408 -50.141  11.299  1.00  0.00     0.108 A 
HETATM   18  N   UNL     1     -38.631 -49.860  10.841  1.00  0.00    -0.310 N 
ATOM     19  HN  UNL     1     -38.886 -49.392   9.971  1.00  0.00     0.186 HD
ENDBRANCH  13  14
ENDBRANCH  11  13
ENDBRANCH   1  11
TORSDOF 7
ENDMDL
MODEL 8
REMARK VINA RESULT:      -4.6      2.547      6.051
REMARK  7 active torsions:
REMARK  status: ('A' for Active; 'I' for Inactive)
REMARK    1  A    between atoms: C_2  and  N_3 
REMARK       I    between atoms: N_3  and  C_4 
REMARK    2  A    between atoms: C_4  and  C_6 
REMARK    3  A    between atoms: C_6  and  C_7 
REMARK    4  A    between atoms: C_7  and  N_8 
REMARK    5  A    between atoms: N_8  and  C_9 
REMARK    6  A    between atoms: C_9  and  C_11 
REMARK    7  A    between atoms: C_11  and  N_12 
ROOT
HETATM    1  N   UNL     1     -40.856 -48.162  10.649  1.00  0.00     0.089 N 
HETATM    2  H   UNL     1     -40.269 -47.336  10.778  1.00  0.00     0.316 HD
ENDROOT
BRANCH   1   3
HETATM    3  C   UNL     1     -42.190 -47.760  10.206  1.00  0.00     0.279 C 
BRANCH   3   4
HETATM    4  C   UNL     1     -42.318 -46.248  10.035  1.00  0.00     0.132 C 
BRANCH   4   5
HETATM    5  C   UNL     1     -43.687 -45.946   9.454  1.00  0.00     0.219 C 
HETATM    6  N   UNL     1     -44.593 -46.971   9.589  1.00  0.00    -0.361 N 
HETATM    7  H   UNL     1     -44.355 -47.777  10.153  1.00  0.00     0.162 HD
HETATM    8  O   UNL     1     -43.963 -44.882   8.904  1.00  0.00    -0.274 OA
BRANCH   6   9
HETATM    9  C   UNL     1     -45.950 -46.827   9.104  1.00  0.00     0.118 C 
HETATM   10  C   UNL     1     -46.620 -48.173   8.898  1.00  0.00     0.026 C 
ENDBRANCH   6   9
ENDBRANCH   4   5
ENDBRANCH   3   4
ENDBRANCH   1   3
BRANCH   1  11
HETATM   11  C   UNL     1     -40.853 -48.953  11.904  1.00  0.00     0.236 C 
HETATM   12  C   UNL     1     -39.969 -48.301  12.978  1.00  0.00     0.044 C 
BRANCH  11  13
HETATM   13  C   UNL     1     -42.246 -49.269  12.496  1.00  0.00     0.183 C 
BRANCH  13  14
HETATM   14  N   UNL     1     -42.435 -50.670  12.819  1.00  0.00    -0.302 N 
HETATM   15  C   UNL     1     -42.751 -51.195  14.040  1.00  0.00     0.111 A 
HETATM   16  C   UNL     1     -42.786 -52.557  13.873  1.00  0.00     0.037 A 
HETATM   17  C   UNL     1     -42.453 -52.758  12.520  1.00  0.00     0.108 A 
HETATM   18  N   UNL     1     -42.203 -51.613  11.882  1.00  0.00    -0.310 N 
ATOM     19  HN  UNL     1     -41.905 -51.482  10.914  1.00  0.00     0.186 HD
ENDBRANCH  13  14
ENDBRANCH  11  13
ENDBRANCH   1  11
TORSDOF 7
ENDMDL
MODEL 9
REMARK VINA RESULT:      -4.6      3.236      6.156
REMARK  7 active torsions:
REMARK  status: ('A' for Active; 'I' for Inactive)
REMARK    1  A    between atoms: C_2  and  N_3 
REMARK       I    between atoms: N_3  and  C_4 
REMARK    2  A    between atoms: C_4  and  C_6 
REMARK    3  A    between atoms: C_6  and  C_7 
REMARK    4  A    between atoms: C_7  and  N_8 
REMARK    5  A    between atoms: N_8  and  C_9 
REMARK    6  A    between atoms: C_9  and  C_11 
REMARK    7  A    between atoms: C_11  and  N_12 
ROOT
HETATM    1  N   UNL     1     -42.711 -52.854  13.540  1.00  0.00     0.089 N 
HETATM    2  H   UNL     1     -43.435 -52.196  13.833  1.00  0.00     0.316 HD
ENDROOT
BRANCH   1   3
HETATM    3  C   UNL     1     -42.206 -52.483  12.218  1.00  0.00     0.279 C 
BRANCH   3   4
HETATM    4  C   UNL     1     -41.477 -51.141  12.227  1.00  0.00     0.132 C 
BRANCH   4   5
HETATM    5  C   UNL     1     -42.511 -50.035  12.323  1.00  0.00     0.219 C 
HETATM    6  N   UNL     1     -42.387 -49.066  11.357  1.00  0.00    -0.361 N 
HETATM    7  H   UNL     1     -41.733 -49.199  10.596  1.00  0.00     0.162 HD
HETATM    8  O   UNL     1     -43.380 -50.001  13.191  1.00  0.00    -0.274 OA
BRANCH   6   9
HETATM    9  C   UNL     1     -43.313 -47.953  11.302  1.00  0.00     0.118 C 
HETATM   10  C   UNL     1     -43.535 -47.474   9.879  1.00  0.00     0.026 C 
ENDBRANCH   6   9
ENDBRANCH   4   5
ENDBRANCH   3   4
ENDBRANCH   1   3
BRANCH   1  11
HETATM   11  C   UNL     1     -43.258 -54.231  13.607  1.00  0.00     0.236 C 
HETATM   12  C   UNL     1     -43.074 -54.841  15.005  1.00  0.00     0.044 C 
BRANCH  11  13
HETATM   13  C   UNL     1     -44.729 -54.386  13.159  1.00  0.00     0.183 C 
BRANCH  13  14
HETATM   14  N   UNL     1     -45.502 -53.163  13.266  1.00  0.00    -0.302 N 
HETATM   15  C   UNL     1     -46.028 -52.623  14.405  1.00  0.00     0.111 A 
HETATM   16  C   UNL     1     -46.707 -51.495  14.014  1.00  0.00     0.037 A 
HETATM   17  C   UNL     1     -46.552 -51.453  12.616  1.00  0.00     0.108 A 
HETATM   18  N   UNL     1     -45.849 -52.489  12.150  1.00  0.00    -0.310 N 
ATOM     19  HN  UNL     1     -45.627 -52.716  11.180  1.00  0.00     0.186 HD
ENDBRANCH  13  14
ENDBRANCH  11  13
ENDBRANCH   1  11
TORSDOF 7
ENDMDL
