MODEL 1
REMARK VINA RESULT:      -5.1      0.000      0.000
REMARK  8 active torsions:
REMARK  status: ('A' for Active; 'I' for Inactive)
REMARK    1  A    between atoms: C_2  and  O_3 
REMARK    2  A    between atoms: O_3  and  C_4 
REMARK    3  A    between atoms: C_4  and  C_5 
REMARK    4  A    between atoms: C_5  and  N_6 
REMARK    5  A    between atoms: C_7  and  C_8 
REMARK    6  A    between atoms: C_8  and  C_9 
REMARK    7  A    between atoms: C_9  and  C_10 
REMARK    8  A    between atoms: C_10  and  O_11 
ROOT
HETATM    1  N   UNL     1     -41.161 -53.134  13.677  1.00  0.00    -0.333 N 
HETATM    2  C   UNL     1     -41.126 -52.196  12.658  1.00  0.00     0.084 A 
HETATM    3  N   UNL     1     -42.299 -52.122  12.057  1.00  0.00    -0.344 N 
ATOM      4  HN  UNL     1     -42.547 -51.520  11.272  1.00  0.00     0.167 HD
HETATM    5  C   UNL     1     -43.116 -53.013  12.697  1.00  0.00     0.060 A 
HETATM    6  C   UNL     1     -44.474 -53.293  12.477  1.00  0.00     0.032 A 
HETATM    7  C   UNL     1     -45.099 -54.273  13.256  1.00  0.00     0.002 A 
HETATM    8  C   UNL     1     -44.384 -54.965  14.233  1.00  0.00     0.002 A 
HETATM    9  C   UNL     1     -43.033 -54.686  14.476  1.00  0.00     0.032 A 
HETATM   10  C   UNL     1     -42.426 -53.692  13.694  1.00  0.00     0.062 A 
ENDROOT
BRANCH   1  11
HETATM   11  C   UNL     1     -40.093 -53.506  14.590  1.00  0.00     0.156 C 
BRANCH  11  12
HETATM   12  C   UNL     1     -39.216 -54.657  14.105  1.00  0.00     0.187 C 
BRANCH  12  13
HETATM   13  O   UNL     1     -38.945 -55.545  15.188  1.00  0.00    -0.390 OA
BRANCH  13  14
HETATM   14  C   UNL     1     -39.742 -55.258  16.333  1.00  0.00     0.163 C 
HETATM   15  C   UNL     1     -40.370 -56.553  16.810  1.00  0.00     0.033 C 
ENDBRANCH  13  14
ENDBRANCH  12  13
ENDBRANCH  11  12
ENDBRANCH   1  11
BRANCH   2  16
HETATM   16  C   UNL     1     -39.987 -51.291  12.302  1.00  0.00     0.079 C 
BRANCH  16  17
HETATM   17  C   UNL     1     -40.216 -49.803  12.529  1.00  0.00     0.033 C 
BRANCH  17  18
HETATM   18  C   UNL     1     -40.501 -49.019  11.256  1.00  0.00     0.164 C 
BRANCH  18  19
HETATM   19  O   UNL     1     -40.558 -49.930  10.162  1.00  0.00    -0.401 OA
HETATM   20  H   UNL     1     -40.555 -49.406   9.343  1.00  0.00     0.209 HD
ENDBRANCH  18  19
ENDBRANCH  17  18
ENDBRANCH  16  17
ENDBRANCH   2  16
TORSDOF 8
ENDMDL
MODEL 2
REMARK VINA RESULT:      -5.0      2.193      4.782
REMARK  8 active torsions:
REMARK  status: ('A' for Active; 'I' for Inactive)
REMARK    1  A    between atoms: C_2  and  O_3 
REMARK    2  A    between atoms: O_3  and  C_4 
REMARK    3  A    between atoms: C_4  and  C_5 
REMARK    4  A    between atoms: C_5  and  N_6 
REMARK    5  A    between atoms: C_7  and  C_8 
REMARK    6  A    between atoms: C_8  and  C_9 
REMARK    7  A    between atoms: C_9  and  C_10 
REMARK    8  A    between atoms: C_10  and  O_11 
ROOT
HETATM    1  N   UNL     1     -42.493 -53.930  13.450  1.00  0.00    -0.333 N 
HETATM    2  C   UNL     1     -41.388 -53.186  13.073  1.00  0.00     0.084 A 
HETATM    3  N   UNL     1     -40.383 -53.395  13.904  1.00  0.00    -0.344 N 
ATOM      4  HN  UNL     1     -39.457 -52.970  13.863  1.00  0.00     0.167 HD
HETATM    5  C   UNL     1     -40.832 -54.297  14.830  1.00  0.00     0.060 A 
HETATM    6  C   UNL     1     -40.147 -54.885  15.904  1.00  0.00     0.032 A 
HETATM    7  C   UNL     1     -40.831 -55.777  16.737  1.00  0.00     0.002 A 
HETATM    8  C   UNL     1     -42.173 -56.074  16.508  1.00  0.00     0.002 A 
HETATM    9  C   UNL     1     -42.867 -55.509  15.430  1.00  0.00     0.032 A 
HETATM   10  C   UNL     1     -42.161 -54.626  14.598  1.00  0.00     0.062 A 
ENDROOT
BRANCH   1  11
HETATM   11  C   UNL     1     -43.790 -54.002  12.798  1.00  0.00     0.156 C 
BRANCH  11  12
HETATM   12  C   UNL     1     -44.663 -52.764  12.982  1.00  0.00     0.187 C 
BRANCH  12  13
HETATM   13  O   UNL     1     -45.811 -52.853  12.141  1.00  0.00    -0.390 OA
BRANCH  13  14
HETATM   14  C   UNL     1     -46.703 -51.758  12.329  1.00  0.00     0.163 C 
HETATM   15  C   UNL     1     -47.476 -51.550  11.042  1.00  0.00     0.033 C 
ENDBRANCH  13  14
ENDBRANCH  12  13
ENDBRANCH  11  12
ENDBRANCH   1  11
BRANCH   2  16
HETATM   16  C   UNL     1     -41.250 -52.326  11.854  1.00  0.00     0.079 C 
BRANCH  16  17
HETATM   17  C   UNL     1     -41.453 -50.832  12.059  1.00  0.00     0.033 C 
BRANCH  17  18
HETATM   18  C   UNL     1     -40.314 -49.973  11.528  1.00  0.00     0.164 C 
BRANCH  18  19
HETATM   19  O   UNL     1     -40.419 -49.903  10.109  1.00  0.00    -0.401 OA
HETATM   20  H   UNL     1     -40.735 -50.767   9.795  1.00  0.00     0.209 HD
ENDBRANCH  18  19
ENDBRANCH  17  18
ENDBRANCH  16  17
ENDBRANCH   2  16
TORSDOF 8
ENDMDL
MODEL 3
REMARK VINA RESULT:      -4.9      1.756      2.722
REMARK  8 active torsions:
REMARK  status: ('A' for Active; 'I' for Inactive)
REMARK    1  A    between atoms: C_2  and  O_3 
REMARK    2  A    between atoms: O_3  and  C_4 
REMARK    3  A    between atoms: C_4  and  C_5 
REMARK    4  A    between atoms: C_5  and  N_6 
REMARK    5  A    between atoms: C_7  and  C_8 
REMARK    6  A    between atoms: C_8  and  C_9 
REMARK    7  A    between atoms: C_9  and  C_10 
REMARK    8  A    between atoms: C_10  and  O_11 
ROOT
HETATM    1  N   UNL     1     -41.377 -52.338  13.550  1.00  0.00    -0.333 N 
HETATM    2  C   UNL     1     -41.692 -51.826  12.302  1.00  0.00     0.084 A 
HETATM    3  N   UNL     1     -42.794 -52.384  11.838  1.00  0.00    -0.344 N 
ATOM      4  HN  UNL     1     -43.244 -52.197  10.942  1.00  0.00     0.167 HD
HETATM    5  C   UNL     1     -43.214 -53.264  12.798  1.00  0.00     0.060 A 
HETATM    6  C   UNL     1     -44.355 -54.080  12.821  1.00  0.00     0.032 A 
HETATM    7  C   UNL     1     -44.565 -54.922  13.918  1.00  0.00     0.002 A 
HETATM    8  C   UNL     1     -43.653 -54.954  14.972  1.00  0.00     0.002 A 
HETATM    9  C   UNL     1     -42.517 -54.135  14.973  1.00  0.00     0.032 A 
HETATM   10  C   UNL     1     -42.329 -53.288  13.870  1.00  0.00     0.062 A 
ENDROOT
BRANCH   1  11
HETATM   11  C   UNL     1     -40.261 -51.980  14.410  1.00  0.00     0.156 C 
BRANCH  11  12
HETATM   12  C   UNL     1     -39.040 -52.885  14.275  1.00  0.00     0.187 C 
BRANCH  12  13
HETATM   13  O   UNL     1     -38.200 -52.409  13.224  1.00  0.00    -0.390 OA
BRANCH  13  14
HETATM   14  C   UNL     1     -37.832 -51.044  13.406  1.00  0.00     0.163 C 
HETATM   15  C   UNL     1     -37.406 -50.486  12.062  1.00  0.00     0.033 C 
ENDBRANCH  13  14
ENDBRANCH  12  13
ENDBRANCH  11  12
ENDBRANCH   1  11
BRANCH   2  16
HETATM   16  C   UNL     1     -40.985 -50.726  11.572  1.00  0.00     0.079 C 
BRANCH  16  17
HETATM   17  C   UNL     1     -41.287 -49.308  12.038  1.00  0.00     0.033 C 
BRANCH  17  18
HETATM   18  C   UNL     1     -42.171 -48.518  11.084  1.00  0.00     0.164 C 
BRANCH  18  19
HETATM   19  O   UNL     1     -41.553 -48.497   9.801  1.00  0.00    -0.401 OA
HETATM   20  H   UNL     1     -40.785 -47.903   9.854  1.00  0.00     0.209 HD
ENDBRANCH  18  19
ENDBRANCH  17  18
ENDBRANCH  16  17
ENDBRANCH   2  16
TORSDOF 8
ENDMDL
MODEL 4
REMARK VINA RESULT:      -4.9      6.155      8.110
REMARK  8 active torsions:
REMARK  status: ('A' for Active; 'I' for Inactive)
REMARK    1  A    between atoms: C_2  and  O_3 
REMARK    2  A    between atoms: O_3  and  C_4 
REMARK    3  A    between atoms: C_4  and  C_5 
REMARK    4  A    between atoms: C_5  and  N_6 
REMARK    5  A    between atoms: C_7  and  C_8 
REMARK    6  A    between atoms: C_8  and  C_9 
REMARK    7  A    between atoms: C_9  and  C_10 
REMARK    8  A    between atoms: C_10  and  O_11 
ROOT
HETATM    1  N   UNL     1     -41.347 -47.321  12.056  1.00  0.00    -0.333 N 
HETATM    2  C   UNL     1     -41.797 -47.906  10.884  1.00  0.00     0.084 A 
HETATM    3  N   UNL     1     -40.981 -48.872  10.507  1.00  0.00    -0.344 N 
ATOM      4  HN  UNL     1     -41.071 -49.460   9.677  1.00  0.00     0.167 HD
HETATM    5  C   UNL     1     -39.991 -48.930  11.449  1.00  0.00     0.060 A 
HETATM    6  C   UNL     1     -38.900 -49.809  11.542  1.00  0.00     0.032 A 
HETATM    7  C   UNL     1     -37.998 -49.658  12.601  1.00  0.00     0.002 A 
HETATM    8  C   UNL     1     -38.175 -48.649  13.546  1.00  0.00     0.002 A 
HETATM    9  C   UNL     1     -39.267 -47.774  13.476  1.00  0.00     0.032 A 
HETATM   10  C   UNL     1     -40.168 -47.948  12.415  1.00  0.00     0.062 A 
ENDROOT
BRANCH   1  11
HETATM   11  C   UNL     1     -41.961 -46.242  12.812  1.00  0.00     0.156 C 
BRANCH  11  12
HETATM   12  C   UNL     1     -41.269 -44.890  12.664  1.00  0.00     0.187 C 
BRANCH  12  13
HETATM   13  O   UNL     1     -41.566 -44.333  11.385  1.00  0.00    -0.390 OA
BRANCH  13  14
HETATM   14  C   UNL     1     -40.417 -43.761  10.766  1.00  0.00     0.163 C 
HETATM   15  C   UNL     1     -39.584 -44.885  10.182  1.00  0.00     0.033 C 
ENDBRANCH  13  14
ENDBRANCH  12  13
ENDBRANCH  11  12
ENDBRANCH   1  11
BRANCH   2  16
HETATM   16  C   UNL     1     -43.069 -47.603  10.153  1.00  0.00     0.079 C 
BRANCH  16  17
HETATM   17  C   UNL     1     -43.000 -46.490   9.117  1.00  0.00     0.033 C 
BRANCH  17  18
HETATM   18  C   UNL     1     -44.280 -45.677   8.996  1.00  0.00     0.164 C 
BRANCH  18  19
HETATM   19  O   UNL     1     -44.013 -44.341   9.411  1.00  0.00    -0.401 OA
HETATM   20  H   UNL     1     -44.142 -43.762   8.640  1.00  0.00     0.209 HD
ENDBRANCH  18  19
ENDBRANCH  17  18
ENDBRANCH  16  17
ENDBRANCH   2  16
TORSDOF 8
ENDMDL
MODEL 5
REMARK VINA RESULT:      -4.9      2.490      3.552
REMARK  8 active torsions:
REMARK  status: ('A' for Active; 'I' for Inactive)
REMARK    1  A    between atoms: C_2  and  O_3 
REMARK    2  A    between atoms: O_3  and  C_4 
REMARK    3  A    between atoms: C_4  and  C_5 
REMARK    4  A    between atoms: C_5  and  N_6 
REMARK    5  A    between atoms: C_7  and  C_8 
REMARK    6  A    between atoms: C_8  and  C_9 
REMARK    7  A    between atoms: C_9  and  C_10 
REMARK    8  A    between atoms: C_10  and  O_11 
ROOT
HETATM    1  N   UNL     1     -43.449 -53.222  14.556  1.00  0.00    -0.333 N 
HETATM    2  C   UNL     1     -42.949 -53.696  13.355  1.00  0.00     0.084 A 
HETATM    3  N   UNL     1     -43.782 -53.424  12.367  1.00  0.00    -0.344 N 
ATOM      4  HN  UNL     1     -43.663 -53.666  11.384  1.00  0.00     0.167 HD
HETATM    5  C   UNL     1     -44.835 -52.752  12.926  1.00  0.00     0.060 A 
HETATM    6  C   UNL     1     -45.969 -52.202  12.308  1.00  0.00     0.032 A 
HETATM    7  C   UNL     1     -46.933 -51.570  13.100  1.00  0.00     0.002 A 
HETATM    8  C   UNL     1     -46.773 -51.492  14.483  1.00  0.00     0.002 A 
HETATM    9  C   UNL     1     -45.640 -52.021  15.114  1.00  0.00     0.032 A 
HETATM   10  C   UNL     1     -44.678 -52.640  14.301  1.00  0.00     0.062 A 
ENDROOT
BRANCH   1  11
HETATM   11  C   UNL     1     -42.839 -53.297  15.873  1.00  0.00     0.156 C 
BRANCH  11  12
HETATM   12  C   UNL     1     -43.340 -54.448  16.740  1.00  0.00     0.187 C 
BRANCH  12  13
HETATM   13  O   UNL     1     -42.868 -55.688  16.215  1.00  0.00    -0.390 OA
BRANCH  13  14
HETATM   14  C   UNL     1     -41.996 -56.359  17.120  1.00  0.00     0.163 C 
HETATM   15  C   UNL     1     -40.569 -56.122  16.666  1.00  0.00     0.033 C 
ENDBRANCH  13  14
ENDBRANCH  12  13
ENDBRANCH  11  12
ENDBRANCH   1  11
BRANCH   2  16
HETATM   16  C   UNL     1     -41.618 -54.342  13.123  1.00  0.00     0.079 C 
BRANCH  16  17
HETATM   17  C   UNL     1     -40.414 -53.412  13.100  1.00  0.00     0.033 C 
BRANCH  17  18
HETATM   18  C   UNL     1     -39.282 -53.839  14.022  1.00  0.00     0.164 C 
BRANCH  18  19
HETATM   19  O   UNL     1     -38.622 -54.962  13.445  1.00  0.00    -0.401 OA
HETATM   20  H   UNL     1     -37.757 -55.051  13.881  1.00  0.00     0.209 HD
ENDBRANCH  18  19
ENDBRANCH  17  18
ENDBRANCH  16  17
ENDBRANCH   2  16
TORSDOF 8
ENDMDL
MODEL 6
REMARK VINA RESULT:      -4.9      2.064      4.326
REMARK  8 active torsions:
REMARK  status: ('A' for Active; 'I' for Inactive)
REMARK    1  A    between atoms: C_2  and  O_3 
REMARK    2  A    between atoms: O_3  and  C_4 
REMARK    3  A    between atoms: C_4  and  C_5 
REMARK    4  A    between atoms: C_5  and  N_6 
REMARK    5  A    between atoms: C_7  and  C_8 
REMARK    6  A    between atoms: C_8  and  C_9 
REMARK    7  A    between atoms: C_9  and  C_10 
REMARK    8  A    between atoms: C_10  and  O_11 
ROOT
HETATM    1  N   UNL     1     -43.025 -52.592  13.875  1.00  0.00    -0.333 N 
HETATM    2  C   UNL     1     -42.738 -53.892  14.255  1.00  0.00     0.084 A 
HETATM    3  N   UNL     1     -43.823 -54.492  14.708  1.00  0.00    -0.344 N 
ATOM      4  HN  UNL     1     -43.892 -55.447  15.059  1.00  0.00     0.167 HD
HETATM    5  C   UNL     1     -44.837 -53.578  14.613  1.00  0.00     0.060 A 
HETATM    6  C   UNL     1     -46.198 -53.722  14.922  1.00  0.00     0.032 A 
HETATM    7  C   UNL     1     -47.050 -52.625  14.758  1.00  0.00     0.002 A 
HETATM    8  C   UNL     1     -46.555 -51.405  14.299  1.00  0.00     0.002 A 
HETATM    9  C   UNL     1     -45.202 -51.249  13.970  1.00  0.00     0.032 A 
HETATM   10  C   UNL     1     -44.365 -52.364  14.129  1.00  0.00     0.062 A 
ENDROOT
BRANCH   1  11
HETATM   11  C   UNL     1     -42.122 -51.603  13.310  1.00  0.00     0.156 C 
BRANCH  11  12
HETATM   12  C   UNL     1     -41.417 -52.045  12.031  1.00  0.00     0.187 C 
BRANCH  12  13
HETATM   13  O   UNL     1     -40.009 -52.102  12.251  1.00  0.00    -0.390 OA
BRANCH  13  14
HETATM   14  C   UNL     1     -39.583 -51.185  13.256  1.00  0.00     0.163 C 
HETATM   15  C   UNL     1     -38.069 -51.212  13.310  1.00  0.00     0.033 C 
ENDBRANCH  13  14
ENDBRANCH  12  13
ENDBRANCH  11  12
ENDBRANCH   1  11
BRANCH   2  16
HETATM   16  C   UNL     1     -41.432 -54.609  14.107  1.00  0.00     0.079 C 
BRANCH  16  17
HETATM   17  C   UNL     1     -40.424 -54.409  15.229  1.00  0.00     0.033 C 
BRANCH  17  18
HETATM   18  C   UNL     1     -38.973 -54.557  14.794  1.00  0.00     0.164 C 
BRANCH  18  19
HETATM   19  O   UNL     1     -38.935 -54.702  13.377  1.00  0.00    -0.401 OA
HETATM   20  H   UNL     1     -38.226 -55.335  13.166  1.00  0.00     0.209 HD
ENDBRANCH  18  19
ENDBRANCH  17  18
ENDBRANCH  16  17
ENDBRANCH   2  16
TORSDOF 8
ENDMDL
MODEL 7
REMARK VINA RESULT:      -4.9      2.732      5.525
REMARK  8 active torsions:
REMARK  status: ('A' for Active; 'I' for Inactive)
REMARK    1  A    between atoms: C_2  and  O_3 
REMARK    2  A    between atoms: O_3  and  C_4 
REMARK    3  A    between atoms: C_4  and  C_5 
REMARK    4  A    between atoms: C_5  and  N_6 
REMARK    5  A    between atoms: C_7  and  C_8 
REMARK    6  A    between atoms: C_8  and  C_9 
REMARK    7  A    between atoms: C_9  and  C_10 
REMARK    8  A    between atoms: C_10  and  O_11 
ROOT
HETATM    1  N   UNL     1     -40.783 -50.102  13.457  1.00  0.00    -0.333 N 
HETATM    2  C   UNL     1     -41.941 -50.817  13.204  1.00  0.00     0.084 A 
HETATM    3  N   UNL     1     -42.639 -50.242  12.243  1.00  0.00    -0.344 N 
ATOM      4  HN  UNL     1     -43.534 -50.555  11.866  1.00  0.00     0.167 HD
HETATM    5  C   UNL     1     -41.925 -49.142  11.853  1.00  0.00     0.060 A 
HETATM    6  C   UNL     1     -42.203 -48.212  10.840  1.00  0.00     0.032 A 
HETATM    7  C   UNL     1     -41.321 -47.145  10.638  1.00  0.00     0.002 A 
HETATM    8  C   UNL     1     -40.185 -47.004  11.434  1.00  0.00     0.002 A 
HETATM    9  C   UNL     1     -39.884 -47.932  12.439  1.00  0.00     0.032 A 
HETATM   10  C   UNL     1     -40.773 -49.003  12.619  1.00  0.00     0.062 A 
ENDROOT
BRANCH   1  11
HETATM   11  C   UNL     1     -39.735 -50.403  14.419  1.00  0.00     0.156 C 
BRANCH  11  12
HETATM   12  C   UNL     1     -38.809 -51.546  14.012  1.00  0.00     0.187 C 
BRANCH  12  13
HETATM   13  O   UNL     1     -38.543 -51.475  12.612  1.00  0.00    -0.390 OA
BRANCH  13  14
HETATM   14  C   UNL     1     -37.308 -50.823  12.331  1.00  0.00     0.163 C 
HETATM   15  C   UNL     1     -37.450 -50.087  11.013  1.00  0.00     0.033 C 
ENDBRANCH  13  14
ENDBRANCH  12  13
ENDBRANCH  11  12
ENDBRANCH   1  11
BRANCH   2  16
HETATM   16  C   UNL     1     -42.353 -52.119  13.821  1.00  0.00     0.079 C 
BRANCH  16  17
HETATM   17  C   UNL     1     -42.440 -53.311  12.880  1.00  0.00     0.033 C 
BRANCH  17  18
HETATM   18  C   UNL     1     -41.117 -54.034  12.672  1.00  0.00     0.164 C 
BRANCH  18  19
HETATM   19  O   UNL     1     -40.454 -53.458  11.550  1.00  0.00    -0.401 OA
HETATM   20  H   UNL     1     -39.606 -53.923  11.440  1.00  0.00     0.209 HD
ENDBRANCH  18  19
ENDBRANCH  17  18
ENDBRANCH  16  17
ENDBRANCH   2  16
TORSDOF 8
ENDMDL
MODEL 8
REMARK VINA RESULT:      -4.7      2.364      4.694
REMARK  8 active torsions:
REMARK  status: ('A' for Active; 'I' for Inactive)
REMARK    1  A    between atoms: C_2  and  O_3 
REMARK    2  A    between atoms: O_3  and  C_4 
REMARK    3  A    between atoms: C_4  and  C_5 
REMARK    4  A    between atoms: C_5  and  N_6 
REMARK    5  A    between atoms: C_7  and  C_8 
REMARK    6  A    between atoms: C_8  and  C_9 
REMARK    7  A    between atoms: C_9  and  C_10 
REMARK    8  A    between atoms: C_10  and  O_11 
ROOT
HETATM    1  N   UNL     1     -43.043 -51.990  14.029  1.00  0.00    -0.333 N 
HETATM    2  C   UNL     1     -42.664 -52.634  12.864  1.00  0.00     0.084 A 
HETATM    3  N   UNL     1     -43.718 -52.884  12.109  1.00  0.00    -0.344 N 
ATOM      4  HN  UNL     1     -43.725 -53.354  11.204  1.00  0.00     0.167 HD
HETATM    5  C   UNL     1     -44.800 -52.388  12.783  1.00  0.00     0.060 A 
HETATM    6  C   UNL     1     -46.150 -52.358  12.401  1.00  0.00     0.032 A 
HETATM    7  C   UNL     1     -47.091 -51.808  13.279  1.00  0.00     0.002 A 
HETATM    8  C   UNL     1     -46.696 -51.302  14.516  1.00  0.00     0.002 A 
HETATM    9  C   UNL     1     -45.350 -51.309  14.906  1.00  0.00     0.032 A 
HETATM   10  C   UNL     1     -44.419 -51.853  14.008  1.00  0.00     0.062 A 
ENDROOT
BRANCH   1  11
HETATM   11  C   UNL     1     -42.194 -51.524  15.113  1.00  0.00     0.156 C 
BRANCH  11  12
HETATM   12  C   UNL     1     -41.899 -50.027  15.088  1.00  0.00     0.187 C 
BRANCH  12  13
HETATM   13  O   UNL     1     -41.172 -49.698  13.905  1.00  0.00    -0.390 OA
BRANCH  13  14
HETATM   14  C   UNL     1     -41.627 -48.484  13.313  1.00  0.00     0.163 C 
HETATM   15  C   UNL     1     -42.924 -48.770  12.583  1.00  0.00     0.033 C 
ENDBRANCH  13  14
ENDBRANCH  12  13
ENDBRANCH  11  12
ENDBRANCH   1  11
BRANCH   2  16
HETATM   16  C   UNL     1     -41.269 -52.941  12.414  1.00  0.00     0.079 C 
BRANCH  16  17
HETATM   17  C   UNL     1     -40.733 -54.318  12.778  1.00  0.00     0.033 C 
BRANCH  17  18
HETATM   18  C   UNL     1     -39.628 -54.296  13.824  1.00  0.00     0.164 C 
BRANCH  18  19
HETATM   19  O   UNL     1     -38.666 -55.293  13.492  1.00  0.00    -0.401 OA
HETATM   20  H   UNL     1     -39.130 -56.001  13.013  1.00  0.00     0.209 HD
ENDBRANCH  18  19
ENDBRANCH  17  18
ENDBRANCH  16  17
ENDBRANCH   2  16
TORSDOF 8
ENDMDL
MODEL 9
REMARK VINA RESULT:      -4.7      1.903      4.401
REMARK  8 active torsions:
REMARK  status: ('A' for Active; 'I' for Inactive)
REMARK    1  A    between atoms: C_2  and  O_3 
REMARK    2  A    between atoms: O_3  and  C_4 
REMARK    3  A    between atoms: C_4  and  C_5 
REMARK    4  A    between atoms: C_5  and  N_6 
REMARK    5  A    between atoms: C_7  and  C_8 
REMARK    6  A    between atoms: C_8  and  C_9 
REMARK    7  A    between atoms: C_9  and  C_10 
REMARK    8  A    between atoms: C_10  and  O_11 
ROOT
HETATM    1  N   UNL     1     -41.419 -53.041  12.946  1.00  0.00    -0.333 N 
HETATM    2  C   UNL     1     -40.560 -53.400  13.971  1.00  0.00     0.084 A 
HETATM    3  N   UNL     1     -41.179 -54.171  14.845  1.00  0.00    -0.344 N 
ATOM      4  HN  UNL     1     -40.783 -54.570  15.696  1.00  0.00     0.167 HD
HETATM    5  C   UNL     1     -42.456 -54.330  14.381  1.00  0.00     0.060 A 
HETATM    6  C   UNL     1     -43.509 -55.090  14.914  1.00  0.00     0.032 A 
HETATM    7  C   UNL     1     -44.748 -55.080  14.264  1.00  0.00     0.002 A 
HETATM    8  C   UNL     1     -44.936 -54.325  13.108  1.00  0.00     0.002 A 
HETATM    9  C   UNL     1     -43.892 -53.574  12.554  1.00  0.00     0.032 A 
HETATM   10  C   UNL     1     -42.653 -53.605  13.212  1.00  0.00     0.062 A 
ENDROOT
BRANCH   1  11
HETATM   11  C   UNL     1     -41.131 -52.221  11.781  1.00  0.00     0.156 C 
BRANCH  11  12
HETATM   12  C   UNL     1     -41.239 -50.718  12.020  1.00  0.00     0.187 C 
BRANCH  12  13
HETATM   13  O   UNL     1     -40.206 -50.041  11.306  1.00  0.00    -0.390 OA
BRANCH  13  14
HETATM   14  C   UNL     1     -40.096 -48.672  11.687  1.00  0.00     0.163 C 
HETATM   15  C   UNL     1     -41.178 -47.892  10.967  1.00  0.00     0.033 C 
ENDBRANCH  13  14
ENDBRANCH  12  13
ENDBRANCH  11  12
ENDBRANCH   1  11
BRANCH   2  16
HETATM   16  C   UNL     1     -39.101 -53.079  14.081  1.00  0.00     0.079 C 
BRANCH  16  17
HETATM   17  C   UNL     1     -38.755 -51.715  14.662  1.00  0.00     0.033 C 
BRANCH  17  18
HETATM   18  C   UNL     1     -37.823 -50.888  13.789  1.00  0.00     0.164 C 
BRANCH  18  19
HETATM   19  O   UNL     1     -37.781 -51.468  12.488  1.00  0.00    -0.401 OA
HETATM   20  H   UNL     1     -37.648 -50.746  11.849  1.00  0.00     0.209 HD
ENDBRANCH  18  19
ENDBRANCH  17  18
ENDBRANCH  16  17
ENDBRANCH   2  16
TORSDOF 8
ENDMDL
