MODEL 1
REMARK VINA RESULT:      -6.6      0.000      0.000
REMARK  3 active torsions:
REMARK  status: ('A' for Active; 'I' for Inactive)
REMARK    1  A    between atoms: C_2  and  N_4 
REMARK       I    between atoms: N_4  and  C_5 
REMARK    2  A    between atoms: C_5  and  C_7 
REMARK    3  A    between atoms: C_10  and  N_15 
ROOT
HETATM    1  C   UNL     1     -42.496 -47.739  10.166  1.00  0.00     0.116 A 
HETATM    2  C   UNL     1     -42.428 -47.242  11.450  1.00  0.00     0.040 A 
HETATM    3  C   UNL     1     -41.418 -47.709  12.290  1.00  0.00     0.052 A 
HETATM    4  C   UNL     1     -40.494 -48.653  11.847  1.00  0.00     0.118 A 
HETATM    5  N   UNL     1     -40.617 -49.106  10.576  1.00  0.00    -0.285 N 
ATOM      6  HN  UNL     1     -39.954 -49.804  10.236  1.00  0.00     0.188 HD
HETATM    7  N   UNL     1     -41.611 -48.655   9.720  1.00  0.00    -0.294 N 
ATOM      8  HN  UNL     1     -41.672 -49.010   8.766  1.00  0.00     0.187 HD
ENDROOT
BRANCH   4   9
HETATM    9  N   UNL     1     -39.503 -49.145  12.668  1.00  0.00    -0.361 N 
HETATM   10  C   UNL     1     -38.095 -49.266  12.278  1.00  0.00     0.151 C 
HETATM   11  C   UNL     1     -37.648 -50.735  12.311  1.00  0.00     0.188 C 
HETATM   12  O   UNL     1     -37.957 -51.381  13.551  1.00  0.00    -0.378 OA
HETATM   13  C   UNL     1     -39.361 -51.314  13.893  1.00  0.00     0.070 C 
HETATM   14  C   UNL     1     -40.197 -52.180  12.941  1.00  0.00     0.047 C 
HETATM   15  C   UNL     1     -39.467 -51.904  15.308  1.00  0.00     0.047 C 
HETATM   16  C   UNL     1     -39.852 -49.842  13.916  1.00  0.00     0.161 C 
ENDBRANCH   4   9
BRANCH   1  17
HETATM   17  C   UNL     1     -43.585 -47.310   9.245  1.00  0.00     0.269 C 
HETATM   18  N   UNL     1     -44.731 -48.080   9.263  1.00  0.00    -0.352 N 
HETATM   19  H   UNL     1     -44.715 -48.935   9.811  1.00  0.00     0.163 HD
HETATM   20  O   UNL     1     -43.445 -46.318   8.536  1.00  0.00    -0.266 OA
BRANCH  18  21
HETATM   21  C   UNL     1     -45.890 -47.764   8.441  1.00  0.00     0.076 C 
HETATM   22  C   UNL     1     -46.549 -49.033   7.910  1.00  0.00     0.032 C 
HETATM   23  C   UNL     1     -46.882 -46.924   9.237  1.00  0.00     0.032 C 
ENDBRANCH  18  21
ENDBRANCH   1  17
TORSDOF 3
ENDMDL
MODEL 2
REMARK VINA RESULT:      -6.4      1.130      1.614
REMARK  3 active torsions:
REMARK  status: ('A' for Active; 'I' for Inactive)
REMARK    1  A    between atoms: C_2  and  N_4 
REMARK       I    between atoms: N_4  and  C_5 
REMARK    2  A    between atoms: C_5  and  C_7 
REMARK    3  A    between atoms: C_10  and  N_15 
ROOT
HETATM    1  C   UNL     1     -42.316 -47.486   9.989  1.00  0.00     0.116 A 
HETATM    2  C   UNL     1     -41.877 -46.682  11.020  1.00  0.00     0.040 A 
HETATM    3  C   UNL     1     -40.814 -47.129  11.803  1.00  0.00     0.052 A 
HETATM    4  C   UNL     1     -40.203 -48.356  11.553  1.00  0.00     0.118 A 
HETATM    5  N   UNL     1     -40.685 -49.102  10.529  1.00  0.00    -0.285 N 
ATOM      6  HN  UNL     1     -40.256 -50.008  10.337  1.00  0.00     0.188 HD
HETATM    7  N   UNL     1     -41.739 -48.677   9.733  1.00  0.00    -0.294 N 
ATOM      8  HN  UNL     1     -42.073 -49.259   8.965  1.00  0.00     0.187 HD
ENDROOT
BRANCH   4   9
HETATM    9  N   UNL     1     -39.167 -48.828  12.330  1.00  0.00    -0.361 N 
HETATM   10  C   UNL     1     -38.617 -50.183  12.233  1.00  0.00     0.151 C 
HETATM   11  C   UNL     1     -38.801 -50.939  13.558  1.00  0.00     0.188 C 
HETATM   12  O   UNL     1     -38.320 -50.203  14.687  1.00  0.00    -0.378 OA
HETATM   13  C   UNL     1     -38.920 -48.892  14.812  1.00  0.00     0.070 C 
HETATM   14  C   UNL     1     -40.402 -49.005  15.196  1.00  0.00     0.047 C 
HETATM   15  C   UNL     1     -38.169 -48.206  15.963  1.00  0.00     0.047 C 
HETATM   16  C   UNL     1     -38.722 -48.071  13.510  1.00  0.00     0.161 C 
ENDBRANCH   4   9
BRANCH   1  17
HETATM   17  C   UNL     1     -43.479 -47.077   9.154  1.00  0.00     0.269 C 
HETATM   18  N   UNL     1     -44.557 -47.940   9.153  1.00  0.00    -0.352 N 
HETATM   19  H   UNL     1     -44.444 -48.833   9.624  1.00  0.00     0.163 HD
HETATM   20  O   UNL     1     -43.456 -46.021   8.528  1.00  0.00    -0.266 OA
BRANCH  18  21
HETATM   21  C   UNL     1     -45.776 -47.657   8.410  1.00  0.00     0.076 C 
HETATM   22  C   UNL     1     -46.387 -48.938   7.849  1.00  0.00     0.032 C 
HETATM   23  C   UNL     1     -46.771 -46.919   9.298  1.00  0.00     0.032 C 
ENDBRANCH  18  21
ENDBRANCH   1  17
TORSDOF 3
ENDMDL
MODEL 3
REMARK VINA RESULT:      -6.3      3.174      4.460
REMARK  3 active torsions:
REMARK  status: ('A' for Active; 'I' for Inactive)
REMARK    1  A    between atoms: C_2  and  N_4 
REMARK       I    between atoms: N_4  and  C_5 
REMARK    2  A    between atoms: C_5  and  C_7 
REMARK    3  A    between atoms: C_10  and  N_15 
ROOT
HETATM    1  C   UNL     1     -41.509 -48.327  11.185  1.00  0.00     0.116 A 
HETATM    2  C   UNL     1     -42.341 -48.688  12.224  1.00  0.00     0.040 A 
HETATM    3  C   UNL     1     -42.386 -50.029  12.603  1.00  0.00     0.052 A 
HETATM    4  C   UNL     1     -41.607 -50.986  11.955  1.00  0.00     0.118 A 
HETATM    5  N   UNL     1     -40.813 -50.568  10.938  1.00  0.00    -0.285 N 
ATOM      6  HN  UNL     1     -40.243 -51.255  10.445  1.00  0.00     0.188 HD
HETATM    7  N   UNL     1     -40.750 -49.239  10.544  1.00  0.00    -0.294 N 
ATOM      8  HN  UNL     1     -40.137 -48.955   9.780  1.00  0.00     0.187 HD
ENDROOT
BRANCH   4   9
HETATM    9  N   UNL     1     -41.653 -52.319  12.297  1.00  0.00    -0.361 N 
HETATM   10  C   UNL     1     -42.885 -53.041  12.630  1.00  0.00     0.151 C 
HETATM   11  C   UNL     1     -42.832 -53.568  14.072  1.00  0.00     0.188 C 
HETATM   12  O   UNL     1     -41.639 -54.311  14.347  1.00  0.00    -0.378 OA
HETATM   13  C   UNL     1     -40.429 -53.565  14.079  1.00  0.00     0.070 C 
HETATM   14  C   UNL     1     -40.256 -52.423  15.091  1.00  0.00     0.047 C 
HETATM   15  C   UNL     1     -39.279 -54.565  14.273  1.00  0.00     0.047 C 
HETATM   16  C   UNL     1     -40.414 -53.046  12.616  1.00  0.00     0.161 C 
ENDBRANCH   4   9
BRANCH   1  17
HETATM   17  C   UNL     1     -41.462 -46.917  10.709  1.00  0.00     0.269 C 
HETATM   18  N   UNL     1     -40.203 -46.370  10.558  1.00  0.00    -0.352 N 
HETATM   19  H   UNL     1     -39.411 -46.919  10.880  1.00  0.00     0.163 HD
HETATM   20  O   UNL     1     -42.499 -46.309  10.460  1.00  0.00    -0.266 OA
BRANCH  18  21
HETATM   21  C   UNL     1     -39.999 -45.015  10.070  1.00  0.00     0.076 C 
HETATM   22  C   UNL     1     -40.001 -44.011  11.219  1.00  0.00     0.032 C 
HETATM   23  C   UNL     1     -38.702 -44.933   9.274  1.00  0.00     0.032 C 
ENDBRANCH  18  21
ENDBRANCH   1  17
TORSDOF 3
ENDMDL
MODEL 4
REMARK VINA RESULT:      -6.1      2.618      6.929
REMARK  3 active torsions:
REMARK  status: ('A' for Active; 'I' for Inactive)
REMARK    1  A    between atoms: C_2  and  N_4 
REMARK       I    between atoms: N_4  and  C_5 
REMARK    2  A    between atoms: C_5  and  C_7 
REMARK    3  A    between atoms: C_10  and  N_15 
ROOT
HETATM    1  C   UNL     1     -41.886 -51.199  12.487  1.00  0.00     0.116 A 
HETATM    2  C   UNL     1     -42.835 -50.568  13.263  1.00  0.00     0.040 A 
HETATM    3  C   UNL     1     -43.270 -49.300  12.878  1.00  0.00     0.052 A 
HETATM    4  C   UNL     1     -42.765 -48.683  11.735  1.00  0.00     0.118 A 
HETATM    5  N   UNL     1     -41.830 -49.354  11.018  1.00  0.00    -0.285 N 
ATOM      6  HN  UNL     1     -41.442 -48.914  10.184  1.00  0.00     0.188 HD
HETATM    7  N   UNL     1     -41.383 -50.617  11.379  1.00  0.00    -0.294 N 
ATOM      8  HN  UNL     1     -40.684 -51.099  10.814  1.00  0.00     0.187 HD
ENDROOT
BRANCH   4   9
HETATM    9  N   UNL     1     -43.163 -47.421  11.351  1.00  0.00    -0.361 N 
HETATM   10  C   UNL     1     -43.896 -47.131  10.115  1.00  0.00     0.151 C 
HETATM   11  C   UNL     1     -43.078 -46.204   9.204  1.00  0.00     0.188 C 
HETATM   12  O   UNL     1     -42.609 -45.033   9.883  1.00  0.00    -0.378 OA
HETATM   13  C   UNL     1     -41.829 -45.333  11.064  1.00  0.00     0.070 C 
HETATM   14  C   UNL     1     -40.482 -45.962  10.683  1.00  0.00     0.047 C 
HETATM   15  C   UNL     1     -41.562 -43.976  11.733  1.00  0.00     0.047 C 
HETATM   16  C   UNL     1     -42.632 -46.234  12.039  1.00  0.00     0.161 C 
ENDBRANCH   4   9
BRANCH   1  17
HETATM   17  C   UNL     1     -41.352 -52.532  12.881  1.00  0.00     0.269 C 
HETATM   18  N   UNL     1     -41.863 -53.070  14.046  1.00  0.00    -0.352 N 
HETATM   19  H   UNL     1     -42.476 -52.483  14.604  1.00  0.00     0.163 HD
HETATM   20  O   UNL     1     -40.518 -53.100  12.182  1.00  0.00    -0.266 OA
BRANCH  18  21
HETATM   21  C   UNL     1     -41.461 -54.378  14.539  1.00  0.00     0.076 C 
HETATM   22  C   UNL     1     -40.314 -54.260  15.538  1.00  0.00     0.032 C 
HETATM   23  C   UNL     1     -42.655 -55.095  15.158  1.00  0.00     0.032 C 
ENDBRANCH  18  21
ENDBRANCH   1  17
TORSDOF 3
ENDMDL
MODEL 5
REMARK VINA RESULT:      -6.0      3.824      4.531
REMARK  3 active torsions:
REMARK  status: ('A' for Active; 'I' for Inactive)
REMARK    1  A    between atoms: C_2  and  N_4 
REMARK       I    between atoms: N_4  and  C_5 
REMARK    2  A    between atoms: C_5  and  C_7 
REMARK    3  A    between atoms: C_10  and  N_15 
ROOT
HETATM    1  C   UNL     1     -42.363 -49.315  11.889  1.00  0.00     0.116 A 
HETATM    2  C   UNL     1     -43.078 -48.988  13.022  1.00  0.00     0.040 A 
HETATM    3  C   UNL     1     -43.273 -49.972  13.991  1.00  0.00     0.052 A 
HETATM    4  C   UNL     1     -42.757 -51.255  13.826  1.00  0.00     0.118 A 
HETATM    5  N   UNL     1     -42.068 -51.515  12.688  1.00  0.00    -0.285 N 
ATOM      6  HN  UNL     1     -41.690 -52.452  12.545  1.00  0.00     0.188 HD
HETATM    7  N   UNL     1     -41.858 -50.552  11.711  1.00  0.00    -0.294 N 
ATOM      8  HN  UNL     1     -41.328 -50.778  10.869  1.00  0.00     0.187 HD
ENDROOT
BRANCH   4   9
HETATM    9  N   UNL     1     -42.958 -52.249  14.759  1.00  0.00    -0.361 N 
HETATM   10  C   UNL     1     -41.980 -53.295  15.071  1.00  0.00     0.151 C 
HETATM   11  C   UNL     1     -42.551 -54.684  14.749  1.00  0.00     0.188 C 
HETATM   12  O   UNL     1     -43.837 -54.905  15.339  1.00  0.00    -0.378 OA
HETATM   13  C   UNL     1     -44.813 -53.904  14.969  1.00  0.00     0.070 C 
HETATM   14  C   UNL     1     -45.189 -54.029  13.486  1.00  0.00     0.047 C 
HETATM   15  C   UNL     1     -46.058 -54.213  15.815  1.00  0.00     0.047 C 
HETATM   16  C   UNL     1     -44.300 -52.481  15.316  1.00  0.00     0.161 C 
ENDBRANCH   4   9
BRANCH   1  17
HETATM   17  C   UNL     1     -42.169 -48.315  10.803  1.00  0.00     0.269 C 
HETATM   18  N   UNL     1     -43.234 -48.142   9.941  1.00  0.00    -0.352 N 
HETATM   19  H   UNL     1     -44.023 -48.775  10.037  1.00  0.00     0.163 HD
HETATM   20  O   UNL     1     -41.118 -47.688  10.715  1.00  0.00    -0.266 OA
BRANCH  18  21
HETATM   21  C   UNL     1     -43.202 -47.178   8.852  1.00  0.00     0.076 C 
HETATM   22  C   UNL     1     -43.359 -47.869   7.501  1.00  0.00     0.032 C 
HETATM   23  C   UNL     1     -44.283 -46.122   9.055  1.00  0.00     0.032 C 
ENDBRANCH  18  21
ENDBRANCH   1  17
TORSDOF 3
ENDMDL
MODEL 6
REMARK VINA RESULT:      -6.0      2.334      3.151
REMARK  3 active torsions:
REMARK  status: ('A' for Active; 'I' for Inactive)
REMARK    1  A    between atoms: C_2  and  N_4 
REMARK       I    between atoms: N_4  and  C_5 
REMARK    2  A    between atoms: C_5  and  C_7 
REMARK    3  A    between atoms: C_10  and  N_15 
ROOT
HETATM    1  C   UNL     1     -41.279 -49.036  11.526  1.00  0.00     0.116 A 
HETATM    2  C   UNL     1     -40.108 -48.878  12.238  1.00  0.00     0.040 A 
HETATM    3  C   UNL     1     -39.753 -49.865  13.157  1.00  0.00     0.052 A 
HETATM    4  C   UNL     1     -40.555 -50.987  13.352  1.00  0.00     0.118 A 
HETATM    5  N   UNL     1     -41.695 -51.081  12.625  1.00  0.00    -0.285 N 
ATOM      6  HN  UNL     1     -42.299 -51.892  12.762  1.00  0.00     0.188 HD
HETATM    7  N   UNL     1     -42.069 -50.114  11.703  1.00  0.00    -0.294 N 
ATOM      8  HN  UNL     1     -42.930 -50.218  11.166  1.00  0.00     0.187 HD
ENDROOT
BRANCH   4   9
HETATM    9  N   UNL     1     -40.234 -51.962  14.272  1.00  0.00    -0.361 N 
HETATM   10  C   UNL     1     -38.975 -52.712  14.272  1.00  0.00     0.151 C 
HETATM   11  C   UNL     1     -39.239 -54.213  14.073  1.00  0.00     0.188 C 
HETATM   12  O   UNL     1     -40.215 -54.730  14.984  1.00  0.00    -0.378 OA
HETATM   13  C   UNL     1     -41.477 -54.024  14.927  1.00  0.00     0.070 C 
HETATM   14  C   UNL     1     -42.197 -54.299  13.601  1.00  0.00     0.047 C 
HETATM   15  C   UNL     1     -42.322 -54.605  16.071  1.00  0.00     0.047 C 
HETATM   16  C   UNL     1     -41.268 -52.505  15.167  1.00  0.00     0.161 C 
ENDBRANCH   4   9
BRANCH   1  17
HETATM   17  C   UNL     1     -41.728 -47.988  10.568  1.00  0.00     0.269 C 
HETATM   18  N   UNL     1     -42.843 -48.295   9.813  1.00  0.00    -0.352 N 
HETATM   19  H   UNL     1     -43.209 -49.240   9.880  1.00  0.00     0.163 HD
HETATM   20  O   UNL     1     -41.131 -46.918  10.490  1.00  0.00    -0.266 OA
BRANCH  18  21
HETATM   21  C   UNL     1     -43.417 -47.357   8.860  1.00  0.00     0.076 C 
HETATM   22  C   UNL     1     -43.395 -47.929   7.446  1.00  0.00     0.032 C 
HETATM   23  C   UNL     1     -44.835 -46.987   9.278  1.00  0.00     0.032 C 
ENDBRANCH  18  21
ENDBRANCH   1  17
TORSDOF 3
ENDMDL
MODEL 7
REMARK VINA RESULT:      -5.9      3.712      4.948
REMARK  3 active torsions:
REMARK  status: ('A' for Active; 'I' for Inactive)
REMARK    1  A    between atoms: C_2  and  N_4 
REMARK       I    between atoms: N_4  and  C_5 
REMARK    2  A    between atoms: C_5  and  C_7 
REMARK    3  A    between atoms: C_10  and  N_15 
ROOT
HETATM    1  C   UNL     1     -41.788 -49.772  11.792  1.00  0.00     0.116 A 
HETATM    2  C   UNL     1     -42.804 -49.895  12.716  1.00  0.00     0.040 A 
HETATM    3  C   UNL     1     -43.171 -51.174  13.132  1.00  0.00     0.052 A 
HETATM    4  C   UNL     1     -42.527 -52.304  12.632  1.00  0.00     0.118 A 
HETATM    5  N   UNL     1     -41.540 -52.117  11.722  1.00  0.00    -0.285 N 
ATOM      6  HN  UNL     1     -41.064 -52.933  11.338  1.00  0.00     0.188 HD
HETATM    7  N   UNL     1     -41.155 -50.854  11.295  1.00  0.00    -0.294 N 
ATOM      8  HN  UNL     1     -40.403 -50.746  10.614  1.00  0.00     0.187 HD
ENDROOT
BRANCH   4   9
HETATM    9  N   UNL     1     -42.890 -53.579  13.011  1.00  0.00    -0.361 N 
HETATM   10  C   UNL     1     -44.187 -54.190  12.706  1.00  0.00     0.151 C 
HETATM   11  C   UNL     1     -44.945 -54.527  13.999  1.00  0.00     0.188 C 
HETATM   12  O   UNL     1     -44.156 -55.285  14.922  1.00  0.00    -0.378 OA
HETATM   13  C   UNL     1     -42.908 -54.640  15.269  1.00  0.00     0.070 C 
HETATM   14  C   UNL     1     -43.159 -53.387  16.119  1.00  0.00     0.047 C 
HETATM   15  C   UNL     1     -42.142 -55.662  16.123  1.00  0.00     0.047 C 
HETATM   16  C   UNL     1     -42.083 -54.317  13.995  1.00  0.00     0.161 C 
ENDBRANCH   4   9
BRANCH   1  17
HETATM   17  C   UNL     1     -41.391 -48.431  11.278  1.00  0.00     0.269 C 
HETATM   18  N   UNL     1     -42.412 -47.648  10.775  1.00  0.00    -0.352 N 
HETATM   19  H   UNL     1     -43.331 -48.074  10.689  1.00  0.00     0.163 HD
HETATM   20  O   UNL     1     -40.220 -48.067  11.327  1.00  0.00    -0.266 OA
BRANCH  18  21
HETATM   21  C   UNL     1     -42.181 -46.304  10.269  1.00  0.00     0.076 C 
HETATM   22  C   UNL     1     -43.140 -45.975   9.129  1.00  0.00     0.032 C 
HETATM   23  C   UNL     1     -42.306 -45.290  11.400  1.00  0.00     0.032 C 
ENDBRANCH  18  21
ENDBRANCH   1  17
TORSDOF 3
ENDMDL
MODEL 8
REMARK VINA RESULT:      -5.8      3.978      5.286
REMARK  3 active torsions:
REMARK  status: ('A' for Active; 'I' for Inactive)
REMARK    1  A    between atoms: C_2  and  N_4 
REMARK       I    between atoms: N_4  and  C_5 
REMARK    2  A    between atoms: C_5  and  C_7 
REMARK    3  A    between atoms: C_10  and  N_15 
ROOT
HETATM    1  C   UNL     1     -42.232 -47.948  11.627  1.00  0.00     0.116 A 
HETATM    2  C   UNL     1     -42.845 -47.901  12.861  1.00  0.00     0.040 A 
HETATM    3  C   UNL     1     -43.163 -49.104  13.490  1.00  0.00     0.052 A 
HETATM    4  C   UNL     1     -42.869 -50.327  12.892  1.00  0.00     0.118 A 
HETATM    5  N   UNL     1     -42.271 -50.306  11.675  1.00  0.00    -0.285 N 
ATOM      6  HN  UNL     1     -42.056 -51.192  11.217  1.00  0.00     0.188 HD
HETATM    7  N   UNL     1     -41.941 -49.122  11.031  1.00  0.00    -0.294 N 
ATOM      8  HN  UNL     1     -41.485 -49.140  10.119  1.00  0.00     0.187 HD
ENDROOT
BRANCH   4   9
HETATM    9  N   UNL     1     -43.197 -51.528  13.484  1.00  0.00    -0.361 N 
HETATM   10  C   UNL     1     -42.920 -52.840  12.893  1.00  0.00     0.151 C 
HETATM   11  C   UNL     1     -44.227 -53.605  12.636  1.00  0.00     0.188 C 
HETATM   12  O   UNL     1     -45.072 -53.662  13.790  1.00  0.00    -0.378 OA
HETATM   13  C   UNL     1     -45.395 -52.357  14.325  1.00  0.00     0.070 C 
HETATM   14  C   UNL     1     -46.319 -51.589  13.371  1.00  0.00     0.047 C 
HETATM   15  C   UNL     1     -46.157 -52.627  15.631  1.00  0.00     0.047 C 
HETATM   16  C   UNL     1     -44.102 -51.559  14.643  1.00  0.00     0.161 C 
ENDBRANCH   4   9
BRANCH   1  17
HETATM   17  C   UNL     1     -41.916 -46.692  10.892  1.00  0.00     0.269 C 
HETATM   18  N   UNL     1     -40.978 -45.865  11.479  1.00  0.00    -0.352 N 
HETATM   19  H   UNL     1     -40.654 -46.111  12.411  1.00  0.00     0.163 HD
HETATM   20  O   UNL     1     -42.462 -46.443   9.821  1.00  0.00    -0.266 OA
BRANCH  18  21
HETATM   21  C   UNL     1     -40.545 -44.622  10.862  1.00  0.00     0.076 C 
HETATM   22  C   UNL     1     -40.204 -43.574  11.917  1.00  0.00     0.032 C 
HETATM   23  C   UNL     1     -39.356 -44.879   9.943  1.00  0.00     0.032 C 
ENDBRANCH  18  21
ENDBRANCH   1  17
TORSDOF 3
ENDMDL
MODEL 9
REMARK VINA RESULT:      -5.8      3.133      4.532
REMARK  3 active torsions:
REMARK  status: ('A' for Active; 'I' for Inactive)
REMARK    1  A    between atoms: C_2  and  N_4 
REMARK       I    between atoms: N_4  and  C_5 
REMARK    2  A    between atoms: C_5  and  C_7 
REMARK    3  A    between atoms: C_10  and  N_15 
ROOT
HETATM    1  C   UNL     1     -41.177 -48.256  11.453  1.00  0.00     0.116 A 
HETATM    2  C   UNL     1     -40.344 -48.370  12.546  1.00  0.00     0.040 A 
HETATM    3  C   UNL     1     -40.345 -49.568  13.258  1.00  0.00     0.052 A 
HETATM    4  C   UNL     1     -41.163 -50.630  12.877  1.00  0.00     0.118 A 
HETATM    5  N   UNL     1     -41.963 -50.454  11.797  1.00  0.00    -0.285 N 
ATOM      6  HN  UNL     1     -42.575 -51.217  11.509  1.00  0.00     0.188 HD
HETATM    7  N   UNL     1     -41.977 -49.272  11.070  1.00  0.00    -0.294 N 
ATOM      8  HN  UNL     1     -42.585 -49.173  10.257  1.00  0.00     0.187 HD
ENDROOT
BRANCH   4   9
HETATM    9  N   UNL     1     -41.197 -51.814  13.581  1.00  0.00    -0.361 N 
HETATM   10  C   UNL     1     -40.236 -52.907  13.402  1.00  0.00     0.151 C 
HETATM   11  C   UNL     1     -40.948 -54.181  12.922  1.00  0.00     0.188 C 
HETATM   12  O   UNL     1     -42.069 -54.531  13.740  1.00  0.00    -0.378 OA
HETATM   13  C   UNL     1     -43.045 -53.469  13.855  1.00  0.00     0.070 C 
HETATM   14  C   UNL     1     -43.766 -53.242  12.519  1.00  0.00     0.047 C 
HETATM   15  C   UNL     1     -44.071 -53.965  14.885  1.00  0.00     0.047 C 
HETATM   16  C   UNL     1     -42.381 -52.168  14.380  1.00  0.00     0.161 C 
ENDBRANCH   4   9
BRANCH   1  17
HETATM   17  C   UNL     1     -41.250 -46.980  10.688  1.00  0.00     0.269 C 
HETATM   18  N   UNL     1     -40.184 -46.116  10.847  1.00  0.00    -0.352 N 
HETATM   19  H   UNL     1     -39.488 -46.354  11.547  1.00  0.00     0.163 HD
HETATM   20  O   UNL     1     -42.207 -46.748   9.955  1.00  0.00    -0.266 OA
BRANCH  18  21
HETATM   21  C   UNL     1     -40.101 -44.848  10.138  1.00  0.00     0.076 C 
HETATM   22  C   UNL     1     -40.246 -43.672  11.099  1.00  0.00     0.032 C 
HETATM   23  C   UNL     1     -38.791 -44.765   9.365  1.00  0.00     0.032 C 
ENDBRANCH  18  21
ENDBRANCH   1  17
TORSDOF 3
ENDMDL
