MODEL 1
REMARK VINA RESULT:      -5.7      0.000      0.000
REMARK  5 active torsions:
REMARK  status: ('A' for Active; 'I' for Inactive)
REMARK    1  A    between atoms: C_2  and  S_3 
REMARK    2  A    between atoms: S_3  and  C_4 
REMARK    3  A    between atoms: C_7  and  N_8 
REMARK       I    between atoms: N_8  and  C_9 
REMARK       I    between atoms: C_9  and  N_11 
REMARK    4  A    between atoms: N_11  and  C_12 
REMARK    5  A    between atoms: C_12  and  C_13 
ROOT
HETATM    1  N   UNL     1     -40.991 -49.388  10.391  1.00  0.00    -0.308 N 
HETATM    2  C   UNL     1     -41.915 -48.370  10.473  1.00  0.00     0.320 C 
HETATM    3  O   UNL     1     -42.363 -47.897  11.513  1.00  0.00    -0.247 OA
HETATM    4  N   UNL     1     -42.345 -47.923   9.246  1.00  0.00    -0.340 N 
HETATM    5  H   UNL     1     -40.501 -49.494   9.516  1.00  0.00     0.170 HD
HETATM    6  H   UNL     1     -41.761 -48.057   8.434  1.00  0.00     0.164 HD
ENDROOT
BRANCH   1   7
HETATM    7  C   UNL     1     -40.524 -50.130  11.504  1.00  0.00     0.051 A 
HETATM    8  C   UNL     1     -41.183 -51.256  11.995  1.00  0.00     0.034 A 
HETATM    9  C   UNL     1     -40.676 -51.943  13.095  1.00  0.00     0.039 A 
HETATM   10  C   UNL     1     -39.512 -51.491  13.692  1.00  0.00     0.069 A 
HETATM   11  N   UNL     1     -38.830 -50.415  13.238  1.00  0.00    -0.358 N 
HETATM   12  C   UNL     1     -39.346 -49.771  12.155  1.00  0.00     0.118 A 
ATOM     13  HN  UNL     1     -37.969 -50.100  13.685  1.00  0.00     0.166 HD
BRANCH  10  14
HETATM   14  S   UNL     1     -38.863 -52.427  15.065  1.00  0.00    -0.113 SA
BRANCH  14  15
HETATM   15  C   UNL     1     -39.115 -54.123  14.464  1.00  0.00     0.076 C 
HETATM   16  C   UNL     1     -40.007 -54.871  15.442  1.00  0.00     0.016 C 
ENDBRANCH  14  15
ENDBRANCH  10  14
ENDBRANCH   1   7
BRANCH   4  17
HETATM   17  C   UNL     1     -43.248 -46.778   9.208  1.00  0.00     0.156 C 
BRANCH  17  18
HETATM   18  C   UNL     1     -44.598 -47.079   8.567  1.00  0.00     0.139 C 
HETATM   19  C   UNL     1     -45.734 -47.328   9.545  1.00  0.00     0.035 C 
HETATM   20  C   UNL     1     -46.596 -48.370   8.859  1.00  0.00     0.029 C 
HETATM   21  C   UNL     1     -45.886 -48.667   7.554  1.00  0.00     0.168 C 
HETATM   22  O   UNL     1     -44.528 -48.257   7.748  1.00  0.00    -0.384 OA
ENDBRANCH  17  18
ENDBRANCH   4  17
TORSDOF 5
ENDMDL
MODEL 2
REMARK VINA RESULT:      -5.5      1.746      2.476
REMARK  5 active torsions:
REMARK  status: ('A' for Active; 'I' for Inactive)
REMARK    1  A    between atoms: C_2  and  S_3 
REMARK    2  A    between atoms: S_3  and  C_4 
REMARK    3  A    between atoms: C_7  and  N_8 
REMARK       I    between atoms: N_8  and  C_9 
REMARK       I    between atoms: C_9  and  N_11 
REMARK    4  A    between atoms: N_11  and  C_12 
REMARK    5  A    between atoms: C_12  and  C_13 
ROOT
HETATM    1  N   UNL     1     -40.476 -50.828  11.365  1.00  0.00    -0.308 N 
HETATM    2  C   UNL     1     -41.181 -49.649  11.465  1.00  0.00     0.320 C 
HETATM    3  O   UNL     1     -41.722 -49.227  12.482  1.00  0.00    -0.247 OA
HETATM    4  N   UNL     1     -41.269 -48.962  10.277  1.00  0.00    -0.340 N 
HETATM    5  H   UNL     1     -39.855 -50.926  10.576  1.00  0.00     0.170 HD
HETATM    6  H   UNL     1     -40.576 -49.117   9.559  1.00  0.00     0.164 HD
ENDROOT
BRANCH   1   7
HETATM    7  C   UNL     1     -40.388 -51.793  12.399  1.00  0.00     0.051 A 
HETATM    8  C   UNL     1     -39.422 -51.744  13.401  1.00  0.00     0.034 A 
HETATM    9  C   UNL     1     -39.385 -52.724  14.390  1.00  0.00     0.039 A 
HETATM   10  C   UNL     1     -40.320 -53.745  14.361  1.00  0.00     0.069 A 
HETATM   11  N   UNL     1     -41.287 -53.820  13.418  1.00  0.00    -0.358 N 
HETATM   12  C   UNL     1     -41.302 -52.842  12.471  1.00  0.00     0.118 A 
ATOM     13  HN  UNL     1     -41.973 -54.575  13.416  1.00  0.00     0.166 HD
BRANCH  10  14
HETATM   14  S   UNL     1     -40.276 -54.951  15.673  1.00  0.00    -0.113 SA
BRANCH  14  15
HETATM   15  C   UNL     1     -38.499 -55.332  15.719  1.00  0.00     0.076 C 
HETATM   16  C   UNL     1     -38.192 -56.125  16.979  1.00  0.00     0.016 C 
ENDBRANCH  14  15
ENDBRANCH  10  14
ENDBRANCH   1   7
BRANCH   4  17
HETATM   17  C   UNL     1     -41.906 -47.651  10.285  1.00  0.00     0.156 C 
BRANCH  17  18
HETATM   18  C   UNL     1     -43.191 -47.584   9.469  1.00  0.00     0.139 C 
HETATM   19  C   UNL     1     -43.453 -46.251   8.786  1.00  0.00     0.035 C 
HETATM   20  C   UNL     1     -44.961 -46.100   8.827  1.00  0.00     0.029 C 
HETATM   21  C   UNL     1     -45.458 -47.335   9.550  1.00  0.00     0.168 C 
HETATM   22  O   UNL     1     -44.340 -47.826  10.297  1.00  0.00    -0.384 OA
ENDBRANCH  17  18
ENDBRANCH   4  17
TORSDOF 5
ENDMDL
MODEL 3
REMARK VINA RESULT:      -5.3      4.203      7.785
REMARK  5 active torsions:
REMARK  status: ('A' for Active; 'I' for Inactive)
REMARK    1  A    between atoms: C_2  and  S_3 
REMARK    2  A    between atoms: S_3  and  C_4 
REMARK    3  A    between atoms: C_7  and  N_8 
REMARK       I    between atoms: N_8  and  C_9 
REMARK       I    between atoms: C_9  and  N_11 
REMARK    4  A    between atoms: N_11  and  C_12 
REMARK    5  A    between atoms: C_12  and  C_13 
ROOT
HETATM    1  N   UNL     1     -41.108 -47.752  10.415  1.00  0.00    -0.308 N 
HETATM    2  C   UNL     1     -40.626 -48.648  11.344  1.00  0.00     0.320 C 
HETATM    3  O   UNL     1     -40.360 -48.386  12.513  1.00  0.00    -0.247 OA
HETATM    4  N   UNL     1     -40.424 -49.908  10.834  1.00  0.00    -0.340 N 
HETATM    5  H   UNL     1     -41.546 -48.136   9.591  1.00  0.00     0.170 HD
HETATM    6  H   UNL     1     -40.936 -50.204  10.016  1.00  0.00     0.164 HD
ENDROOT
BRANCH   1   7
HETATM    7  C   UNL     1     -41.238 -46.360  10.644  1.00  0.00     0.051 A 
HETATM    8  C   UNL     1     -40.154 -45.485  10.622  1.00  0.00     0.034 A 
HETATM    9  C   UNL     1     -40.344 -44.125  10.857  1.00  0.00     0.039 A 
HETATM   10  C   UNL     1     -41.623 -43.659  11.114  1.00  0.00     0.069 A 
HETATM   11  N   UNL     1     -42.705 -44.470  11.126  1.00  0.00    -0.358 N 
HETATM   12  C   UNL     1     -42.487 -45.792  10.883  1.00  0.00     0.118 A 
ATOM     13  HN  UNL     1     -43.642 -44.109  11.308  1.00  0.00     0.166 HD
BRANCH  10  14
HETATM   14  S   UNL     1     -41.836 -41.905  11.357  1.00  0.00    -0.113 SA
BRANCH  14  15
HETATM   15  C   UNL     1     -43.394 -41.884  12.294  1.00  0.00     0.076 C 
HETATM   16  C   UNL     1     -44.394 -40.991  11.577  1.00  0.00     0.016 C 
ENDBRANCH  14  15
ENDBRANCH  10  14
ENDBRANCH   1   7
BRANCH   4  17
HETATM   17  C   UNL     1     -40.012 -50.964  11.752  1.00  0.00     0.156 C 
BRANCH  17  18
HETATM   18  C   UNL     1     -41.022 -52.099  11.880  1.00  0.00     0.139 C 
HETATM   19  C   UNL     1     -42.254 -51.774  12.710  1.00  0.00     0.035 C 
HETATM   20  C   UNL     1     -42.595 -53.081  13.399  1.00  0.00     0.029 C 
HETATM   21  C   UNL     1     -41.527 -54.054  12.942  1.00  0.00     0.168 C 
HETATM   22  O   UNL     1     -40.428 -53.248  12.504  1.00  0.00    -0.384 OA
ENDBRANCH  17  18
ENDBRANCH   4  17
TORSDOF 5
ENDMDL
MODEL 4
REMARK VINA RESULT:      -5.3      3.666      7.547
REMARK  5 active torsions:
REMARK  status: ('A' for Active; 'I' for Inactive)
REMARK    1  A    between atoms: C_2  and  S_3 
REMARK    2  A    between atoms: S_3  and  C_4 
REMARK    3  A    between atoms: C_7  and  N_8 
REMARK       I    between atoms: N_8  and  C_9 
REMARK       I    between atoms: C_9  and  N_11 
REMARK    4  A    between atoms: N_11  and  C_12 
REMARK    5  A    between atoms: C_12  and  C_13 
ROOT
HETATM    1  N   UNL     1     -40.774 -50.546  10.986  1.00  0.00    -0.308 N 
HETATM    2  C   UNL     1     -41.420 -51.330  11.916  1.00  0.00     0.320 C 
HETATM    3  O   UNL     1     -42.122 -50.913  12.832  1.00  0.00    -0.247 OA
HETATM    4  N   UNL     1     -41.184 -52.675  11.756  1.00  0.00    -0.340 N 
HETATM    5  H   UNL     1     -40.469 -50.998  10.137  1.00  0.00     0.170 HD
HETATM    6  H   UNL     1     -40.907 -53.028  10.852  1.00  0.00     0.164 HD
ENDROOT
BRANCH   1   7
HETATM    7  C   UNL     1     -40.719 -49.131  11.037  1.00  0.00     0.051 A 
HETATM    8  C   UNL     1     -39.760 -48.436  11.771  1.00  0.00     0.034 A 
HETATM    9  C   UNL     1     -39.759 -47.043  11.785  1.00  0.00     0.039 A 
HETATM   10  C   UNL     1     -40.723 -46.362  11.061  1.00  0.00     0.069 A 
HETATM   11  N   UNL     1     -41.661 -46.996  10.320  1.00  0.00    -0.358 N 
HETATM   12  C   UNL     1     -41.629 -48.358  10.320  1.00  0.00     0.118 A 
ATOM     13  HN  UNL     1     -42.359 -46.479   9.786  1.00  0.00     0.166 HD
BRANCH  10  14
HETATM   14  S   UNL     1     -40.658 -44.581  11.059  1.00  0.00    -0.113 SA
BRANCH  14  15
HETATM   15  C   UNL     1     -39.497 -44.285  12.426  1.00  0.00     0.076 C 
HETATM   16  C   UNL     1     -39.699 -42.875  12.956  1.00  0.00     0.016 C 
ENDBRANCH  14  15
ENDBRANCH  10  14
ENDBRANCH   1   7
BRANCH   4  17
HETATM   17  C   UNL     1     -41.897 -53.606  12.621  1.00  0.00     0.156 C 
BRANCH  17  18
HETATM   18  C   UNL     1     -41.018 -54.258  13.683  1.00  0.00     0.139 C 
HETATM   19  C   UNL     1     -41.217 -53.732  15.095  1.00  0.00     0.035 C 
HETATM   20  C   UNL     1     -39.835 -53.798  15.716  1.00  0.00     0.029 C 
HETATM   21  C   UNL     1     -38.937 -54.328  14.616  1.00  0.00     0.168 C 
HETATM   22  O   UNL     1     -39.626 -54.062  13.390  1.00  0.00    -0.384 OA
ENDBRANCH  17  18
ENDBRANCH   4  17
TORSDOF 5
ENDMDL
MODEL 5
REMARK VINA RESULT:      -5.3      3.476      4.415
REMARK  5 active torsions:
REMARK  status: ('A' for Active; 'I' for Inactive)
REMARK    1  A    between atoms: C_2  and  S_3 
REMARK    2  A    between atoms: S_3  and  C_4 
REMARK    3  A    between atoms: C_7  and  N_8 
REMARK       I    between atoms: N_8  and  C_9 
REMARK       I    between atoms: C_9  and  N_11 
REMARK    4  A    between atoms: N_11  and  C_12 
REMARK    5  A    between atoms: C_12  and  C_13 
ROOT
HETATM    1  N   UNL     1     -41.013 -47.721  10.454  1.00  0.00    -0.308 N 
HETATM    2  C   UNL     1     -40.462 -46.583  11.002  1.00  0.00     0.320 C 
HETATM    3  O   UNL     1     -39.952 -46.505  12.115  1.00  0.00    -0.247 OA
HETATM    4  N   UNL     1     -40.562 -45.481  10.186  1.00  0.00    -0.340 N 
HETATM    5  H   UNL     1     -41.141 -47.732   9.453  1.00  0.00     0.170 HD
HETATM    6  H   UNL     1     -40.661 -45.605   9.190  1.00  0.00     0.164 HD
ENDROOT
BRANCH   1   7
HETATM    7  C   UNL     1     -41.189 -48.938  11.157  1.00  0.00     0.051 A 
HETATM    8  C   UNL     1     -42.282 -49.183  11.985  1.00  0.00     0.034 A 
HETATM    9  C   UNL     1     -42.399 -50.400  12.653  1.00  0.00     0.039 A 
HETATM   10  C   UNL     1     -41.414 -51.359  12.482  1.00  0.00     0.069 A 
HETATM   11  N   UNL     1     -40.346 -51.170  11.673  1.00  0.00    -0.358 N 
HETATM   12  C   UNL     1     -40.266 -49.974  11.028  1.00  0.00     0.118 A 
ATOM     13  HN  UNL     1     -39.634 -51.890  11.552  1.00  0.00     0.166 HD
BRANCH  10  14
HETATM   14  S   UNL     1     -41.623 -52.924  13.310  1.00  0.00    -0.113 SA
BRANCH  14  15
HETATM   15  C   UNL     1     -43.411 -52.895  13.634  1.00  0.00     0.076 C 
HETATM   16  C   UNL     1     -44.131 -53.649  12.527  1.00  0.00     0.016 C 
ENDBRANCH  14  15
ENDBRANCH  10  14
ENDBRANCH   1   7
BRANCH   4  17
HETATM   17  C   UNL     1     -39.923 -44.244  10.620  1.00  0.00     0.156 C 
BRANCH  17  18
HETATM   18  C   UNL     1     -40.901 -43.189  11.125  1.00  0.00     0.139 C 
HETATM   19  C   UNL     1     -41.172 -43.225  12.621  1.00  0.00     0.035 C 
HETATM   20  C   UNL     1     -42.627 -42.818  12.746  1.00  0.00     0.029 C 
HETATM   21  C   UNL     1     -43.098 -42.604  11.322  1.00  0.00     0.168 C 
HETATM   22  O   UNL     1     -42.184 -43.334  10.497  1.00  0.00    -0.384 OA
ENDBRANCH  17  18
ENDBRANCH   4  17
TORSDOF 5
ENDMDL
MODEL 6
REMARK VINA RESULT:      -5.2      4.470      6.715
REMARK  5 active torsions:
REMARK  status: ('A' for Active; 'I' for Inactive)
REMARK    1  A    between atoms: C_2  and  S_3 
REMARK    2  A    between atoms: S_3  and  C_4 
REMARK    3  A    between atoms: C_7  and  N_8 
REMARK       I    between atoms: N_8  and  C_9 
REMARK       I    between atoms: C_9  and  N_11 
REMARK    4  A    between atoms: N_11  and  C_12 
REMARK    5  A    between atoms: C_12  and  C_13 
ROOT
HETATM    1  N   UNL     1     -41.996 -50.042  11.425  1.00  0.00    -0.308 N 
HETATM    2  C   UNL     1     -42.473 -50.490  12.638  1.00  0.00     0.320 C 
HETATM    3  O   UNL     1     -42.564 -49.816  13.658  1.00  0.00    -0.247 OA
HETATM    4  N   UNL     1     -42.824 -51.819  12.629  1.00  0.00    -0.340 N 
HETATM    5  H   UNL     1     -42.229 -50.589  10.610  1.00  0.00     0.170 HD
HETATM    6  H   UNL     1     -43.065 -52.266  11.757  1.00  0.00     0.164 HD
ENDROOT
BRANCH   1   7
HETATM    7  C   UNL     1     -41.414 -48.766  11.220  1.00  0.00     0.051 A 
HETATM    8  C   UNL     1     -40.224 -48.371  11.826  1.00  0.00     0.034 A 
HETATM    9  C   UNL     1     -39.702 -47.101  11.588  1.00  0.00     0.039 A 
HETATM   10  C   UNL     1     -40.383 -46.242  10.743  1.00  0.00     0.069 A 
HETATM   11  N   UNL     1     -41.531 -46.592  10.118  1.00  0.00    -0.358 N 
HETATM   12  C   UNL     1     -42.010 -47.842  10.365  1.00  0.00     0.118 A 
ATOM     13  HN  UNL     1     -42.016 -45.949   9.492  1.00  0.00     0.166 HD
BRANCH  10  14
HETATM   14  S   UNL     1     -39.658 -44.645  10.419  1.00  0.00    -0.113 SA
BRANCH  14  15
HETATM   15  C   UNL     1     -40.551 -43.620  11.625  1.00  0.00     0.076 C 
HETATM   16  C   UNL     1     -39.645 -43.350  12.816  1.00  0.00     0.016 C 
ENDBRANCH  14  15
ENDBRANCH  10  14
ENDBRANCH   1   7
BRANCH   4  17
HETATM   17  C   UNL     1     -43.436 -52.376  13.830  1.00  0.00     0.156 C 
BRANCH  17  18
HETATM   18  C   UNL     1     -44.957 -52.444  13.771  1.00  0.00     0.139 C 
HETATM   19  C   UNL     1     -45.679 -51.235  14.344  1.00  0.00     0.035 C 
HETATM   20  C   UNL     1     -46.936 -51.810  14.967  1.00  0.00     0.029 C 
HETATM   21  C   UNL     1     -46.839 -53.304  14.736  1.00  0.00     0.168 C 
HETATM   22  O   UNL     1     -45.451 -53.573  14.510  1.00  0.00    -0.384 OA
ENDBRANCH  17  18
ENDBRANCH   4  17
TORSDOF 5
ENDMDL
MODEL 7
REMARK VINA RESULT:      -5.2      4.026      7.176
REMARK  5 active torsions:
REMARK  status: ('A' for Active; 'I' for Inactive)
REMARK    1  A    between atoms: C_2  and  S_3 
REMARK    2  A    between atoms: S_3  and  C_4 
REMARK    3  A    between atoms: C_7  and  N_8 
REMARK       I    between atoms: N_8  and  C_9 
REMARK       I    between atoms: C_9  and  N_11 
REMARK    4  A    between atoms: N_11  and  C_12 
REMARK    5  A    between atoms: C_12  and  C_13 
ROOT
HETATM    1  N   UNL     1     -42.482 -49.632  11.577  1.00  0.00    -0.308 N 
HETATM    2  C   UNL     1     -41.621 -50.555  12.130  1.00  0.00     0.320 C 
HETATM    3  O   UNL     1     -40.602 -50.290  12.759  1.00  0.00    -0.247 OA
HETATM    4  N   UNL     1     -41.987 -51.857  11.885  1.00  0.00    -0.340 N 
HETATM    5  H   UNL     1     -43.407 -49.953  11.337  1.00  0.00     0.170 HD
HETATM    6  H   UNL     1     -42.951 -52.074  11.679  1.00  0.00     0.164 HD
ENDROOT
BRANCH   1   7
HETATM    7  C   UNL     1     -42.237 -48.236  11.543  1.00  0.00     0.051 A 
HETATM    8  C   UNL     1     -42.697 -47.362  12.524  1.00  0.00     0.034 A 
HETATM    9  C   UNL     1     -42.426 -45.999  12.435  1.00  0.00     0.039 A 
HETATM   10  C   UNL     1     -41.695 -45.528  11.357  1.00  0.00     0.069 A 
HETATM   11  N   UNL     1     -41.213 -46.343  10.391  1.00  0.00    -0.358 N 
HETATM   12  C   UNL     1     -41.487 -47.672  10.513  1.00  0.00     0.118 A 
ATOM     13  HN  UNL     1     -40.669 -45.981   9.608  1.00  0.00     0.166 HD
BRANCH  10  14
HETATM   14  S   UNL     1     -41.322 -43.785  11.302  1.00  0.00    -0.113 SA
BRANCH  14  15
HETATM   15  C   UNL     1     -40.470 -43.574  12.894  1.00  0.00     0.076 C 
HETATM   16  C   UNL     1     -39.107 -44.245  12.823  1.00  0.00     0.016 C 
ENDBRANCH  14  15
ENDBRANCH  10  14
ENDBRANCH   1   7
BRANCH   4  17
HETATM   17  C   UNL     1     -41.206 -52.920  12.507  1.00  0.00     0.156 C 
BRANCH  17  18
HETATM   18  C   UNL     1     -42.051 -54.057  13.070  1.00  0.00     0.139 C 
HETATM   19  C   UNL     1     -43.554 -53.862  12.952  1.00  0.00     0.035 C 
HETATM   20  C   UNL     1     -44.114 -54.512  14.203  1.00  0.00     0.029 C 
HETATM   21  C   UNL     1     -42.901 -55.008  14.962  1.00  0.00     0.168 C 
HETATM   22  O   UNL     1     -41.795 -54.244  14.471  1.00  0.00    -0.384 OA
ENDBRANCH  17  18
ENDBRANCH   4  17
TORSDOF 5
ENDMDL
MODEL 8
REMARK VINA RESULT:      -5.0      4.046      7.374
REMARK  5 active torsions:
REMARK  status: ('A' for Active; 'I' for Inactive)
REMARK    1  A    between atoms: C_2  and  S_3 
REMARK    2  A    between atoms: S_3  and  C_4 
REMARK    3  A    between atoms: C_7  and  N_8 
REMARK       I    between atoms: N_8  and  C_9 
REMARK       I    between atoms: C_9  and  N_11 
REMARK    4  A    between atoms: N_11  and  C_12 
REMARK    5  A    between atoms: C_12  and  C_13 
ROOT
HETATM    1  N   UNL     1     -43.511 -49.158  11.844  1.00  0.00    -0.308 N 
HETATM    2  C   UNL     1     -43.396 -49.930  12.980  1.00  0.00     0.320 C 
HETATM    3  O   UNL     1     -42.640 -49.705  13.919  1.00  0.00    -0.247 OA
HETATM    4  N   UNL     1     -44.204 -51.042  12.968  1.00  0.00    -0.340 N 
HETATM    5  H   UNL     1     -44.343 -49.280  11.288  1.00  0.00     0.170 HD
HETATM    6  H   UNL     1     -45.033 -51.050  12.392  1.00  0.00     0.164 HD
ENDROOT
BRANCH   1   7
HETATM    7  C   UNL     1     -42.668 -48.060  11.540  1.00  0.00     0.051 A 
HETATM    8  C   UNL     1     -42.949 -46.756  11.940  1.00  0.00     0.034 A 
HETATM    9  C   UNL     1     -42.082 -45.717  11.608  1.00  0.00     0.039 A 
HETATM   10  C   UNL     1     -40.941 -46.000  10.876  1.00  0.00     0.069 A 
HETATM   11  N   UNL     1     -40.621 -47.254  10.483  1.00  0.00    -0.358 N 
HETATM   12  C   UNL     1     -41.483 -48.249  10.831  1.00  0.00     0.118 A 
ATOM     13  HN  UNL     1     -39.772 -47.446   9.951  1.00  0.00     0.166 HD
BRANCH  10  14
HETATM   14  S   UNL     1     -39.829 -44.654  10.515  1.00  0.00    -0.113 SA
BRANCH  14  15
HETATM   15  C   UNL     1     -40.540 -43.343  11.554  1.00  0.00     0.076 C 
HETATM   16  C   UNL     1     -39.682 -43.173  12.798  1.00  0.00     0.016 C 
ENDBRANCH  14  15
ENDBRANCH  10  14
ENDBRANCH   1   7
BRANCH   4  17
HETATM   17  C   UNL     1     -44.242 -51.879  14.161  1.00  0.00     0.156 C 
BRANCH  17  18
HETATM   18  C   UNL     1     -43.449 -53.174  14.032  1.00  0.00     0.139 C 
HETATM   19  C   UNL     1     -44.184 -54.427  14.481  1.00  0.00     0.035 C 
HETATM   20  C   UNL     1     -43.099 -55.301  15.079  1.00  0.00     0.029 C 
HETATM   21  C   UNL     1     -41.828 -54.486  14.959  1.00  0.00     0.168 C 
HETATM   22  O   UNL     1     -42.250 -53.125  14.823  1.00  0.00    -0.384 OA
ENDBRANCH  17  18
ENDBRANCH   4  17
TORSDOF 5
ENDMDL
MODEL 9
REMARK VINA RESULT:      -4.9      4.715      8.310
REMARK  5 active torsions:
REMARK  status: ('A' for Active; 'I' for Inactive)
REMARK    1  A    between atoms: C_2  and  S_3 
REMARK    2  A    between atoms: S_3  and  C_4 
REMARK    3  A    between atoms: C_7  and  N_8 
REMARK       I    between atoms: N_8  and  C_9 
REMARK       I    between atoms: C_9  and  N_11 
REMARK    4  A    between atoms: N_11  and  C_12 
REMARK    5  A    between atoms: C_12  and  C_13 
ROOT
HETATM    1  N   UNL     1     -40.817 -46.669  10.290  1.00  0.00    -0.308 N 
HETATM    2  C   UNL     1     -40.964 -47.716  11.175  1.00  0.00     0.320 C 
HETATM    3  O   UNL     1     -41.474 -47.641  12.287  1.00  0.00    -0.247 OA
HETATM    4  N   UNL     1     -40.442 -48.900  10.710  1.00  0.00    -0.340 N 
HETATM    5  H   UNL     1     -40.648 -46.905   9.325  1.00  0.00     0.170 HD
HETATM    6  H   UNL     1     -40.338 -49.044   9.717  1.00  0.00     0.164 HD
ENDROOT
BRANCH   1   7
HETATM    7  C   UNL     1     -41.117 -45.319  10.599  1.00  0.00     0.051 A 
HETATM    8  C   UNL     1     -42.410 -44.871  10.859  1.00  0.00     0.034 A 
HETATM    9  C   UNL     1     -42.643 -43.529  11.155  1.00  0.00     0.039 A 
HETATM   10  C   UNL     1     -41.572 -42.652  11.184  1.00  0.00     0.069 A 
HETATM   11  N   UNL     1     -40.298 -43.048  10.956  1.00  0.00    -0.358 N 
HETATM   12  C   UNL     1     -40.103 -44.366  10.680  1.00  0.00     0.118 A 
ATOM     13  HN  UNL     1     -39.520 -42.389  10.990  1.00  0.00     0.166 HD
BRANCH  10  14
HETATM   14  S   UNL     1     -41.900 -40.954  11.618  1.00  0.00    -0.113 SA
BRANCH  14  15
HETATM   15  C   UNL     1     -40.340 -40.510  12.439  1.00  0.00     0.076 C 
HETATM   16  C   UNL     1     -40.396 -40.956  13.891  1.00  0.00     0.016 C 
ENDBRANCH  14  15
ENDBRANCH  10  14
ENDBRANCH   1   7
BRANCH   4  17
HETATM   17  C   UNL     1     -40.630 -50.099  11.518  1.00  0.00     0.156 C 
BRANCH  17  18
HETATM   18  C   UNL     1     -39.511 -50.347  12.523  1.00  0.00     0.139 C 
HETATM   19  C   UNL     1     -38.116 -49.989  12.035  1.00  0.00     0.035 C 
HETATM   20  C   UNL     1     -37.217 -51.023  12.685  1.00  0.00     0.029 C 
HETATM   21  C   UNL     1     -38.153 -51.915  13.474  1.00  0.00     0.168 C 
HETATM   22  O   UNL     1     -39.447 -51.735  12.890  1.00  0.00    -0.384 OA
ENDBRANCH  17  18
ENDBRANCH   4  17
TORSDOF 5
ENDMDL
