MODEL 1
REMARK VINA RESULT:      -6.5      0.000      0.000
REMARK  5 active torsions:
REMARK  status: ('A' for Active; 'I' for Inactive)
REMARK    1  A    between atoms: C_2  and  C_4 
REMARK    2  A    between atoms: C_4  and  N_6 
REMARK       I    between atoms: N_6  and  C_7 
REMARK    3  A    between atoms: C_7  and  C_9 
REMARK    4  A    between atoms: C_9  and  C_10 
REMARK    5  A    between atoms: C_13  and  N_16 
ROOT
HETATM    1  C   UNL     1     -41.924 -49.855  11.858  1.00  0.00     0.026 A 
HETATM    2  C   UNL     1     -41.108 -50.931  12.142  1.00  0.00     0.078 A 
HETATM    3  S   UNL     1     -41.899 -51.996  13.218  1.00  0.00    -0.064 SA
HETATM    4  C   UNL     1     -43.298 -51.010  13.173  1.00  0.00     0.153 A 
HETATM    5  N   UNL     1     -43.185 -49.920  12.443  1.00  0.00    -0.339 N 
ATOM      6  HN  UNL     1     -43.918 -49.222  12.323  1.00  0.00     0.168 HD
ENDROOT
BRANCH   1   7
HETATM    7  C   UNL     1     -41.572 -48.673  11.014  1.00  0.00     0.160 C 
BRANCH   7   8
HETATM    8  C   UNL     1     -42.756 -47.898  10.459  1.00  0.00     0.223 C 
HETATM    9  N   UNL     1     -42.979 -47.959   9.101  1.00  0.00    -0.356 N 
HETATM   10  H   UNL     1     -42.352 -48.519   8.530  1.00  0.00     0.162 HD
HETATM   11  O   UNL     1     -43.468 -47.227  11.208  1.00  0.00    -0.273 OA
BRANCH   9  12
HETATM   12  C   UNL     1     -44.074 -47.253   8.441  1.00  0.00     0.083 C 
HETATM   13  C   UNL     1     -44.010 -45.769   8.815  1.00  0.00     0.032 C 
BRANCH  12  14
HETATM   14  C   UNL     1     -45.435 -47.897   8.814  1.00  0.00    -0.000 C 
HETATM   15  C   UNL     1     -46.486 -46.839   9.171  1.00  0.00     0.011 C 
HETATM   16  C   UNL     1     -45.982 -48.770   7.676  1.00  0.00     0.011 C 
ENDBRANCH  12  14
ENDBRANCH   9  12
ENDBRANCH   7   8
ENDBRANCH   1   7
BRANCH   4  17
HETATM   17  N   UNL     1     -44.481 -51.420  13.758  1.00  0.00    -0.298 N 
HETATM   18  C   UNL     1     -44.952 -50.902  15.016  1.00  0.00     0.134 C 
HETATM   19  C   UNL     1     -46.370 -51.411  15.174  1.00  0.00     0.029 C 
HETATM   20  C   UNL     1     -46.726 -52.059  13.850  1.00  0.00     0.105 C 
HETATM   21  C   UNL     1     -45.410 -52.255  13.148  1.00  0.00     0.225 C 
HETATM   22  O   UNL     1     -45.277 -52.999  12.190  1.00  0.00    -0.273 OA
ENDBRANCH   4  17
TORSDOF 5
ENDMDL
MODEL 2
REMARK VINA RESULT:      -6.5      2.593      6.149
REMARK  5 active torsions:
REMARK  status: ('A' for Active; 'I' for Inactive)
REMARK    1  A    between atoms: C_2  and  C_4 
REMARK    2  A    between atoms: C_4  and  N_6 
REMARK       I    between atoms: N_6  and  C_7 
REMARK    3  A    between atoms: C_7  and  C_9 
REMARK    4  A    between atoms: C_9  and  C_10 
REMARK    5  A    between atoms: C_13  and  N_16 
ROOT
HETATM    1  C   UNL     1     -40.678 -51.042  11.868  1.00  0.00     0.026 A 
HETATM    2  C   UNL     1     -39.435 -50.778  12.408  1.00  0.00     0.078 A 
HETATM    3  S   UNL     1     -39.033 -49.135  12.172  1.00  0.00    -0.064 SA
HETATM    4  C   UNL     1     -40.559 -48.860  11.447  1.00  0.00     0.153 A 
HETATM    5  N   UNL     1     -41.320 -49.929  11.334  1.00  0.00    -0.339 N 
ATOM      6  HN  UNL     1     -42.249 -49.939  10.914  1.00  0.00     0.168 HD
ENDROOT
BRANCH   1   7
HETATM    7  C   UNL     1     -41.354 -52.373  11.809  1.00  0.00     0.160 C 
BRANCH   7   8
HETATM    8  C   UNL     1     -42.386 -52.623  12.897  1.00  0.00     0.223 C 
HETATM    9  N   UNL     1     -43.710 -52.412  12.582  1.00  0.00    -0.356 N 
HETATM   10  H   UNL     1     -43.943 -52.106  11.641  1.00  0.00     0.162 HD
HETATM   11  O   UNL     1     -42.031 -52.980  14.022  1.00  0.00    -0.273 OA
BRANCH   9  12
HETATM   12  C   UNL     1     -44.797 -52.605  13.538  1.00  0.00     0.083 C 
HETATM   13  C   UNL     1     -45.352 -54.025  13.385  1.00  0.00     0.032 C 
BRANCH  12  14
HETATM   14  C   UNL     1     -45.889 -51.520  13.339  1.00  0.00    -0.000 C 
HETATM   15  C   UNL     1     -46.749 -51.799  12.100  1.00  0.00     0.011 C 
HETATM   16  C   UNL     1     -46.810 -51.411  14.563  1.00  0.00     0.011 C 
ENDBRANCH  12  14
ENDBRANCH   9  12
ENDBRANCH   7   8
ENDBRANCH   1   7
BRANCH   4  17
HETATM   17  N   UNL     1     -40.985 -47.582  11.138  1.00  0.00    -0.298 N 
HETATM   18  C   UNL     1     -40.084 -46.464  11.024  1.00  0.00     0.134 C 
HETATM   19  C   UNL     1     -40.900 -45.328  10.440  1.00  0.00     0.029 C 
HETATM   20  C   UNL     1     -42.233 -45.936  10.048  1.00  0.00     0.105 C 
HETATM   21  C   UNL     1     -42.284 -47.256  10.767  1.00  0.00     0.225 C 
HETATM   22  O   UNL     1     -43.318 -47.887  10.916  1.00  0.00    -0.273 OA
ENDBRANCH   4  17
TORSDOF 5
ENDMDL
MODEL 3
REMARK VINA RESULT:      -6.3      1.547      1.941
REMARK  5 active torsions:
REMARK  status: ('A' for Active; 'I' for Inactive)
REMARK    1  A    between atoms: C_2  and  C_4 
REMARK    2  A    between atoms: C_4  and  N_6 
REMARK       I    between atoms: N_6  and  C_7 
REMARK    3  A    between atoms: C_7  and  C_9 
REMARK    4  A    between atoms: C_9  and  C_10 
REMARK    5  A    between atoms: C_13  and  N_16 
ROOT
HETATM    1  C   UNL     1     -42.878 -50.023  12.633  1.00  0.00     0.026 A 
HETATM    2  C   UNL     1     -41.755 -50.823  12.560  1.00  0.00     0.078 A 
HETATM    3  S   UNL     1     -42.139 -52.413  13.052  1.00  0.00    -0.064 SA
HETATM    4  C   UNL     1     -43.778 -51.962  13.249  1.00  0.00     0.153 A 
HETATM    5  N   UNL     1     -44.037 -50.692  13.014  1.00  0.00    -0.339 N 
ATOM      6  HN  UNL     1     -44.957 -50.261  13.099  1.00  0.00     0.168 HD
ENDROOT
BRANCH   1   7
HETATM    7  C   UNL     1     -42.941 -48.557  12.353  1.00  0.00     0.160 C 
BRANCH   7   8
HETATM    8  C   UNL     1     -43.004 -48.181  10.881  1.00  0.00     0.223 C 
HETATM    9  N   UNL     1     -44.235 -47.853  10.359  1.00  0.00    -0.356 N 
HETATM   10  H   UNL     1     -45.045 -47.870  10.973  1.00  0.00     0.162 HD
HETATM   11  O   UNL     1     -41.984 -48.196  10.190  1.00  0.00    -0.273 OA
BRANCH   9  12
HETATM   12  C   UNL     1     -44.435 -47.485   8.959  1.00  0.00     0.083 C 
HETATM   13  C   UNL     1     -43.942 -46.050   8.744  1.00  0.00     0.032 C 
BRANCH  12  14
HETATM   14  C   UNL     1     -45.925 -47.663   8.561  1.00  0.00    -0.000 C 
HETATM   15  C   UNL     1     -46.534 -48.924   9.186  1.00  0.00     0.011 C 
HETATM   16  C   UNL     1     -46.771 -46.450   8.974  1.00  0.00     0.011 C 
ENDBRANCH  12  14
ENDBRANCH   9  12
ENDBRANCH   7   8
ENDBRANCH   1   7
BRANCH   4  17
HETATM   17  N   UNL     1     -44.755 -52.907  13.504  1.00  0.00    -0.298 N 
HETATM   18  C   UNL     1     -44.559 -54.315  13.275  1.00  0.00     0.134 C 
HETATM   19  C   UNL     1     -45.750 -55.010  13.904  1.00  0.00     0.029 C 
HETATM   20  C   UNL     1     -46.500 -53.936  14.667  1.00  0.00     0.105 C 
HETATM   21  C   UNL     1     -45.964 -52.635  14.134  1.00  0.00     0.225 C 
HETATM   22  O   UNL     1     -46.529 -51.567  14.307  1.00  0.00    -0.273 OA
ENDBRANCH   4  17
TORSDOF 5
ENDMDL
MODEL 4
REMARK VINA RESULT:      -6.1      3.828      6.482
REMARK  5 active torsions:
REMARK  status: ('A' for Active; 'I' for Inactive)
REMARK    1  A    between atoms: C_2  and  C_4 
REMARK    2  A    between atoms: C_4  and  N_6 
REMARK       I    between atoms: N_6  and  C_7 
REMARK    3  A    between atoms: C_7  and  C_9 
REMARK    4  A    between atoms: C_9  and  C_10 
REMARK    5  A    between atoms: C_13  and  N_16 
ROOT
HETATM    1  C   UNL     1     -42.217 -53.506  13.577  1.00  0.00     0.026 A 
HETATM    2  C   UNL     1     -42.155 -53.236  14.930  1.00  0.00     0.078 A 
HETATM    3  S   UNL     1     -40.843 -52.194  15.258  1.00  0.00    -0.064 SA
HETATM    4  C   UNL     1     -40.492 -52.100  13.585  1.00  0.00     0.153 A 
HETATM    5  N   UNL     1     -41.267 -52.835  12.814  1.00  0.00    -0.339 N 
ATOM      6  HN  UNL     1     -41.182 -52.902  11.800  1.00  0.00     0.168 HD
ENDROOT
BRANCH   1   7
HETATM    7  C   UNL     1     -43.178 -54.428  12.900  1.00  0.00     0.160 C 
BRANCH   7   8
HETATM    8  C   UNL     1     -44.648 -54.094  13.105  1.00  0.00     0.223 C 
HETATM    9  N   UNL     1     -45.016 -52.769  13.044  1.00  0.00    -0.356 N 
HETATM   10  H   UNL     1     -44.299 -52.073  12.860  1.00  0.00     0.162 HD
HETATM   11  O   UNL     1     -45.462 -54.989  13.338  1.00  0.00    -0.273 OA
BRANCH   9  12
HETATM   12  C   UNL     1     -46.391 -52.314  13.234  1.00  0.00     0.083 C 
HETATM   13  C   UNL     1     -46.895 -51.685  11.931  1.00  0.00     0.032 C 
BRANCH  12  14
HETATM   14  C   UNL     1     -46.474 -51.333  14.433  1.00  0.00    -0.000 C 
HETATM   15  C   UNL     1     -47.267 -51.928  15.603  1.00  0.00     0.011 C 
HETATM   16  C   UNL     1     -45.080 -50.932  14.937  1.00  0.00     0.011 C 
ENDBRANCH  12  14
ENDBRANCH   9  12
ENDBRANCH   7   8
ENDBRANCH   1   7
BRANCH   4  17
HETATM   17  N   UNL     1     -39.552 -51.211  13.099  1.00  0.00    -0.298 N 
HETATM   18  C   UNL     1     -38.200 -51.157  13.591  1.00  0.00     0.134 C 
HETATM   19  C   UNL     1     -37.446 -50.244  12.645  1.00  0.00     0.029 C 
HETATM   20  C   UNL     1     -38.396 -49.965  11.496  1.00  0.00     0.105 C 
HETATM   21  C   UNL     1     -39.751 -50.379  12.004  1.00  0.00     0.225 C 
HETATM   22  O   UNL     1     -40.791 -50.038  11.463  1.00  0.00    -0.273 OA
ENDBRANCH   4  17
TORSDOF 5
ENDMDL
MODEL 5
REMARK VINA RESULT:      -6.0      4.141      5.507
REMARK  5 active torsions:
REMARK  status: ('A' for Active; 'I' for Inactive)
REMARK    1  A    between atoms: C_2  and  C_4 
REMARK    2  A    between atoms: C_4  and  N_6 
REMARK       I    between atoms: N_6  and  C_7 
REMARK    3  A    between atoms: C_7  and  C_9 
REMARK    4  A    between atoms: C_9  and  C_10 
REMARK    5  A    between atoms: C_13  and  N_16 
ROOT
HETATM    1  C   UNL     1     -41.440 -53.703  14.855  1.00  0.00     0.026 A 
HETATM    2  C   UNL     1     -41.837 -54.496  15.913  1.00  0.00     0.078 A 
HETATM    3  S   UNL     1     -43.498 -54.256  16.232  1.00  0.00    -0.064 SA
HETATM    4  C   UNL     1     -43.603 -53.184  14.902  1.00  0.00     0.153 A 
HETATM    5  N   UNL     1     -42.467 -52.966  14.273  1.00  0.00    -0.339 N 
ATOM      6  HN  UNL     1     -42.355 -52.345  13.472  1.00  0.00     0.168 HD
ENDROOT
BRANCH   1   7
HETATM    7  C   UNL     1     -40.053 -53.574  14.316  1.00  0.00     0.160 C 
BRANCH   7   8
HETATM    8  C   UNL     1     -39.886 -52.559  13.195  1.00  0.00     0.223 C 
HETATM    9  N   UNL     1     -39.117 -51.446  13.452  1.00  0.00    -0.356 N 
HETATM   10  H   UNL     1     -38.691 -51.350  14.370  1.00  0.00     0.162 HD
HETATM   11  O   UNL     1     -40.444 -52.732  12.110  1.00  0.00    -0.273 OA
BRANCH   9  12
HETATM   12  C   UNL     1     -38.887 -50.392  12.467  1.00  0.00     0.083 C 
HETATM   13  C   UNL     1     -37.491 -50.569  11.861  1.00  0.00     0.032 C 
BRANCH  12  14
HETATM   14  C   UNL     1     -39.074 -48.995  13.118  1.00  0.00    -0.000 C 
HETATM   15  C   UNL     1     -37.791 -48.511  13.805  1.00  0.00     0.011 C 
HETATM   16  C   UNL     1     -39.507 -47.943  12.088  1.00  0.00     0.011 C 
ENDBRANCH  12  14
ENDBRANCH   9  12
ENDBRANCH   7   8
ENDBRANCH   1   7
BRANCH   4  17
HETATM   17  N   UNL     1     -44.824 -52.705  14.464  1.00  0.00    -0.298 N 
HETATM   18  C   UNL     1     -45.688 -51.898  15.286  1.00  0.00     0.134 C 
HETATM   19  C   UNL     1     -46.779 -51.386  14.368  1.00  0.00     0.029 C 
HETATM   20  C   UNL     1     -46.359 -51.780  12.966  1.00  0.00     0.105 C 
HETATM   21  C   UNL     1     -45.289 -52.820  13.159  1.00  0.00     0.225 C 
HETATM   22  O   UNL     1     -44.921 -53.563  12.264  1.00  0.00    -0.273 OA
ENDBRANCH   4  17
TORSDOF 5
ENDMDL
MODEL 6
REMARK VINA RESULT:      -6.0      3.275      4.628
REMARK  5 active torsions:
REMARK  status: ('A' for Active; 'I' for Inactive)
REMARK    1  A    between atoms: C_2  and  C_4 
REMARK    2  A    between atoms: C_4  and  N_6 
REMARK       I    between atoms: N_6  and  C_7 
REMARK    3  A    between atoms: C_7  and  C_9 
REMARK    4  A    between atoms: C_9  and  C_10 
REMARK    5  A    between atoms: C_13  and  N_16 
ROOT
HETATM    1  C   UNL     1     -42.214 -48.848  11.550  1.00  0.00     0.026 A 
HETATM    2  C   UNL     1     -42.609 -48.271  12.741  1.00  0.00     0.078 A 
HETATM    3  S   UNL     1     -42.746 -49.468  13.951  1.00  0.00    -0.064 SA
HETATM    4  C   UNL     1     -42.196 -50.655  12.848  1.00  0.00     0.153 A 
HETATM    5  N   UNL     1     -41.965 -50.214  11.628  1.00  0.00    -0.339 N 
ATOM      6  HN  UNL     1     -41.647 -50.793  10.851  1.00  0.00     0.168 HD
ENDROOT
BRANCH   1   7
HETATM    7  C   UNL     1     -42.049 -48.150  10.239  1.00  0.00     0.160 C 
BRANCH   7   8
HETATM    8  C   UNL     1     -41.726 -46.667  10.332  1.00  0.00     0.223 C 
HETATM    9  N   UNL     1     -40.402 -46.309  10.452  1.00  0.00    -0.356 N 
HETATM   10  H   UNL     1     -39.699 -47.043  10.468  1.00  0.00     0.162 HD
HETATM   11  O   UNL     1     -42.631 -45.831  10.321  1.00  0.00    -0.273 OA
BRANCH   9  12
HETATM   12  C   UNL     1     -39.958 -44.922  10.561  1.00  0.00     0.083 C 
HETATM   13  C   UNL     1     -38.957 -44.627   9.439  1.00  0.00     0.032 C 
BRANCH  12  14
HETATM   14  C   UNL     1     -39.360 -44.655  11.968  1.00  0.00    -0.000 C 
HETATM   15  C   UNL     1     -39.998 -43.431  12.635  1.00  0.00     0.011 C 
HETATM   16  C   UNL     1     -39.530 -45.867  12.896  1.00  0.00     0.011 C 
ENDBRANCH  12  14
ENDBRANCH   9  12
ENDBRANCH   7   8
ENDBRANCH   1   7
BRANCH   4  17
HETATM   17  N   UNL     1     -41.898 -51.939  13.266  1.00  0.00    -0.298 N 
HETATM   18  C   UNL     1     -42.830 -52.758  13.997  1.00  0.00     0.134 C 
HETATM   19  C   UNL     1     -42.221 -54.145  14.041  1.00  0.00     0.029 C 
HETATM   20  C   UNL     1     -41.015 -54.096  13.124  1.00  0.00     0.105 C 
HETATM   21  C   UNL     1     -40.745 -52.631  12.915  1.00  0.00     0.225 C 
HETATM   22  O   UNL     1     -39.690 -52.211  12.467  1.00  0.00    -0.273 OA
ENDBRANCH   4  17
TORSDOF 5
ENDMDL
MODEL 7
REMARK VINA RESULT:      -5.8      1.788      6.086
REMARK  5 active torsions:
REMARK  status: ('A' for Active; 'I' for Inactive)
REMARK    1  A    between atoms: C_2  and  C_4 
REMARK    2  A    between atoms: C_4  and  N_6 
REMARK       I    between atoms: N_6  and  C_7 
REMARK    3  A    between atoms: C_7  and  C_9 
REMARK    4  A    between atoms: C_9  and  C_10 
REMARK    5  A    between atoms: C_13  and  N_16 
ROOT
HETATM    1  C   UNL     1     -42.256 -49.661  12.529  1.00  0.00     0.026 A 
HETATM    2  C   UNL     1     -40.971 -49.397  12.099  1.00  0.00     0.078 A 
HETATM    3  S   UNL     1     -41.001 -48.230  10.853  1.00  0.00    -0.064 SA
HETATM    4  C   UNL     1     -42.698 -48.087  11.019  1.00  0.00     0.153 A 
HETATM    5  N   UNL     1     -43.237 -48.891  11.913  1.00  0.00    -0.339 N 
ATOM      6  HN  UNL     1     -44.234 -48.941  12.123  1.00  0.00     0.168 HD
ENDROOT
BRANCH   1   7
HETATM    7  C   UNL     1     -42.658 -50.671  13.554  1.00  0.00     0.160 C 
BRANCH   7   8
HETATM    8  C   UNL     1     -43.633 -51.733  13.070  1.00  0.00     0.223 C 
HETATM    9  N   UNL     1     -44.977 -51.442  13.136  1.00  0.00    -0.356 N 
HETATM   10  H   UNL     1     -45.262 -50.536  13.497  1.00  0.00     0.162 HD
HETATM   11  O   UNL     1     -43.217 -52.817  12.658  1.00  0.00    -0.273 OA
BRANCH   9  12
HETATM   12  C   UNL     1     -46.016 -52.378  12.714  1.00  0.00     0.083 C 
HETATM   13  C   UNL     1     -47.001 -51.651  11.793  1.00  0.00     0.032 C 
BRANCH  12  14
HETATM   14  C   UNL     1     -46.716 -53.002  13.951  1.00  0.00    -0.000 C 
HETATM   15  C   UNL     1     -46.031 -54.298  14.400  1.00  0.00     0.011 C 
HETATM   16  C   UNL     1     -46.749 -52.027  15.137  1.00  0.00     0.011 C 
ENDBRANCH  12  14
ENDBRANCH   9  12
ENDBRANCH   7   8
ENDBRANCH   1   7
BRANCH   4  17
HETATM   17  N   UNL     1     -43.403 -47.104  10.351  1.00  0.00    -0.298 N 
HETATM   18  C   UNL     1     -42.863 -45.794  10.093  1.00  0.00     0.134 C 
HETATM   19  C   UNL     1     -43.833 -45.122   9.142  1.00  0.00     0.029 C 
HETATM   20  C   UNL     1     -44.820 -46.198   8.730  1.00  0.00     0.105 C 
HETATM   21  C   UNL     1     -44.633 -47.301   9.736  1.00  0.00     0.225 C 
HETATM   22  O   UNL     1     -45.446 -48.199   9.889  1.00  0.00    -0.273 OA
ENDBRANCH   4  17
TORSDOF 5
ENDMDL
MODEL 8
REMARK VINA RESULT:      -5.8      4.965      8.233
REMARK  5 active torsions:
REMARK  status: ('A' for Active; 'I' for Inactive)
REMARK    1  A    between atoms: C_2  and  C_4 
REMARK    2  A    between atoms: C_4  and  N_6 
REMARK       I    between atoms: N_6  and  C_7 
REMARK    3  A    between atoms: C_7  and  C_9 
REMARK    4  A    between atoms: C_9  and  C_10 
REMARK    5  A    between atoms: C_13  and  N_16 
ROOT
HETATM    1  C   UNL     1     -39.269 -49.259  11.305  1.00  0.00     0.026 A 
HETATM    2  C   UNL     1     -40.475 -49.931  11.329  1.00  0.00     0.078 A 
HETATM    3  S   UNL     1     -41.763 -48.814  11.432  1.00  0.00    -0.064 SA
HETATM    4  C   UNL     1     -40.650 -47.515  11.354  1.00  0.00     0.153 A 
HETATM    5  N   UNL     1     -39.384 -47.873  11.304  1.00  0.00    -0.339 N 
ATOM      6  HN  UNL     1     -38.598 -47.224  11.268  1.00  0.00     0.168 HD
ENDROOT
BRANCH   1   7
HETATM    7  C   UNL     1     -37.909 -49.879  11.288  1.00  0.00     0.160 C 
BRANCH   7   8
HETATM    8  C   UNL     1     -37.497 -50.569  12.579  1.00  0.00     0.223 C 
HETATM    9  N   UNL     1     -37.748 -49.912  13.762  1.00  0.00    -0.356 N 
HETATM   10  H   UNL     1     -38.201 -49.002  13.727  1.00  0.00     0.162 HD
HETATM   11  O   UNL     1     -36.938 -51.667  12.547  1.00  0.00    -0.273 OA
BRANCH   9  12
HETATM   12  C   UNL     1     -37.392 -50.459  15.069  1.00  0.00     0.083 C 
HETATM   13  C   UNL     1     -38.621 -51.144  15.677  1.00  0.00     0.032 C 
BRANCH  12  14
HETATM   14  C   UNL     1     -36.827 -49.342  15.986  1.00  0.00    -0.000 C 
HETATM   15  C   UNL     1     -35.417 -49.677  16.488  1.00  0.00     0.011 C 
HETATM   16  C   UNL     1     -36.785 -47.985  15.269  1.00  0.00     0.011 C 
ENDBRANCH  12  14
ENDBRANCH   9  12
ENDBRANCH   7   8
ENDBRANCH   1   7
BRANCH   4  17
HETATM   17  N   UNL     1     -41.083 -46.209  11.222  1.00  0.00    -0.298 N 
HETATM   18  C   UNL     1     -42.322 -45.735  11.781  1.00  0.00     0.134 C 
HETATM   19  C   UNL     1     -42.299 -44.227  11.629  1.00  0.00     0.029 C 
HETATM   20  C   UNL     1     -40.903 -43.881  11.149  1.00  0.00     0.105 C 
HETATM   21  C   UNL     1     -40.324 -45.184  10.669  1.00  0.00     0.225 C 
HETATM   22  O   UNL     1     -39.333 -45.244   9.959  1.00  0.00    -0.273 OA
ENDBRANCH   4  17
TORSDOF 5
ENDMDL
MODEL 9
REMARK VINA RESULT:      -5.7      2.328      6.123
REMARK  5 active torsions:
REMARK  status: ('A' for Active; 'I' for Inactive)
REMARK    1  A    between atoms: C_2  and  C_4 
REMARK    2  A    between atoms: C_4  and  N_6 
REMARK       I    between atoms: N_6  and  C_7 
REMARK    3  A    between atoms: C_7  and  C_9 
REMARK    4  A    between atoms: C_9  and  C_10 
REMARK    5  A    between atoms: C_13  and  N_16 
ROOT
HETATM    1  C   UNL     1     -41.809 -52.747  12.875  1.00  0.00     0.026 A 
HETATM    2  C   UNL     1     -40.453 -52.623  13.104  1.00  0.00     0.078 A 
HETATM    3  S   UNL     1     -39.909 -51.093  12.572  1.00  0.00    -0.064 SA
HETATM    4  C   UNL     1     -41.512 -50.664  12.152  1.00  0.00     0.153 A 
HETATM    5  N   UNL     1     -42.408 -51.610  12.343  1.00  0.00    -0.339 N 
ATOM      6  HN  UNL     1     -43.401 -51.521  12.131  1.00  0.00     0.168 HD
ENDROOT
BRANCH   1   7
HETATM    7  C   UNL     1     -42.644 -53.958  13.137  1.00  0.00     0.160 C 
BRANCH   7   8
HETATM    8  C   UNL     1     -44.136 -53.697  13.276  1.00  0.00     0.223 C 
HETATM    9  N   UNL     1     -44.545 -52.862  14.291  1.00  0.00    -0.356 N 
HETATM   10  H   UNL     1     -43.840 -52.452  14.899  1.00  0.00     0.162 HD
HETATM   11  O   UNL     1     -44.937 -54.240  12.513  1.00  0.00    -0.273 OA
BRANCH   9  12
HETATM   12  C   UNL     1     -45.947 -52.539  14.541  1.00  0.00     0.083 C 
HETATM   13  C   UNL     1     -46.443 -51.584  13.450  1.00  0.00     0.032 C 
BRANCH  12  14
HETATM   14  C   UNL     1     -46.120 -51.946  15.965  1.00  0.00    -0.000 C 
HETATM   15  C   UNL     1     -45.130 -50.805  16.230  1.00  0.00     0.011 C 
HETATM   16  C   UNL     1     -47.545 -51.424  16.194  1.00  0.00     0.011 C 
ENDBRANCH  12  14
ENDBRANCH   9  12
ENDBRANCH   7   8
ENDBRANCH   1   7
BRANCH   4  17
HETATM   17  N   UNL     1     -41.830 -49.375  11.770  1.00  0.00    -0.298 N 
HETATM   18  C   UNL     1     -41.220 -48.719  10.643  1.00  0.00     0.134 C 
HETATM   19  C   UNL     1     -42.010 -47.445  10.422  1.00  0.00     0.029 C 
HETATM   20  C   UNL     1     -43.207 -47.535  11.348  1.00  0.00     0.105 C 
HETATM   21  C   UNL     1     -42.859 -48.623  12.327  1.00  0.00     0.225 C 
HETATM   22  O   UNL     1     -43.455 -48.779  13.381  1.00  0.00    -0.273 OA
ENDBRANCH   4  17
TORSDOF 5
ENDMDL
