MODEL 1
REMARK VINA RESULT:      -6.6      0.000      0.000
REMARK  5 active torsions:
REMARK  status: ('A' for Active; 'I' for Inactive)
REMARK    1  A    between atoms: C_2  and  N_3 
REMARK    2  A    between atoms: C_2  and  C_7 
REMARK       I    between atoms: N_3  and  C_4 
REMARK       I    between atoms: C_7  and  N_9 
REMARK    3  A    between atoms: N_9  and  C_10 
REMARK    4  A    between atoms: C_10  and  C_11 
REMARK    5  A    between atoms: C_14  and  N_18 
ROOT
HETATM    1  C   UNL     1     -42.383 -50.188  12.440  1.00  0.00    -0.025 A 
HETATM    2  C   UNL     1     -41.949 -51.500  12.290  1.00  0.00     0.014 A 
HETATM    3  C   UNL     1     -42.564 -52.521  13.025  1.00  0.00     0.049 A 
HETATM    4  C   UNL     1     -43.624 -52.242  13.890  1.00  0.00     0.103 A 
HETATM    5  N   UNL     1     -44.046 -50.968  14.033  1.00  0.00    -0.352 N 
ATOM      6  HN  UNL     1     -44.815 -50.745  14.664  1.00  0.00     0.166 HD
HETATM    7  C   UNL     1     -43.430 -49.983  13.323  1.00  0.00     0.098 A 
ENDROOT
BRANCH   1   8
HETATM    8  C   UNL     1     -41.764 -49.058  11.673  1.00  0.00     0.162 C 
BRANCH   8   9
HETATM    9  N   UNL     1     -42.677 -48.518  10.688  1.00  0.00    -0.355 N 
HETATM   10  C   UNL     1     -43.183 -47.240  10.804  1.00  0.00     0.240 C 
HETATM   11  O   UNL     1     -42.890 -46.493  11.739  1.00  0.00    -0.271 OA
HETATM   12  H   UNL     1     -42.972 -49.114   9.926  1.00  0.00     0.162 HD
BRANCH  10  13
HETATM   13  C   UNL     1     -44.137 -46.805   9.669  1.00  0.00     0.172 C 
HETATM   14  C   UNL     1     -43.368 -46.181   8.510  1.00  0.00     0.042 C 
BRANCH  13  15
HETATM   15  N   UNL     1     -44.898 -47.962   9.203  1.00  0.00    -0.348 N 
HETATM   16  C   UNL     1     -46.204 -47.860   8.801  1.00  0.00     0.214 C 
HETATM   17  O   UNL     1     -46.826 -46.800   8.795  1.00  0.00    -0.274 OA
HETATM   18  C   UNL     1     -46.826 -49.147   8.332  1.00  0.00     0.117 C 
HETATM   19  H   UNL     1     -44.441 -48.866   9.258  1.00  0.00     0.163 HD
ENDBRANCH  13  15
ENDBRANCH  10  13
ENDBRANCH   8   9
ENDBRANCH   1   8
BRANCH   4  20
HETATM   20  N   UNL     1     -44.205 -53.235  14.658  1.00  0.00    -0.363 N 
HETATM   21  C   UNL     1     -44.089 -54.660  14.313  1.00  0.00     0.150 C 
HETATM   22  C   UNL     1     -45.429 -55.209  13.800  1.00  0.00     0.187 C 
HETATM   23  O   UNL     1     -46.494 -54.968  14.732  1.00  0.00    -0.388 OA
HETATM   24  C   UNL     1     -46.652 -53.552  14.937  1.00  0.00     0.187 C 
HETATM   25  C   UNL     1     -45.371 -52.916  15.498  1.00  0.00     0.150 C 
ENDBRANCH   4  20
TORSDOF 5
ENDMDL
MODEL 2
REMARK VINA RESULT:      -6.2      2.061      7.366
REMARK  5 active torsions:
REMARK  status: ('A' for Active; 'I' for Inactive)
REMARK    1  A    between atoms: C_2  and  N_3 
REMARK    2  A    between atoms: C_2  and  C_7 
REMARK       I    between atoms: N_3  and  C_4 
REMARK       I    between atoms: C_7  and  N_9 
REMARK    3  A    between atoms: N_9  and  C_10 
REMARK    4  A    between atoms: C_10  and  C_11 
REMARK    5  A    between atoms: C_14  and  N_18 
ROOT
HETATM    1  C   UNL     1     -41.415 -50.314  12.658  1.00  0.00    -0.025 A 
HETATM    2  C   UNL     1     -42.499 -49.456  12.811  1.00  0.00     0.014 A 
HETATM    3  C   UNL     1     -42.750 -48.478  11.842  1.00  0.00     0.049 A 
HETATM    4  C   UNL     1     -41.939 -48.367  10.711  1.00  0.00     0.103 A 
HETATM    5  N   UNL     1     -40.889 -49.202  10.562  1.00  0.00    -0.352 N 
ATOM      6  HN  UNL     1     -40.283 -49.132   9.745  1.00  0.00     0.166 HD
HETATM    7  C   UNL     1     -40.648 -50.139  11.519  1.00  0.00     0.098 A 
ENDROOT
BRANCH   1   8
HETATM    8  C   UNL     1     -41.105 -51.384  13.663  1.00  0.00     0.162 C 
BRANCH   8   9
HETATM    9  N   UNL     1     -42.270 -52.190  13.961  1.00  0.00    -0.355 N 
HETATM   10  C   UNL     1     -42.419 -53.457  13.434  1.00  0.00     0.240 C 
HETATM   11  O   UNL     1     -41.580 -53.968  12.690  1.00  0.00    -0.271 OA
HETATM   12  H   UNL     1     -42.999 -51.790  14.536  1.00  0.00     0.162 HD
BRANCH  10  13
HETATM   13  C   UNL     1     -43.710 -54.195  13.853  1.00  0.00     0.172 C 
HETATM   14  C   UNL     1     -43.450 -55.146  15.015  1.00  0.00     0.042 C 
BRANCH  13  15
HETATM   15  N   UNL     1     -44.731 -53.217  14.221  1.00  0.00    -0.348 N 
HETATM   16  C   UNL     1     -45.658 -52.760  13.322  1.00  0.00     0.214 C 
HETATM   17  O   UNL     1     -45.705 -53.135  12.153  1.00  0.00    -0.274 OA
HETATM   18  C   UNL     1     -46.648 -51.772  13.878  1.00  0.00     0.117 C 
HETATM   19  H   UNL     1     -44.683 -52.832  15.158  1.00  0.00     0.163 HD
ENDBRANCH  13  15
ENDBRANCH  10  13
ENDBRANCH   8   9
ENDBRANCH   1   8
BRANCH   4  20
HETATM   20  N   UNL     1     -42.148 -47.372   9.773  1.00  0.00    -0.363 N 
HETATM   21  C   UNL     1     -41.729 -45.981   9.999  1.00  0.00     0.150 C 
HETATM   22  C   UNL     1     -42.947 -45.075  10.240  1.00  0.00     0.187 C 
HETATM   23  O   UNL     1     -43.905 -45.180   9.176  1.00  0.00    -0.388 OA
HETATM   24  C   UNL     1     -44.381 -46.535   9.078  1.00  0.00     0.187 C 
HETATM   25  C   UNL     1     -43.235 -47.517   8.790  1.00  0.00     0.150 C 
ENDBRANCH   4  20
TORSDOF 5
ENDMDL
MODEL 3
REMARK VINA RESULT:      -6.2      1.916      2.528
REMARK  5 active torsions:
REMARK  status: ('A' for Active; 'I' for Inactive)
REMARK    1  A    between atoms: C_2  and  N_3 
REMARK    2  A    between atoms: C_2  and  C_7 
REMARK       I    between atoms: N_3  and  C_4 
REMARK       I    between atoms: C_7  and  N_9 
REMARK    3  A    between atoms: N_9  and  C_10 
REMARK    4  A    between atoms: C_10  and  C_11 
REMARK    5  A    between atoms: C_14  and  N_18 
ROOT
HETATM    1  C   UNL     1     -41.252 -51.667  12.300  1.00  0.00    -0.025 A 
HETATM    2  C   UNL     1     -42.311 -51.212  13.078  1.00  0.00     0.014 A 
HETATM    3  C   UNL     1     -43.125 -52.133  13.747  1.00  0.00     0.049 A 
HETATM    4  C   UNL     1     -42.875 -53.504  13.662  1.00  0.00     0.103 A 
HETATM    5  N   UNL     1     -41.845 -53.945  12.908  1.00  0.00    -0.352 N 
ATOM      6  HN  UNL     1     -41.650 -54.943  12.830  1.00  0.00     0.166 HD
HETATM    7  C   UNL     1     -41.070 -53.039  12.251  1.00  0.00     0.098 A 
ENDROOT
BRANCH   1   8
HETATM    8  C   UNL     1     -40.345 -50.723  11.569  1.00  0.00     0.162 C 
BRANCH   8   9
HETATM    9  N   UNL     1     -41.072 -49.594  11.028  1.00  0.00    -0.355 N 
HETATM   10  C   UNL     1     -40.749 -48.299  11.378  1.00  0.00     0.240 C 
HETATM   11  O   UNL     1     -39.833 -48.032  12.158  1.00  0.00    -0.271 OA
HETATM   12  H   UNL     1     -41.856 -49.774  10.415  1.00  0.00     0.162 HD
BRANCH  10  13
HETATM   13  C   UNL     1     -41.610 -47.204  10.710  1.00  0.00     0.172 C 
HETATM   14  C   UNL     1     -40.842 -45.892  10.593  1.00  0.00     0.042 C 
BRANCH  13  15
HETATM   15  N   UNL     1     -42.035 -47.658   9.388  1.00  0.00    -0.348 N 
HETATM   16  C   UNL     1     -43.316 -47.480   8.935  1.00  0.00     0.214 C 
HETATM   17  O   UNL     1     -44.193 -46.928   9.595  1.00  0.00    -0.274 OA
HETATM   18  C   UNL     1     -43.573 -47.990   7.542  1.00  0.00     0.117 C 
HETATM   19  H   UNL     1     -41.359 -48.179   8.841  1.00  0.00     0.163 HD
ENDBRANCH  13  15
ENDBRANCH  10  13
ENDBRANCH   8   9
ENDBRANCH   1   8
BRANCH   4  20
HETATM   20  N   UNL     1     -43.702 -54.425  14.278  1.00  0.00    -0.363 N 
HETATM   21  C   UNL     1     -44.998 -54.820  13.704  1.00  0.00     0.150 C 
HETATM   22  C   UNL     1     -46.159 -54.237  14.525  1.00  0.00     0.187 C 
HETATM   23  O   UNL     1     -46.057 -54.588  15.913  1.00  0.00    -0.388 OA
HETATM   24  C   UNL     1     -44.832 -54.068  16.460  1.00  0.00     0.187 C 
HETATM   25  C   UNL     1     -43.603 -54.633  15.732  1.00  0.00     0.150 C 
ENDBRANCH   4  20
TORSDOF 5
ENDMDL
MODEL 4
REMARK VINA RESULT:      -6.1      3.077      7.983
REMARK  5 active torsions:
REMARK  status: ('A' for Active; 'I' for Inactive)
REMARK    1  A    between atoms: C_2  and  N_3 
REMARK    2  A    between atoms: C_2  and  C_7 
REMARK       I    between atoms: N_3  and  C_4 
REMARK       I    between atoms: C_7  and  N_9 
REMARK    3  A    between atoms: N_9  and  C_10 
REMARK    4  A    between atoms: C_10  and  C_11 
REMARK    5  A    between atoms: C_14  and  N_18 
ROOT
HETATM    1  C   UNL     1     -40.004 -49.846  12.318  1.00  0.00    -0.025 A 
HETATM    2  C   UNL     1     -39.555 -48.650  12.865  1.00  0.00     0.014 A 
HETATM    3  C   UNL     1     -39.856 -47.441  12.229  1.00  0.00     0.049 A 
HETATM    4  C   UNL     1     -40.622 -47.417  11.061  1.00  0.00     0.103 A 
HETATM    5  N   UNL     1     -41.060 -48.580  10.532  1.00  0.00    -0.352 N 
ATOM      6  HN  UNL     1     -41.616 -48.582   9.677  1.00  0.00     0.166 HD
HETATM    7  C   UNL     1     -40.747 -49.750  11.153  1.00  0.00     0.098 A 
ENDROOT
BRANCH   1   8
HETATM    8  C   UNL     1     -39.716 -51.169  12.963  1.00  0.00     0.162 C 
BRANCH   8   9
HETATM    9  N   UNL     1     -40.921 -51.951  13.141  1.00  0.00    -0.355 N 
HETATM   10  C   UNL     1     -40.872 -53.322  13.284  1.00  0.00     0.240 C 
HETATM   11  O   UNL     1     -39.814 -53.952  13.269  1.00  0.00    -0.271 OA
HETATM   12  H   UNL     1     -41.813 -51.473  13.120  1.00  0.00     0.162 HD
BRANCH  10  13
HETATM   13  C   UNL     1     -42.241 -54.011  13.476  1.00  0.00     0.172 C 
HETATM   14  C   UNL     1     -42.315 -54.728  14.820  1.00  0.00     0.042 C 
BRANCH  13  15
HETATM   15  N   UNL     1     -43.306 -53.015  13.378  1.00  0.00    -0.348 N 
HETATM   16  C   UNL     1     -44.534 -53.313  12.849  1.00  0.00     0.214 C 
HETATM   17  O   UNL     1     -44.834 -54.427  12.427  1.00  0.00    -0.274 OA
HETATM   18  C   UNL     1     -45.517 -52.173  12.846  1.00  0.00     0.117 C 
HETATM   19  H   UNL     1     -43.075 -52.067  13.653  1.00  0.00     0.163 HD
ENDBRANCH  13  15
ENDBRANCH  10  13
ENDBRANCH   8   9
ENDBRANCH   1   8
BRANCH   4  20
HETATM   20  N   UNL     1     -40.883 -46.233  10.397  1.00  0.00    -0.363 N 
HETATM   21  C   UNL     1     -39.863 -45.187  10.230  1.00  0.00     0.150 C 
HETATM   22  C   UNL     1     -40.175 -43.972  11.119  1.00  0.00     0.187 C 
HETATM   23  O   UNL     1     -41.500 -43.471  10.887  1.00  0.00    -0.388 OA
HETATM   24  C   UNL     1     -42.469 -44.493  11.187  1.00  0.00     0.187 C 
HETATM   25  C   UNL     1     -42.267 -45.738  10.310  1.00  0.00     0.150 C 
ENDBRANCH   4  20
TORSDOF 5
ENDMDL
MODEL 5
REMARK VINA RESULT:      -6.0      2.046      2.673
REMARK  5 active torsions:
REMARK  status: ('A' for Active; 'I' for Inactive)
REMARK    1  A    between atoms: C_2  and  N_3 
REMARK    2  A    between atoms: C_2  and  C_7 
REMARK       I    between atoms: N_3  and  C_4 
REMARK       I    between atoms: C_7  and  N_9 
REMARK    3  A    between atoms: N_9  and  C_10 
REMARK    4  A    between atoms: C_10  and  C_11 
REMARK    5  A    between atoms: C_14  and  N_18 
ROOT
HETATM    1  C   UNL     1     -42.963 -49.073  13.759  1.00  0.00    -0.025 A 
HETATM    2  C   UNL     1     -43.300 -49.859  14.855  1.00  0.00     0.014 A 
HETATM    3  C   UNL     1     -43.366 -51.250  14.717  1.00  0.00     0.049 A 
HETATM    4  C   UNL     1     -43.075 -51.862  13.496  1.00  0.00     0.103 A 
HETATM    5  N   UNL     1     -42.746 -51.098  12.432  1.00  0.00    -0.352 N 
ATOM      6  HN  UNL     1     -42.535 -51.528  11.532  1.00  0.00     0.166 HD
HETATM    7  C   UNL     1     -42.699 -49.746  12.578  1.00  0.00     0.098 A 
ENDROOT
BRANCH   1   8
HETATM    8  C   UNL     1     -42.871 -47.579  13.854  1.00  0.00     0.162 C 
BRANCH   8   9
HETATM    9  N   UNL     1     -42.721 -46.969  12.550  1.00  0.00    -0.355 N 
HETATM   10  C   UNL     1     -41.572 -46.287  12.206  1.00  0.00     0.240 C 
HETATM   11  O   UNL     1     -40.619 -46.162  12.978  1.00  0.00    -0.271 OA
HETATM   12  H   UNL     1     -43.496 -47.017  11.903  1.00  0.00     0.162 HD
BRANCH  10  13
HETATM   13  C   UNL     1     -41.559 -45.702  10.777  1.00  0.00     0.172 C 
HETATM   14  C   UNL     1     -40.145 -45.325  10.347  1.00  0.00     0.042 C 
BRANCH  13  15
HETATM   15  N   UNL     1     -42.124 -46.676   9.847  1.00  0.00    -0.348 N 
HETATM   16  C   UNL     1     -43.145 -46.357   8.991  1.00  0.00     0.214 C 
HETATM   17  O   UNL     1     -43.654 -45.240   8.935  1.00  0.00    -0.274 OA
HETATM   18  C   UNL     1     -43.591 -47.476   8.088  1.00  0.00     0.117 C 
HETATM   19  H   UNL     1     -41.779 -47.627   9.910  1.00  0.00     0.163 HD
ENDBRANCH  13  15
ENDBRANCH  10  13
ENDBRANCH   8   9
ENDBRANCH   1   8
BRANCH   4  20
HETATM   20  N   UNL     1     -43.186 -53.232  13.335  1.00  0.00    -0.363 N 
HETATM   21  C   UNL     1     -44.341 -53.851  12.668  1.00  0.00     0.150 C 
HETATM   22  C   UNL     1     -45.235 -54.577  13.686  1.00  0.00     0.187 C 
HETATM   23  O   UNL     1     -44.490 -55.528  14.462  1.00  0.00    -0.388 OA
HETATM   24  C   UNL     1     -43.452 -54.854  15.196  1.00  0.00     0.187 C 
HETATM   25  C   UNL     1     -42.474 -54.131  14.257  1.00  0.00     0.150 C 
ENDBRANCH   4  20
TORSDOF 5
ENDMDL
MODEL 6
REMARK VINA RESULT:      -5.9      4.583      6.505
REMARK  5 active torsions:
REMARK  status: ('A' for Active; 'I' for Inactive)
REMARK    1  A    between atoms: C_2  and  N_3 
REMARK    2  A    between atoms: C_2  and  C_7 
REMARK       I    between atoms: N_3  and  C_4 
REMARK       I    between atoms: C_7  and  N_9 
REMARK    3  A    between atoms: N_9  and  C_10 
REMARK    4  A    between atoms: C_10  and  C_11 
REMARK    5  A    between atoms: C_14  and  N_18 
ROOT
HETATM    1  C   UNL     1     -40.541 -53.435  13.737  1.00  0.00    -0.025 A 
HETATM    2  C   UNL     1     -41.253 -54.309  14.550  1.00  0.00     0.014 A 
HETATM    3  C   UNL     1     -42.620 -54.507  14.323  1.00  0.00     0.049 A 
HETATM    4  C   UNL     1     -43.274 -53.855  13.275  1.00  0.00     0.103 A 
HETATM    5  N   UNL     1     -42.580 -53.008  12.485  1.00  0.00    -0.352 N 
ATOM      6  HN  UNL     1     -43.042 -52.520  11.717  1.00  0.00     0.166 HD
HETATM    7  C   UNL     1     -41.254 -52.814  12.726  1.00  0.00     0.098 A 
ENDROOT
BRANCH   1   8
HETATM    8  C   UNL     1     -39.074 -53.191  13.932  1.00  0.00     0.162 C 
BRANCH   8   9
HETATM    9  N   UNL     1     -38.775 -51.778  14.028  1.00  0.00    -0.355 N 
HETATM   10  C   UNL     1     -37.772 -51.205  13.273  1.00  0.00     0.240 C 
HETATM   11  O   UNL     1     -37.084 -51.853  12.483  1.00  0.00    -0.271 OA
HETATM   12  H   UNL     1     -39.293 -51.219  14.693  1.00  0.00     0.162 HD
BRANCH  10  13
HETATM   13  C   UNL     1     -37.582 -49.685  13.479  1.00  0.00     0.172 C 
HETATM   14  C   UNL     1     -38.359 -48.885  12.440  1.00  0.00     0.042 C 
BRANCH  13  15
HETATM   15  N   UNL     1     -38.018 -49.319  14.825  1.00  0.00    -0.348 N 
HETATM   16  C   UNL     1     -37.126 -49.037  15.826  1.00  0.00     0.214 C 
HETATM   17  O   UNL     1     -35.907 -49.064  15.671  1.00  0.00    -0.274 OA
HETATM   18  C   UNL     1     -37.749 -48.657  17.143  1.00  0.00     0.117 C 
HETATM   19  H   UNL     1     -39.014 -49.352  15.011  1.00  0.00     0.163 HD
ENDBRANCH  13  15
ENDBRANCH  10  13
ENDBRANCH   8   9
ENDBRANCH   1   8
BRANCH   4  20
HETATM   20  N   UNL     1     -44.634 -54.005  13.072  1.00  0.00    -0.363 N 
HETATM   21  C   UNL     1     -45.484 -52.898  12.612  1.00  0.00     0.150 C 
HETATM   22  C   UNL     1     -46.392 -52.398  13.748  1.00  0.00     0.187 C 
HETATM   23  O   UNL     1     -47.163 -53.465  14.319  1.00  0.00    -0.388 OA
HETATM   24  C   UNL     1     -46.285 -54.463  14.870  1.00  0.00     0.187 C 
HETATM   25  C   UNL     1     -45.363 -55.060  13.795  1.00  0.00     0.150 C 
ENDBRANCH   4  20
TORSDOF 5
ENDMDL
MODEL 7
REMARK VINA RESULT:      -5.9      3.042      4.512
REMARK  5 active torsions:
REMARK  status: ('A' for Active; 'I' for Inactive)
REMARK    1  A    between atoms: C_2  and  N_3 
REMARK    2  A    between atoms: C_2  and  C_7 
REMARK       I    between atoms: N_3  and  C_4 
REMARK       I    between atoms: C_7  and  N_9 
REMARK    3  A    between atoms: N_9  and  C_10 
REMARK    4  A    between atoms: C_10  and  C_11 
REMARK    5  A    between atoms: C_14  and  N_18 
ROOT
HETATM    1  C   UNL     1     -42.114 -53.424  13.008  1.00  0.00    -0.025 A 
HETATM    2  C   UNL     1     -42.211 -54.264  14.111  1.00  0.00     0.014 A 
HETATM    3  C   UNL     1     -43.414 -54.335  14.823  1.00  0.00     0.049 A 
HETATM    4  C   UNL     1     -44.526 -53.589  14.427  1.00  0.00     0.103 A 
HETATM    5  N   UNL     1     -44.430 -52.775  13.353  1.00  0.00    -0.352 N 
ATOM      6  HN  UNL     1     -45.231 -52.219  13.052  1.00  0.00     0.166 HD
HETATM    7  C   UNL     1     -43.250 -52.705  12.678  1.00  0.00     0.098 A 
ENDROOT
BRANCH   1   8
HETATM    8  C   UNL     1     -40.851 -53.316  12.205  1.00  0.00     0.162 C 
BRANCH   8   9
HETATM    9  N   UNL     1     -40.528 -51.938  11.901  1.00  0.00    -0.355 N 
HETATM   10  C   UNL     1     -39.454 -51.306  12.493  1.00  0.00     0.240 C 
HETATM   11  O   UNL     1     -38.716 -51.871  13.302  1.00  0.00    -0.271 OA
HETATM   12  H   UNL     1     -41.133 -51.429  11.270  1.00  0.00     0.162 HD
BRANCH  10  13
HETATM   13  C   UNL     1     -39.233 -49.840  12.058  1.00  0.00     0.172 C 
HETATM   14  C   UNL     1     -37.861 -49.653  11.421  1.00  0.00     0.042 C 
BRANCH  13  15
HETATM   15  N   UNL     1     -40.282 -49.448  11.118  1.00  0.00    -0.348 N 
HETATM   16  C   UNL     1     -40.927 -48.244  11.210  1.00  0.00     0.214 C 
HETATM   17  O   UNL     1     -40.675 -47.408  12.075  1.00  0.00    -0.274 OA
HETATM   18  C   UNL     1     -41.964 -47.996  10.147  1.00  0.00     0.117 C 
HETATM   19  H   UNL     1     -40.566 -50.139  10.432  1.00  0.00     0.163 HD
ENDBRANCH  13  15
ENDBRANCH  10  13
ENDBRANCH   8   9
ENDBRANCH   1   8
BRANCH   4  20
HETATM   20  N   UNL     1     -45.703 -53.613  15.152  1.00  0.00    -0.363 N 
HETATM   21  C   UNL     1     -46.898 -52.866  14.732  1.00  0.00     0.150 C 
HETATM   22  C   UNL     1     -47.143 -51.662  15.657  1.00  0.00     0.187 C 
HETATM   23  O   UNL     1     -47.214 -52.057  17.035  1.00  0.00    -0.388 OA
HETATM   24  C   UNL     1     -45.973 -52.668  17.433  1.00  0.00     0.187 C 
HETATM   25  C   UNL     1     -45.662 -53.916  16.592  1.00  0.00     0.150 C 
ENDBRANCH   4  20
TORSDOF 5
ENDMDL
MODEL 8
REMARK VINA RESULT:      -5.8      2.076      2.684
REMARK  5 active torsions:
REMARK  status: ('A' for Active; 'I' for Inactive)
REMARK    1  A    between atoms: C_2  and  N_3 
REMARK    2  A    between atoms: C_2  and  C_7 
REMARK       I    between atoms: N_3  and  C_4 
REMARK       I    between atoms: C_7  and  N_9 
REMARK    3  A    between atoms: N_9  and  C_10 
REMARK    4  A    between atoms: C_10  and  C_11 
REMARK    5  A    between atoms: C_14  and  N_18 
ROOT
HETATM    1  C   UNL     1     -41.435 -49.838  11.923  1.00  0.00    -0.025 A 
HETATM    2  C   UNL     1     -42.308 -50.139  12.963  1.00  0.00     0.014 A 
HETATM    3  C   UNL     1     -42.301 -51.421  13.523  1.00  0.00     0.049 A 
HETATM    4  C   UNL     1     -41.413 -52.398  13.067  1.00  0.00     0.103 A 
HETATM    5  N   UNL     1     -40.565 -52.103  12.059  1.00  0.00    -0.352 N 
ATOM      6  HN  UNL     1     -39.912 -52.805  11.710  1.00  0.00     0.166 HD
HETATM    7  C   UNL     1     -40.591 -50.856  11.513  1.00  0.00     0.098 A 
ENDROOT
BRANCH   1   8
HETATM    8  C   UNL     1     -41.396 -48.478  11.292  1.00  0.00     0.162 C 
BRANCH   8   9
HETATM    9  N   UNL     1     -42.320 -48.377  10.182  1.00  0.00    -0.355 N 
HETATM   10  C   UNL     1     -43.010 -47.210   9.928  1.00  0.00     0.240 C 
HETATM   11  O   UNL     1     -42.881 -46.199  10.621  1.00  0.00    -0.271 OA
HETATM   12  H   UNL     1     -42.482 -49.198   9.614  1.00  0.00     0.162 HD
BRANCH  10  13
HETATM   13  C   UNL     1     -43.951 -47.257   8.703  1.00  0.00     0.172 C 
HETATM   14  C   UNL     1     -43.213 -47.738   7.459  1.00  0.00     0.042 C 
BRANCH  13  15
HETATM   15  N   UNL     1     -45.080 -48.138   8.990  1.00  0.00    -0.348 N 
HETATM   16  C   UNL     1     -46.377 -47.699   8.936  1.00  0.00     0.214 C 
HETATM   17  O   UNL     1     -46.687 -46.548   8.639  1.00  0.00    -0.274 OA
HETATM   18  C   UNL     1     -47.415 -48.746   9.240  1.00  0.00     0.117 C 
HETATM   19  H   UNL     1     -44.863 -49.077   9.305  1.00  0.00     0.163 HD
ENDBRANCH  13  15
ENDBRANCH  10  13
ENDBRANCH   8   9
ENDBRANCH   1   8
BRANCH   4  20
HETATM   20  N   UNL     1     -41.433 -53.682  13.579  1.00  0.00    -0.363 N 
HETATM   21  C   UNL     1     -42.687 -54.410  13.820  1.00  0.00     0.150 C 
HETATM   22  C   UNL     1     -42.969 -54.529  15.327  1.00  0.00     0.187 C 
HETATM   23  O   UNL     1     -41.864 -55.118  16.028  1.00  0.00    -0.388 OA
HETATM   24  C   UNL     1     -40.691 -54.300  15.867  1.00  0.00     0.187 C 
HETATM   25  C   UNL     1     -40.299 -54.159  14.388  1.00  0.00     0.150 C 
ENDBRANCH   4  20
TORSDOF 5
ENDMDL
MODEL 9
REMARK VINA RESULT:      -5.5      2.324      2.957
REMARK  5 active torsions:
REMARK  status: ('A' for Active; 'I' for Inactive)
REMARK    1  A    between atoms: C_2  and  N_3 
REMARK    2  A    between atoms: C_2  and  C_7 
REMARK       I    between atoms: N_3  and  C_4 
REMARK       I    between atoms: C_7  and  N_9 
REMARK    3  A    between atoms: N_9  and  C_10 
REMARK    4  A    between atoms: C_10  and  C_11 
REMARK    5  A    between atoms: C_14  and  N_18 
ROOT
HETATM    1  C   UNL     1     -40.259 -49.596  12.706  1.00  0.00    -0.025 A 
HETATM    2  C   UNL     1     -41.028 -50.271  11.766  1.00  0.00     0.014 A 
HETATM    3  C   UNL     1     -42.049 -51.128  12.192  1.00  0.00     0.049 A 
HETATM    4  C   UNL     1     -42.321 -51.297  13.551  1.00  0.00     0.103 A 
HETATM    5  N   UNL     1     -41.574 -50.639  14.464  1.00  0.00    -0.352 N 
ATOM      6  HN  UNL     1     -41.756 -50.755  15.461  1.00  0.00     0.166 HD
HETATM    7  C   UNL     1     -40.575 -49.820  14.036  1.00  0.00     0.098 A 
ENDROOT
BRANCH   1   8
HETATM    8  C   UNL     1     -39.157 -48.661  12.304  1.00  0.00     0.162 C 
BRANCH   8   9
HETATM    9  N   UNL     1     -39.624 -47.655  11.373  1.00  0.00    -0.355 N 
HETATM   10  C   UNL     1     -40.167 -46.467  11.814  1.00  0.00     0.240 C 
HETATM   11  O   UNL     1     -40.284 -46.195  13.010  1.00  0.00    -0.271 OA
HETATM   12  H   UNL     1     -39.580 -47.858  10.383  1.00  0.00     0.162 HD
BRANCH  10  13
HETATM   13  C   UNL     1     -40.609 -45.493  10.698  1.00  0.00     0.172 C 
HETATM   14  C   UNL     1     -39.407 -44.939   9.941  1.00  0.00     0.042 C 
BRANCH  13  15
HETATM   15  N   UNL     1     -41.510 -46.183   9.778  1.00  0.00    -0.348 N 
HETATM   16  C   UNL     1     -42.761 -45.706   9.491  1.00  0.00     0.214 C 
HETATM   17  O   UNL     1     -43.216 -44.671   9.973  1.00  0.00    -0.274 OA
HETATM   18  C   UNL     1     -43.545 -46.532   8.506  1.00  0.00     0.117 C 
HETATM   19  H   UNL     1     -41.198 -47.076   9.412  1.00  0.00     0.163 HD
ENDBRANCH  13  15
ENDBRANCH  10  13
ENDBRANCH   8   9
ENDBRANCH   1   8
BRANCH   4  20
HETATM   20  N   UNL     1     -43.294 -52.180  13.984  1.00  0.00    -0.363 N 
HETATM   21  C   UNL     1     -43.157 -53.635  13.828  1.00  0.00     0.150 C 
HETATM   22  C   UNL     1     -44.116 -54.162  12.748  1.00  0.00     0.187 C 
HETATM   23  O   UNL     1     -45.473 -53.775  13.011  1.00  0.00    -0.388 OA
HETATM   24  C   UNL     1     -45.579 -52.340  13.027  1.00  0.00     0.187 C 
HETATM   25  C   UNL     1     -44.686 -51.720  14.113  1.00  0.00     0.150 C 
ENDBRANCH   4  20
TORSDOF 5
ENDMDL
