MODEL 1
REMARK VINA RESULT:      -5.2      0.000      0.000
REMARK  1 active torsions:
REMARK  status: ('A' for Active; 'I' for Inactive)
REMARK    1  A    between atoms: C_5  and  C_7 
ROOT
HETATM    1  C   UNL     1     -44.346 -46.772   9.254  1.00  0.00     0.102 A 
HETATM    2  N   UNL     1     -45.158 -45.807   8.875  1.00  0.00    -0.288 N 
ATOM      3  HN  UNL     1     -44.893 -44.842   8.678  1.00  0.00     0.188 HD
HETATM    4  N   UNL     1     -46.428 -46.330   8.791  1.00  0.00    -0.295 N 
ATOM      5  HN  UNL     1     -47.271 -45.824   8.522  1.00  0.00     0.187 HD
HETATM    6  C   UNL     1     -46.360 -47.598   9.120  1.00  0.00     0.198 A 
HETATM    7  N   UNL     1     -45.072 -47.922   9.416  1.00  0.00    -0.340 N 
HETATM    8  H   UNL     1     -44.722 -48.824   9.703  1.00  0.00     0.168 HD
ENDROOT
BRANCH   1   9
HETATM    9  C   UNL     1     -42.876 -46.685   9.501  1.00  0.00     0.083 C 
HETATM   10  C   UNL     1     -42.357 -47.976  10.158  1.00  0.00     0.281 C 
HETATM   11  N   UNL     1     -40.913 -47.909  10.423  1.00  0.00     0.084 N 
HETATM   12  C   UNL     1     -40.594 -46.789  11.310  1.00  0.00     0.269 C 
HETATM   13  H   UNL     1     -40.623 -48.778  10.873  1.00  0.00     0.315 HD
HETATM   14  C   UNL     1     -41.043 -45.457  10.710  1.00  0.00     0.031 C 
HETATM   15  C   UNL     1     -42.534 -45.471  10.376  1.00  0.00     0.016 C 
ENDBRANCH   1   9
TORSDOF 1
ENDMDL
MODEL 2
REMARK VINA RESULT:      -5.1      6.068      7.951
REMARK  1 active torsions:
REMARK  status: ('A' for Active; 'I' for Inactive)
REMARK    1  A    between atoms: C_5  and  C_7 
ROOT
HETATM    1  C   UNL     1     -42.548 -52.419  12.170  1.00  0.00     0.102 A 
HETATM    2  N   UNL     1     -41.470 -52.633  11.444  1.00  0.00    -0.288 N 
ATOM      3  HN  UNL     1     -41.180 -53.528  11.050  1.00  0.00     0.188 HD
HETATM    4  N   UNL     1     -40.805 -51.436  11.309  1.00  0.00    -0.295 N 
ATOM      5  HN  UNL     1     -39.935 -51.285  10.799  1.00  0.00     0.187 HD
HETATM    6  C   UNL     1     -41.492 -50.523  11.953  1.00  0.00     0.198 A 
HETATM    7  N   UNL     1     -42.596 -51.093  12.508  1.00  0.00    -0.340 N 
HETATM    8  H   UNL     1     -43.304 -50.634  13.062  1.00  0.00     0.168 HD
ENDROOT
BRANCH   1   9
HETATM    9  C   UNL     1     -43.573 -53.416  12.601  1.00  0.00     0.083 C 
HETATM   10  C   UNL     1     -44.933 -52.734  12.828  1.00  0.00     0.281 C 
HETATM   11  N   UNL     1     -45.956 -53.695  13.265  1.00  0.00     0.084 N 
HETATM   12  C   UNL     1     -45.561 -54.349  14.515  1.00  0.00     0.269 C 
HETATM   13  H   UNL     1     -46.831 -53.192  13.419  1.00  0.00     0.315 HD
HETATM   14  C   UNL     1     -44.232 -55.086  14.363  1.00  0.00     0.031 C 
HETATM   15  C   UNL     1     -43.128 -54.150  13.873  1.00  0.00     0.016 C 
ENDBRANCH   1   9
TORSDOF 1
ENDMDL
MODEL 3
REMARK VINA RESULT:      -5.0      6.893      8.573
REMARK  1 active torsions:
REMARK  status: ('A' for Active; 'I' for Inactive)
REMARK    1  A    between atoms: C_5  and  C_7 
ROOT
HETATM    1  C   UNL     1     -42.992 -53.387  12.437  1.00  0.00     0.102 A 
HETATM    2  N   UNL     1     -42.553 -52.626  11.455  1.00  0.00    -0.288 N 
ATOM      3  HN  UNL     1     -43.130 -52.142  10.768  1.00  0.00     0.188 HD
HETATM    4  N   UNL     1     -41.179 -52.600  11.521  1.00  0.00    -0.295 N 
ATOM      5  HN  UNL     1     -40.556 -52.093  10.892  1.00  0.00     0.187 HD
HETATM    6  C   UNL     1     -40.814 -53.343  12.539  1.00  0.00     0.198 A 
HETATM    7  N   UNL     1     -41.918 -53.856  13.145  1.00  0.00    -0.340 N 
HETATM    8  H   UNL     1     -41.942 -54.464  13.950  1.00  0.00     0.168 HD
ENDROOT
BRANCH   1   9
HETATM    9  C   UNL     1     -44.408 -53.734  12.762  1.00  0.00     0.083 C 
HETATM   10  C   UNL     1     -45.251 -52.460  12.946  1.00  0.00     0.281 C 
HETATM   11  N   UNL     1     -46.647 -52.776  13.279  1.00  0.00     0.084 N 
HETATM   12  C   UNL     1     -46.728 -53.557  14.516  1.00  0.00     0.269 C 
HETATM   13  H   UNL     1     -47.158 -51.901  13.409  1.00  0.00     0.315 HD
HETATM   14  C   UNL     1     -45.944 -54.864  14.401  1.00  0.00     0.031 C 
HETATM   15  C   UNL     1     -44.487 -54.609  14.020  1.00  0.00     0.016 C 
ENDBRANCH   1   9
TORSDOF 1
ENDMDL
MODEL 4
REMARK VINA RESULT:      -4.7      6.272      7.793
REMARK  1 active torsions:
REMARK  status: ('A' for Active; 'I' for Inactive)
REMARK    1  A    between atoms: C_5  and  C_7 
ROOT
HETATM    1  C   UNL     1     -42.781 -52.213  12.939  1.00  0.00     0.102 A 
HETATM    2  N   UNL     1     -42.699 -52.689  11.713  1.00  0.00    -0.288 N 
ATOM      3  HN  UNL     1     -43.458 -53.115  11.183  1.00  0.00     0.188 HD
HETATM    4  N   UNL     1     -41.407 -52.509  11.275  1.00  0.00    -0.295 N 
ATOM      5  HN  UNL     1     -41.038 -52.778  10.363  1.00  0.00     0.187 HD
HETATM    6  C   UNL     1     -40.735 -51.929  12.240  1.00  0.00     0.198 A 
HETATM    7  N   UNL     1     -41.556 -51.721  13.304  1.00  0.00    -0.340 N 
HETATM    8  H   UNL     1     -41.313 -51.297  14.187  1.00  0.00     0.168 HD
ENDROOT
BRANCH   1   9
HETATM    9  C   UNL     1     -43.975 -52.201  13.836  1.00  0.00     0.083 C 
HETATM   10  C   UNL     1     -44.447 -53.635  14.132  1.00  0.00     0.281 C 
HETATM   11  N   UNL     1     -45.629 -53.648  15.005  1.00  0.00     0.084 N 
HETATM   12  C   UNL     1     -46.743 -52.921  14.391  1.00  0.00     0.269 C 
HETATM   13  H   UNL     1     -45.913 -54.617  15.156  1.00  0.00     0.315 HD
HETATM   14  C   UNL     1     -46.367 -51.469  14.099  1.00  0.00     0.031 C 
HETATM   15  C   UNL     1     -45.118 -51.382  13.223  1.00  0.00     0.016 C 
ENDBRANCH   1   9
TORSDOF 1
ENDMDL
MODEL 5
REMARK VINA RESULT:      -4.4      7.363      9.674
REMARK  1 active torsions:
REMARK  status: ('A' for Active; 'I' for Inactive)
REMARK    1  A    between atoms: C_5  and  C_7 
ROOT
HETATM    1  C   UNL     1     -40.180 -54.562  14.051  1.00  0.00     0.102 A 
HETATM    2  N   UNL     1     -38.968 -54.956  13.715  1.00  0.00    -0.288 N 
ATOM      3  HN  UNL     1     -38.620 -55.080  12.765  1.00  0.00     0.188 HD
HETATM    4  N   UNL     1     -38.255 -55.169  14.872  1.00  0.00    -0.295 N 
ATOM      5  HN  UNL     1     -37.286 -55.479  14.933  1.00  0.00     0.187 HD
HETATM    6  C   UNL     1     -39.046 -54.900  15.884  1.00  0.00     0.198 A 
HETATM    7  N   UNL     1     -40.264 -54.513  15.417  1.00  0.00    -0.340 N 
HETATM    8  H   UNL     1     -41.069 -54.249  15.965  1.00  0.00     0.168 HD
ENDROOT
BRANCH   1   9
HETATM    9  C   UNL     1     -41.318 -54.231  13.143  1.00  0.00     0.083 C 
HETATM   10  C   UNL     1     -41.164 -52.809  12.576  1.00  0.00     0.281 C 
HETATM   11  N   UNL     1     -42.280 -52.454  11.688  1.00  0.00     0.084 N 
HETATM   12  C   UNL     1     -43.558 -52.523  12.400  1.00  0.00     0.269 C 
HETATM   13  H   UNL     1     -42.141 -51.500  11.354  1.00  0.00     0.315 HD
HETATM   14  C   UNL     1     -43.807 -53.921  12.964  1.00  0.00     0.031 C 
HETATM   15  C   UNL     1     -42.662 -54.368  13.871  1.00  0.00     0.016 C 
ENDBRANCH   1   9
TORSDOF 1
ENDMDL
MODEL 6
REMARK VINA RESULT:      -4.4      4.624      6.137
REMARK  1 active torsions:
REMARK  status: ('A' for Active; 'I' for Inactive)
REMARK    1  A    between atoms: C_5  and  C_7 
ROOT
HETATM    1  C   UNL     1     -41.190 -50.332  11.557  1.00  0.00     0.102 A 
HETATM    2  N   UNL     1     -42.406 -49.925  11.857  1.00  0.00    -0.288 N 
ATOM      3  HN  UNL     1     -43.058 -50.394  12.486  1.00  0.00     0.188 HD
HETATM    4  N   UNL     1     -42.642 -48.754  11.175  1.00  0.00    -0.295 N 
ATOM      5  HN  UNL     1     -43.499 -48.201  11.206  1.00  0.00     0.187 HD
HETATM    6  C   UNL     1     -41.567 -48.476  10.477  1.00  0.00     0.198 A 
HETATM    7  N   UNL     1     -40.628 -49.437  10.686  1.00  0.00    -0.340 N 
HETATM    8  H   UNL     1     -39.706 -49.485  10.279  1.00  0.00     0.168 HD
ENDROOT
BRANCH   1   9
HETATM    9  C   UNL     1     -40.493 -51.563  12.036  1.00  0.00     0.083 C 
HETATM   10  C   UNL     1     -41.414 -52.790  11.916  1.00  0.00     0.281 C 
HETATM   11  N   UNL     1     -40.753 -54.013  12.394  1.00  0.00     0.084 N 
HETATM   12  C   UNL     1     -40.355 -53.880  13.797  1.00  0.00     0.269 C 
HETATM   13  H   UNL     1     -41.408 -54.792  12.311  1.00  0.00     0.315 HD
HETATM   14  C   UNL     1     -39.404 -52.701  13.997  1.00  0.00     0.031 C 
HETATM   15  C   UNL     1     -40.016 -51.398  13.485  1.00  0.00     0.016 C 
ENDBRANCH   1   9
TORSDOF 1
ENDMDL
MODEL 7
REMARK VINA RESULT:      -4.3      2.818      4.603
REMARK  1 active torsions:
REMARK  status: ('A' for Active; 'I' for Inactive)
REMARK    1  A    between atoms: C_5  and  C_7 
ROOT
HETATM    1  C   UNL     1     -40.788 -48.049  11.373  1.00  0.00     0.102 A 
HETATM    2  N   UNL     1     -41.207 -48.778  10.358  1.00  0.00    -0.288 N 
ATOM      3  HN  UNL     1     -41.923 -48.510   9.683  1.00  0.00     0.188 HD
HETATM    4  N   UNL     1     -40.509 -49.963  10.370  1.00  0.00    -0.295 N 
ATOM      5  HN  UNL     1     -40.614 -50.730   9.706  1.00  0.00     0.187 HD
HETATM    6  C   UNL     1     -39.682 -49.929  11.387  1.00  0.00     0.198 A 
HETATM    7  N   UNL     1     -39.820 -48.747  12.045  1.00  0.00    -0.340 N 
HETATM    8  H   UNL     1     -39.316 -48.445  12.866  1.00  0.00     0.168 HD
ENDROOT
BRANCH   1   9
HETATM    9  C   UNL     1     -41.263 -46.695  11.784  1.00  0.00     0.083 C 
HETATM   10  C   UNL     1     -42.356 -46.188  10.827  1.00  0.00     0.281 C 
HETATM   11  N   UNL     1     -42.831 -44.850  11.204  1.00  0.00     0.084 N 
HETATM   12  C   UNL     1     -41.732 -43.881  11.192  1.00  0.00     0.269 C 
HETATM   13  H   UNL     1     -43.539 -44.552  10.531  1.00  0.00     0.315 HD
HETATM   14  C   UNL     1     -40.616 -44.292  12.151  1.00  0.00     0.031 C 
HETATM   15  C   UNL     1     -40.100 -45.695  11.836  1.00  0.00     0.016 C 
ENDBRANCH   1   9
TORSDOF 1
ENDMDL
MODEL 8
REMARK VINA RESULT:      -4.3      3.025      4.408
REMARK  1 active torsions:
REMARK  status: ('A' for Active; 'I' for Inactive)
REMARK    1  A    between atoms: C_5  and  C_7 
ROOT
HETATM    1  C   UNL     1     -41.220 -48.491  10.703  1.00  0.00     0.102 A 
HETATM    2  N   UNL     1     -40.899 -47.270  10.329  1.00  0.00    -0.288 N 
ATOM      3  HN  UNL     1     -39.952 -46.902  10.232  1.00  0.00     0.188 HD
HETATM    4  N   UNL     1     -42.064 -46.579  10.090  1.00  0.00    -0.295 N 
ATOM      5  HN  UNL     1     -42.136 -45.608   9.786  1.00  0.00     0.187 HD
HETATM    6  C   UNL     1     -43.065 -47.392  10.323  1.00  0.00     0.198 A 
HETATM    7  N   UNL     1     -42.585 -48.605  10.709  1.00  0.00    -0.340 N 
HETATM    8  H   UNL     1     -43.124 -49.422  10.955  1.00  0.00     0.168 HD
ENDROOT
BRANCH   1   9
HETATM    9  C   UNL     1     -40.300 -49.602  11.088  1.00  0.00     0.083 C 
HETATM   10  C   UNL     1     -41.054 -50.682  11.884  1.00  0.00     0.281 C 
HETATM   11  N   UNL     1     -40.165 -51.781  12.285  1.00  0.00     0.084 N 
HETATM   12  C   UNL     1     -39.065 -51.289  13.118  1.00  0.00     0.269 C 
HETATM   13  H   UNL     1     -40.706 -52.460  12.823  1.00  0.00     0.315 HD
HETATM   14  C   UNL     1     -38.238 -50.235  12.383  1.00  0.00     0.031 C 
HETATM   15  C   UNL     1     -39.111 -49.076  11.904  1.00  0.00     0.016 C 
ENDBRANCH   1   9
TORSDOF 1
ENDMDL
MODEL 9
REMARK VINA RESULT:      -4.3      4.442      6.141
REMARK  1 active torsions:
REMARK  status: ('A' for Active; 'I' for Inactive)
REMARK    1  A    between atoms: C_5  and  C_7 
ROOT
HETATM    1  C   UNL     1     -40.824 -51.691  11.935  1.00  0.00     0.102 A 
HETATM    2  N   UNL     1     -41.183 -52.730  11.210  1.00  0.00    -0.288 N 
ATOM      3  HN  UNL     1     -41.523 -52.702  10.249  1.00  0.00     0.188 HD
HETATM    4  N   UNL     1     -41.018 -53.860  11.977  1.00  0.00    -0.295 N 
ATOM      5  HN  UNL     1     -41.214 -54.818  11.687  1.00  0.00     0.187 HD
HETATM    6  C   UNL     1     -40.562 -53.484  13.148  1.00  0.00     0.198 A 
HETATM    7  N   UNL     1     -40.422 -52.131  13.168  1.00  0.00    -0.340 N 
HETATM    8  H   UNL     1     -40.095 -51.565  13.936  1.00  0.00     0.168 HD
ENDROOT
BRANCH   1   9
HETATM    9  C   UNL     1     -40.846 -50.250  11.542  1.00  0.00     0.083 C 
HETATM   10  C   UNL     1     -39.447 -49.626  11.685  1.00  0.00     0.281 C 
HETATM   11  N   UNL     1     -39.446 -48.204  11.315  1.00  0.00     0.084 N 
HETATM   12  C   UNL     1     -40.371 -47.442  12.159  1.00  0.00     0.269 C 
HETATM   13  H   UNL     1     -38.503 -47.833  11.443  1.00  0.00     0.315 HD
HETATM   14  C   UNL     1     -41.798 -47.976  12.045  1.00  0.00     0.031 C 
HETATM   15  C   UNL     1     -41.864 -49.466  12.381  1.00  0.00     0.016 C 
ENDBRANCH   1   9
TORSDOF 1
ENDMDL
