MODEL 1
REMARK VINA RESULT:      -5.9      0.000      0.000
REMARK  2 active torsions:
REMARK  status: ('A' for Active; 'I' for Inactive)
REMARK    1  A    between atoms: C_7  and  N_8 
REMARK       I    between atoms: N_8  and  C_9 
REMARK       I    between atoms: C_9  and  N_11 
REMARK    2  A    between atoms: N_11  and  C_12 
ROOT
HETATM    1  N   UNL     1     -41.261 -45.818  11.034  1.00  0.00    -0.338 N 
HETATM    2  C   UNL     1     -40.712 -47.060  10.949  1.00  0.00     0.322 C 
HETATM    3  O   UNL     1     -39.628 -47.362  11.445  1.00  0.00    -0.247 OA
HETATM    4  N   UNL     1     -41.456 -48.007  10.303  1.00  0.00    -0.293 N 
HETATM    5  H   UNL     1     -42.206 -45.721  10.673  1.00  0.00     0.164 HD
HETATM    6  H   UNL     1     -41.076 -48.941  10.346  1.00  0.00     0.172 HD
ENDROOT
BRANCH   1   7
HETATM    7  C   UNL     1     -40.714 -44.715  11.790  1.00  0.00     0.089 C 
HETATM    8  C   UNL     1     -41.131 -44.757  13.277  1.00  0.00     0.004 C 
HETATM    9  C   UNL     1     -42.652 -44.786  13.494  1.00  0.00     0.012 C 
HETATM   10  C   UNL     1     -40.493 -43.565  14.008  1.00  0.00     0.006 C 
HETATM   11  C   UNL     1     -40.822 -42.220  13.359  1.00  0.00     0.001 C 
HETATM   12  C   UNL     1     -40.499 -42.202  11.866  1.00  0.00     0.002 C 
HETATM   13  C   UNL     1     -41.109 -43.386  11.129  1.00  0.00     0.026 C 
ENDBRANCH   1   7
BRANCH   4  14
HETATM   14  C   UNL     1     -42.668 -47.821   9.669  1.00  0.00     0.132 A 
HETATM   15  C   UNL     1     -43.892 -47.525  10.312  1.00  0.00     0.084 A 
HETATM   16  C   UNL     1     -44.791 -47.368   9.283  1.00  0.00     0.076 A 
HETATM   17  C   UNL     1     -46.210 -46.994   9.183  1.00  0.00     0.079 C 
HETATM   18  O   UNL     1     -44.167 -47.607   8.105  1.00  0.00    -0.241 OA
HETATM   19  N   UNL     1     -42.842 -47.878   8.342  1.00  0.00    -0.245 N 
ATOM     20  HN  UNL     1     -42.129 -48.083   7.642  1.00  0.00     0.196 HD
ENDBRANCH   4  14
TORSDOF 2
ENDMDL
MODEL 2
REMARK VINA RESULT:      -5.9      5.463      7.892
REMARK  2 active torsions:
REMARK  status: ('A' for Active; 'I' for Inactive)
REMARK    1  A    between atoms: C_7  and  N_8 
REMARK       I    between atoms: N_8  and  C_9 
REMARK       I    between atoms: C_9  and  N_11 
REMARK    2  A    between atoms: N_11  and  C_12 
ROOT
HETATM    1  N   UNL     1     -41.837 -52.334  12.588  1.00  0.00    -0.338 N 
HETATM    2  C   UNL     1     -40.478 -52.364  12.543  1.00  0.00     0.322 C 
HETATM    3  O   UNL     1     -39.805 -53.327  12.907  1.00  0.00    -0.247 OA
HETATM    4  N   UNL     1     -39.866 -51.260  12.019  1.00  0.00    -0.293 N 
HETATM    5  H   UNL     1     -42.281 -51.525  12.164  1.00  0.00     0.164 HD
HETATM    6  H   UNL     1     -38.868 -51.351  11.899  1.00  0.00     0.172 HD
ENDROOT
BRANCH   1   7
HETATM    7  C   UNL     1     -42.684 -53.442  12.969  1.00  0.00     0.089 C 
HETATM    8  C   UNL     1     -44.164 -53.205  12.593  1.00  0.00     0.004 C 
HETATM    9  C   UNL     1     -44.756 -51.917  13.186  1.00  0.00     0.012 C 
HETATM   10  C   UNL     1     -44.987 -54.434  13.014  1.00  0.00     0.006 C 
HETATM   11  C   UNL     1     -44.820 -54.788  14.492  1.00  0.00     0.001 C 
HETATM   12  C   UNL     1     -43.353 -54.931  14.892  1.00  0.00     0.002 C 
HETATM   13  C   UNL     1     -42.519 -53.730  14.468  1.00  0.00     0.026 C 
ENDBRANCH   1   7
BRANCH   4  14
HETATM   14  C   UNL     1     -40.474 -50.095  11.598  1.00  0.00     0.132 A 
HETATM   15  C   UNL     1     -40.972 -49.078  12.446  1.00  0.00     0.084 A 
HETATM   16  C   UNL     1     -41.421 -48.103  11.585  1.00  0.00     0.076 A 
HETATM   17  C   UNL     1     -41.994 -46.757  11.739  1.00  0.00     0.079 C 
HETATM   18  O   UNL     1     -41.259 -48.525  10.309  1.00  0.00    -0.241 OA
HETATM   19  N   UNL     1     -40.659 -49.760  10.314  1.00  0.00    -0.245 N 
ATOM     20  HN  UNL     1     -40.402 -50.315   9.497  1.00  0.00     0.196 HD
ENDBRANCH   4  14
TORSDOF 2
ENDMDL
MODEL 3
REMARK VINA RESULT:      -5.9      7.150      9.068
REMARK  2 active torsions:
REMARK  status: ('A' for Active; 'I' for Inactive)
REMARK    1  A    between atoms: C_7  and  N_8 
REMARK       I    between atoms: N_8  and  C_9 
REMARK       I    between atoms: C_9  and  N_11 
REMARK    2  A    between atoms: N_11  and  C_12 
ROOT
HETATM    1  N   UNL     1     -44.207 -53.094  13.951  1.00  0.00    -0.338 N 
HETATM    2  C   UNL     1     -44.345 -53.120  12.598  1.00  0.00     0.322 C 
HETATM    3  O   UNL     1     -45.432 -53.191  12.025  1.00  0.00    -0.247 OA
HETATM    4  N   UNL     1     -43.193 -53.018  11.869  1.00  0.00    -0.293 N 
HETATM    5  H   UNL     1     -43.267 -52.929  14.301  1.00  0.00     0.164 HD
HETATM    6  H   UNL     1     -43.333 -52.933  10.873  1.00  0.00     0.172 HD
ENDROOT
BRANCH   1   7
HETATM    7  C   UNL     1     -45.294 -53.046  14.900  1.00  0.00     0.089 C 
HETATM    8  C   UNL     1     -45.860 -51.619  15.074  1.00  0.00     0.004 C 
HETATM    9  C   UNL     1     -44.807 -50.581  15.492  1.00  0.00     0.012 C 
HETATM   10  C   UNL     1     -47.022 -51.663  16.081  1.00  0.00     0.006 C 
HETATM   11  C   UNL     1     -46.629 -52.290  17.419  1.00  0.00     0.001 C 
HETATM   12  C   UNL     1     -45.982 -53.663  17.249  1.00  0.00     0.002 C 
HETATM   13  C   UNL     1     -44.841 -53.642  16.240  1.00  0.00     0.026 C 
ENDBRANCH   1   7
BRANCH   4  14
HETATM   14  C   UNL     1     -41.904 -52.963  12.358  1.00  0.00     0.132 A 
HETATM   15  C   UNL     1     -41.278 -51.812  12.891  1.00  0.00     0.084 A 
HETATM   16  C   UNL     1     -40.041 -52.253  13.302  1.00  0.00     0.076 A 
HETATM   17  C   UNL     1     -38.892 -51.648  13.992  1.00  0.00     0.079 C 
HETATM   18  O   UNL     1     -39.908 -53.564  12.987  1.00  0.00    -0.241 OA
HETATM   19  N   UNL     1     -41.071 -54.011  12.410  1.00  0.00    -0.245 N 
ATOM     20  HN  UNL     1     -41.263 -54.958  12.085  1.00  0.00     0.196 HD
ENDBRANCH   4  14
TORSDOF 2
ENDMDL
MODEL 4
REMARK VINA RESULT:      -5.9      2.652      3.997
REMARK  2 active torsions:
REMARK  status: ('A' for Active; 'I' for Inactive)
REMARK    1  A    between atoms: C_7  and  N_8 
REMARK       I    between atoms: N_8  and  C_9 
REMARK       I    between atoms: C_9  and  N_11 
REMARK    2  A    between atoms: N_11  and  C_12 
ROOT
HETATM    1  N   UNL     1     -41.133 -47.577  10.593  1.00  0.00    -0.338 N 
HETATM    2  C   UNL     1     -41.222 -46.270  10.230  1.00  0.00     0.322 C 
HETATM    3  O   UNL     1     -40.422 -45.407  10.587  1.00  0.00    -0.247 OA
HETATM    4  N   UNL     1     -42.248 -45.945   9.387  1.00  0.00    -0.293 N 
HETATM    5  H   UNL     1     -41.793 -48.211  10.151  1.00  0.00     0.164 HD
HETATM    6  H   UNL     1     -42.229 -44.994   9.050  1.00  0.00     0.172 HD
ENDROOT
BRANCH   1   7
HETATM    7  C   UNL     1     -40.053 -48.159  11.357  1.00  0.00     0.089 C 
HETATM    8  C   UNL     1     -40.096 -49.704  11.352  1.00  0.00     0.004 C 
HETATM    9  C   UNL     1     -41.421 -50.289  11.866  1.00  0.00     0.012 C 
HETATM   10  C   UNL     1     -38.906 -50.238  12.166  1.00  0.00     0.006 C 
HETATM   11  C   UNL     1     -38.849 -49.671  13.584  1.00  0.00     0.001 C 
HETATM   12  C   UNL     1     -38.901 -48.145  13.601  1.00  0.00     0.002 C 
HETATM   13  C   UNL     1     -40.064 -47.597  12.785  1.00  0.00     0.026 C 
ENDBRANCH   1   7
BRANCH   4  14
HETATM   14  C   UNL     1     -43.240 -46.785   8.924  1.00  0.00     0.132 A 
HETATM   15  C   UNL     1     -44.497 -46.987   9.541  1.00  0.00     0.084 A 
HETATM   16  C   UNL     1     -45.160 -47.846   8.695  1.00  0.00     0.076 A 
HETATM   17  C   UNL     1     -46.506 -48.436   8.650  1.00  0.00     0.079 C 
HETATM   18  O   UNL     1     -44.341 -48.184   7.670  1.00  0.00    -0.241 OA
HETATM   19  N   UNL     1     -43.149 -47.515   7.804  1.00  0.00    -0.245 N 
ATOM     20  HN  UNL     1     -42.350 -47.565   7.172  1.00  0.00     0.196 HD
ENDBRANCH   4  14
TORSDOF 2
ENDMDL
MODEL 5
REMARK VINA RESULT:      -5.6      4.783      5.805
REMARK  2 active torsions:
REMARK  status: ('A' for Active; 'I' for Inactive)
REMARK    1  A    between atoms: C_7  and  N_8 
REMARK       I    between atoms: N_8  and  C_9 
REMARK       I    between atoms: C_9  and  N_11 
REMARK    2  A    between atoms: N_11  and  C_12 
ROOT
HETATM    1  N   UNL     1     -42.098 -50.955  12.013  1.00  0.00    -0.338 N 
HETATM    2  C   UNL     1     -41.818 -52.285  12.045  1.00  0.00     0.322 C 
HETATM    3  O   UNL     1     -40.729 -52.761  11.726  1.00  0.00    -0.247 OA
HETATM    4  N   UNL     1     -42.814 -53.102  12.502  1.00  0.00    -0.293 N 
HETATM    5  H   UNL     1     -42.996 -50.677  12.398  1.00  0.00     0.164 HD
HETATM    6  H   UNL     1     -42.545 -54.069  12.616  1.00  0.00     0.172 HD
ENDROOT
BRANCH   1   7
HETATM    7  C   UNL     1     -41.149 -49.910  11.702  1.00  0.00     0.089 C 
HETATM    8  C   UNL     1     -40.178 -49.631  12.871  1.00  0.00     0.004 C 
HETATM    9  C   UNL     1     -40.881 -49.269  14.188  1.00  0.00     0.012 C 
HETATM   10  C   UNL     1     -39.196 -48.526  12.449  1.00  0.00     0.006 C 
HETATM   11  C   UNL     1     -39.896 -47.254  11.970  1.00  0.00     0.001 C 
HETATM   12  C   UNL     1     -40.927 -47.535  10.879  1.00  0.00     0.002 C 
HETATM   13  C   UNL     1     -41.898 -48.640  11.272  1.00  0.00     0.026 C 
ENDBRANCH   1   7
BRANCH   4  14
HETATM   14  C   UNL     1     -44.092 -52.730  12.866  1.00  0.00     0.132 A 
HETATM   15  C   UNL     1     -44.489 -52.320  14.161  1.00  0.00     0.084 A 
HETATM   16  C   UNL     1     -45.818 -51.992  14.024  1.00  0.00     0.076 A 
HETATM   17  C   UNL     1     -46.854 -51.439  14.909  1.00  0.00     0.079 C 
HETATM   18  O   UNL     1     -46.210 -52.241  12.751  1.00  0.00    -0.241 OA
HETATM   19  N   UNL     1     -45.134 -52.688  12.026  1.00  0.00    -0.245 N 
ATOM     20  HN  UNL     1     -45.130 -52.940  11.037  1.00  0.00     0.196 HD
ENDBRANCH   4  14
TORSDOF 2
ENDMDL
MODEL 6
REMARK VINA RESULT:      -5.6      6.049      8.319
REMARK  2 active torsions:
REMARK  status: ('A' for Active; 'I' for Inactive)
REMARK    1  A    between atoms: C_7  and  N_8 
REMARK       I    between atoms: N_8  and  C_9 
REMARK       I    between atoms: C_9  and  N_11 
REMARK    2  A    between atoms: N_11  and  C_12 
ROOT
HETATM    1  N   UNL     1     -43.096 -52.504  14.088  1.00  0.00    -0.338 N 
HETATM    2  C   UNL     1     -42.393 -53.634  13.808  1.00  0.00     0.322 C 
HETATM    3  O   UNL     1     -42.716 -54.753  14.204  1.00  0.00    -0.247 OA
HETATM    4  N   UNL     1     -41.297 -53.482  13.006  1.00  0.00    -0.293 N 
HETATM    5  H   UNL     1     -42.785 -51.657  13.619  1.00  0.00     0.164 HD
HETATM    6  H   UNL     1     -40.857 -54.348  12.729  1.00  0.00     0.172 HD
ENDROOT
BRANCH   1   7
HETATM    7  C   UNL     1     -44.356 -52.457  14.793  1.00  0.00     0.089 C 
HETATM    8  C   UNL     1     -45.527 -52.990  13.938  1.00  0.00     0.004 C 
HETATM    9  C   UNL     1     -45.697 -52.261  12.596  1.00  0.00     0.012 C 
HETATM   10  C   UNL     1     -46.820 -52.924  14.768  1.00  0.00     0.006 C 
HETATM   11  C   UNL     1     -47.104 -51.528  15.322  1.00  0.00     0.001 C 
HETATM   12  C   UNL     1     -45.914 -50.955  16.090  1.00  0.00     0.002 C 
HETATM   13  C   UNL     1     -44.621 -51.029  15.289  1.00  0.00     0.026 C 
ENDBRANCH   1   7
BRANCH   4  14
HETATM   14  C   UNL     1     -40.788 -52.300  12.510  1.00  0.00     0.132 A 
HETATM   15  C   UNL     1     -39.744 -51.547  13.097  1.00  0.00     0.084 A 
HETATM   16  C   UNL     1     -39.543 -50.501  12.225  1.00  0.00     0.076 A 
HETATM   17  C   UNL     1     -38.600 -49.376  12.142  1.00  0.00     0.079 C 
HETATM   18  O   UNL     1     -40.442 -50.584  11.214  1.00  0.00    -0.241 OA
HETATM   19  N   UNL     1     -41.209 -51.710  11.383  1.00  0.00    -0.245 N 
ATOM     20  HN  UNL     1     -41.957 -52.034  10.769  1.00  0.00     0.196 HD
ENDBRANCH   4  14
TORSDOF 2
ENDMDL
MODEL 7
REMARK VINA RESULT:      -5.6      6.120      6.903
REMARK  2 active torsions:
REMARK  status: ('A' for Active; 'I' for Inactive)
REMARK    1  A    between atoms: C_7  and  N_8 
REMARK       I    between atoms: N_8  and  C_9 
REMARK       I    between atoms: C_9  and  N_11 
REMARK    2  A    between atoms: N_11  and  C_12 
ROOT
HETATM    1  N   UNL     1     -40.584 -52.330  12.934  1.00  0.00    -0.338 N 
HETATM    2  C   UNL     1     -40.563 -53.646  13.274  1.00  0.00     0.322 C 
HETATM    3  O   UNL     1     -39.530 -54.282  13.480  1.00  0.00    -0.247 OA
HETATM    4  N   UNL     1     -41.780 -54.251  13.427  1.00  0.00    -0.293 N 
HETATM    5  H   UNL     1     -41.500 -51.893  12.892  1.00  0.00     0.164 HD
HETATM    6  H   UNL     1     -41.738 -55.195  13.781  1.00  0.00     0.172 HD
ENDROOT
BRANCH   1   7
HETATM    7  C   UNL     1     -39.426 -51.469  12.861  1.00  0.00     0.089 C 
HETATM    8  C   UNL     1     -38.976 -50.970  14.253  1.00  0.00     0.004 C 
HETATM    9  C   UNL     1     -40.077 -50.236  15.034  1.00  0.00     0.012 C 
HETATM   10  C   UNL     1     -37.732 -50.082  14.086  1.00  0.00     0.006 C 
HETATM   11  C   UNL     1     -37.949 -48.928  13.106  1.00  0.00     0.001 C 
HETATM   12  C   UNL     1     -38.484 -49.404  11.758  1.00  0.00     0.002 C 
HETATM   13  C   UNL     1     -39.706 -50.301  11.905  1.00  0.00     0.026 C 
ENDBRANCH   1   7
BRANCH   4  14
HETATM   14  C   UNL     1     -43.020 -53.689  13.203  1.00  0.00     0.132 A 
HETATM   15  C   UNL     1     -43.695 -52.815  14.088  1.00  0.00     0.084 A 
HETATM   16  C   UNL     1     -44.847 -52.471  13.417  1.00  0.00     0.076 A 
HETATM   17  C   UNL     1     -45.978 -51.569  13.680  1.00  0.00     0.079 C 
HETATM   18  O   UNL     1     -44.891 -53.135  12.237  1.00  0.00    -0.241 OA
HETATM   19  N   UNL     1     -43.749 -53.884  12.096  1.00  0.00    -0.245 N 
ATOM     20  HN  UNL     1     -43.504 -54.474  11.302  1.00  0.00     0.196 HD
ENDBRANCH   4  14
TORSDOF 2
ENDMDL
MODEL 8
REMARK VINA RESULT:      -5.5      7.797      9.278
REMARK  2 active torsions:
REMARK  status: ('A' for Active; 'I' for Inactive)
REMARK    1  A    between atoms: C_7  and  N_8 
REMARK       I    between atoms: N_8  and  C_9 
REMARK       I    between atoms: C_9  and  N_11 
REMARK    2  A    between atoms: N_11  and  C_12 
ROOT
HETATM    1  N   UNL     1     -43.898 -53.058  13.972  1.00  0.00    -0.338 N 
HETATM    2  C   UNL     1     -44.891 -53.744  13.344  1.00  0.00     0.322 C 
HETATM    3  O   UNL     1     -44.737 -54.346  12.283  1.00  0.00    -0.247 OA
HETATM    4  N   UNL     1     -46.100 -53.777  13.981  1.00  0.00    -0.293 N 
HETATM    5  H   UNL     1     -44.122 -52.690  14.893  1.00  0.00     0.164 HD
HETATM    6  H   UNL     1     -46.786 -54.379  13.548  1.00  0.00     0.172 HD
ENDROOT
BRANCH   1   7
HETATM    7  C   UNL     1     -42.517 -53.015  13.549  1.00  0.00     0.089 C 
HETATM    8  C   UNL     1     -41.746 -54.298  13.932  1.00  0.00     0.004 C 
HETATM    9  C   UNL     1     -41.782 -54.619  15.434  1.00  0.00     0.012 C 
HETATM   10  C   UNL     1     -40.298 -54.177  13.429  1.00  0.00     0.006 C 
HETATM   11  C   UNL     1     -39.595 -52.915  13.930  1.00  0.00     0.001 C 
HETATM   12  C   UNL     1     -40.398 -51.649  13.639  1.00  0.00     0.002 C 
HETATM   13  C   UNL     1     -41.840 -51.758  14.114  1.00  0.00     0.026 C 
ENDBRANCH   1   7
BRANCH   4  14
HETATM   14  C   UNL     1     -46.439 -53.132  15.152  1.00  0.00     0.132 A 
HETATM   15  C   UNL     1     -47.136 -51.904  15.239  1.00  0.00     0.084 A 
HETATM   16  C   UNL     1     -47.297 -51.696  16.590  1.00  0.00     0.076 A 
HETATM   17  C   UNL     1     -47.969 -50.683  17.418  1.00  0.00     0.079 C 
HETATM   18  O   UNL     1     -46.690 -52.697  17.271  1.00  0.00    -0.241 OA
HETATM   19  N   UNL     1     -46.166 -53.598  16.378  1.00  0.00    -0.245 N 
ATOM     20  HN  UNL     1     -45.665 -54.458  16.605  1.00  0.00     0.196 HD
ENDBRANCH   4  14
TORSDOF 2
ENDMDL
MODEL 9
REMARK VINA RESULT:      -5.5      2.725      4.449
REMARK  2 active torsions:
REMARK  status: ('A' for Active; 'I' for Inactive)
REMARK    1  A    between atoms: C_7  and  N_8 
REMARK       I    between atoms: N_8  and  C_9 
REMARK       I    between atoms: C_9  and  N_11 
REMARK    2  A    between atoms: N_11  and  C_12 
ROOT
HETATM    1  N   UNL     1     -40.942 -47.160  11.392  1.00  0.00    -0.338 N 
HETATM    2  C   UNL     1     -41.569 -47.957  10.485  1.00  0.00     0.322 C 
HETATM    3  O   UNL     1     -42.451 -47.560   9.725  1.00  0.00    -0.247 OA
HETATM    4  N   UNL     1     -41.138 -49.252  10.417  1.00  0.00    -0.293 N 
HETATM    5  H   UNL     1     -40.161 -47.579  11.890  1.00  0.00     0.164 HD
HETATM    6  H   UNL     1     -41.545 -49.791   9.667  1.00  0.00     0.172 HD
ENDROOT
BRANCH   1   7
HETATM    7  C   UNL     1     -41.141 -45.736  11.531  1.00  0.00     0.089 C 
HETATM    8  C   UNL     1     -39.845 -44.999  11.935  1.00  0.00     0.004 C 
HETATM    9  C   UNL     1     -39.210 -45.527  13.232  1.00  0.00     0.012 C 
HETATM   10  C   UNL     1     -40.139 -43.493  12.040  1.00  0.00     0.006 C 
HETATM   11  C   UNL     1     -41.299 -43.176  12.985  1.00  0.00     0.001 C 
HETATM   12  C   UNL     1     -42.557 -43.972  12.648  1.00  0.00     0.002 C 
HETATM   13  C   UNL     1     -42.280 -45.464  12.523  1.00  0.00     0.026 C 
ENDBRANCH   1   7
BRANCH   4  14
HETATM   14  C   UNL     1     -40.188 -49.854  11.217  1.00  0.00     0.132 A 
HETATM   15  C   UNL     1     -40.449 -50.533  12.430  1.00  0.00     0.084 A 
HETATM   16  C   UNL     1     -39.221 -51.011  12.826  1.00  0.00     0.076 A 
HETATM   17  C   UNL     1     -38.734 -51.847  13.934  1.00  0.00     0.079 C 
HETATM   18  O   UNL     1     -38.277 -50.602  11.945  1.00  0.00    -0.241 OA
HETATM   19  N   UNL     1     -38.879 -49.891  10.936  1.00  0.00    -0.245 N 
ATOM     20  HN  UNL     1     -38.417 -49.473  10.128  1.00  0.00     0.196 HD
ENDBRANCH   4  14
TORSDOF 2
ENDMDL
