MODEL 1
REMARK VINA RESULT:      -5.5      0.000      0.000
REMARK  6 active torsions:
REMARK  status: ('A' for Active; 'I' for Inactive)
REMARK    1  A    between atoms: N_6  and  C_7 
REMARK    2  A    between atoms: C_7  and  C_8 
REMARK    3  A    between atoms: C_8  and  O_9 
REMARK    4  A    between atoms: C_8  and  C_10 
REMARK    5  A    between atoms: C_10  and  O_11 
REMARK    6  A    between atoms: O_11  and  C_12 
ROOT
HETATM    1  C   UNL     1     -46.380 -54.525  14.674  1.00  0.00     0.161 C 
ENDROOT
BRANCH   1   2
HETATM    2  C   UNL     1     -45.261 -55.334  13.991  1.00  0.00     0.166 C 
BRANCH   2   3
HETATM    3  N   UNL     1     -44.153 -54.505  13.530  1.00  0.00    -0.307 N 
HETATM    4  C   UNL     1     -44.303 -53.689  12.442  1.00  0.00     0.186 A 
HETATM    5  N   UNL     1     -43.394 -52.903  11.974  1.00  0.00    -0.355 N 
HETATM    6  C   UNL     1     -42.177 -52.898  12.612  1.00  0.00     0.017 A 
ATOM      7  HN  UNL     1     -43.571 -52.309  11.164  1.00  0.00     0.166 HD
HETATM    8  C   UNL     1     -41.172 -51.945  12.015  1.00  0.00     0.069 C 
HETATM    9  C   UNL     1     -41.881 -53.660  13.681  1.00  0.00     0.028 A 
HETATM   10  C   UNL     1     -42.951 -54.555  14.203  1.00  0.00     0.256 A 
HETATM   11  C   UNL     1     -40.556 -53.658  14.380  1.00  0.00     0.056 C 
HETATM   12  O   UNL     1     -42.761 -55.271  15.185  1.00  0.00    -0.267 OA
ENDBRANCH   2   3
ENDBRANCH   1   2
BRANCH   1  13
HETATM   13  O   UNL     1     -47.617 -55.248  14.675  1.00  0.00    -0.392 OA
HETATM   14  H   UNL     1     -47.514 -56.062  15.201  1.00  0.00     0.210 HD
ENDBRANCH   1  13
BRANCH   1  15
HETATM   15  C   UNL     1     -45.969 -54.194  16.118  1.00  0.00     0.209 C 
BRANCH  15  16
HETATM   16  O   UNL     1     -46.083 -52.787  16.336  1.00  0.00    -0.347 OA
BRANCH  16  17
HETATM   17  C   UNL     1     -45.011 -51.996  16.010  1.00  0.00     0.092 A 
HETATM   18  C   UNL     1     -43.808 -51.959  16.725  1.00  0.00     0.062 A 
HETATM   19  C   UNL     1     -42.762 -51.136  16.297  1.00  0.00     0.036 A 
HETATM   20 CL   UNL     1     -41.287 -51.107  17.184  1.00  0.00    -0.084 Cl
HETATM   21  C   UNL     1     -42.897 -50.342  15.160  1.00  0.00     0.026 A 
HETATM   22  C   UNL     1     -44.092 -50.366  14.446  1.00  0.00     0.028 A 
HETATM   23  C   UNL     1     -45.144 -51.187  14.867  1.00  0.00     0.067 A 
HETATM   24 CL   UNL     1     -46.603 -51.168  13.940  1.00  0.00    -0.081 Cl
ENDBRANCH  16  17
ENDBRANCH  15  16
ENDBRANCH   1  15
TORSDOF 6
ENDMDL
MODEL 2
REMARK VINA RESULT:      -5.5      3.674      5.885
REMARK  6 active torsions:
REMARK  status: ('A' for Active; 'I' for Inactive)
REMARK    1  A    between atoms: N_6  and  C_7 
REMARK    2  A    between atoms: C_7  and  C_8 
REMARK    3  A    between atoms: C_8  and  O_9 
REMARK    4  A    between atoms: C_8  and  C_10 
REMARK    5  A    between atoms: C_10  and  O_11 
REMARK    6  A    between atoms: O_11  and  C_12 
ROOT
HETATM    1  C   UNL     1     -40.843 -52.409  12.320  1.00  0.00     0.161 C 
ENDROOT
BRANCH   1   2
HETATM    2  C   UNL     1     -39.648 -51.525  12.725  1.00  0.00     0.166 C 
BRANCH   2   3
HETATM    3  N   UNL     1     -39.811 -50.128  12.337  1.00  0.00    -0.307 N 
HETATM    4  C   UNL     1     -40.430 -49.802  11.162  1.00  0.00     0.186 A 
HETATM    5  N   UNL     1     -40.642 -48.600  10.745  1.00  0.00    -0.355 N 
HETATM    6  C   UNL     1     -40.199 -47.571  11.539  1.00  0.00     0.017 A 
ATOM      7  HN  UNL     1     -41.120 -48.421   9.862  1.00  0.00     0.166 HD
HETATM    8  C   UNL     1     -40.495 -46.197  10.992  1.00  0.00     0.069 C 
HETATM    9  C   UNL     1     -39.559 -47.742  12.710  1.00  0.00     0.028 A 
HETATM   10  C   UNL     1     -39.330 -49.140  13.170  1.00  0.00     0.256 A 
HETATM   11  C   UNL     1     -39.073 -46.623  13.580  1.00  0.00     0.056 C 
HETATM   12  O   UNL     1     -38.766 -49.378  14.237  1.00  0.00    -0.267 OA
ENDBRANCH   2   3
ENDBRANCH   1   2
BRANCH   1  13
HETATM   13  O   UNL     1     -40.477 -53.336  11.290  1.00  0.00    -0.392 OA
HETATM   14  H   UNL     1     -39.505 -53.355  11.204  1.00  0.00     0.210 HD
ENDBRANCH   1  13
BRANCH   1  15
HETATM   15  C   UNL     1     -41.358 -53.175  13.549  1.00  0.00     0.209 C 
BRANCH  15  16
HETATM   16  O   UNL     1     -42.337 -54.132  13.139  1.00  0.00    -0.347 OA
BRANCH  16  17
HETATM   17  C   UNL     1     -43.654 -53.868  13.420  1.00  0.00     0.092 A 
HETATM   18  C   UNL     1     -44.491 -53.080  12.623  1.00  0.00     0.062 A 
HETATM   19  C   UNL     1     -45.829 -52.891  12.983  1.00  0.00     0.036 A 
HETATM   20 CL   UNL     1     -46.847 -51.924  11.988  1.00  0.00    -0.084 Cl
HETATM   21  C   UNL     1     -46.349 -53.480  14.133  1.00  0.00     0.026 A 
HETATM   22  C   UNL     1     -45.522 -54.261  14.937  1.00  0.00     0.028 A 
HETATM   23  C   UNL     1     -44.182 -54.454  14.585  1.00  0.00     0.067 A 
HETATM   24 CL   UNL     1     -43.207 -55.431  15.626  1.00  0.00    -0.081 Cl
ENDBRANCH  16  17
ENDBRANCH  15  16
ENDBRANCH   1  15
TORSDOF 6
ENDMDL
MODEL 3
REMARK VINA RESULT:      -5.4      3.504      5.729
REMARK  6 active torsions:
REMARK  status: ('A' for Active; 'I' for Inactive)
REMARK    1  A    between atoms: N_6  and  C_7 
REMARK    2  A    between atoms: C_7  and  C_8 
REMARK    3  A    between atoms: C_8  and  O_9 
REMARK    4  A    between atoms: C_8  and  C_10 
REMARK    5  A    between atoms: C_10  and  O_11 
REMARK    6  A    between atoms: O_11  and  C_12 
ROOT
HETATM    1  C   UNL     1     -41.164 -53.187  12.515  1.00  0.00     0.161 C 
ENDROOT
BRANCH   1   2
HETATM    2  C   UNL     1     -42.374 -52.266  12.272  1.00  0.00     0.166 C 
BRANCH   2   3
HETATM    3  N   UNL     1     -43.594 -52.737  12.919  1.00  0.00    -0.307 N 
HETATM    4  C   UNL     1     -43.855 -54.076  13.017  1.00  0.00     0.186 A 
HETATM    5  N   UNL     1     -44.889 -54.590  13.591  1.00  0.00    -0.355 N 
HETATM    6  C   UNL     1     -45.804 -53.722  14.133  1.00  0.00     0.017 A 
ATOM      7  HN  UNL     1     -45.022 -55.600  13.640  1.00  0.00     0.166 HD
HETATM    8  C   UNL     1     -46.978 -54.397  14.797  1.00  0.00     0.069 C 
HETATM    9  C   UNL     1     -45.688 -52.381  14.096  1.00  0.00     0.028 A 
HETATM   10  C   UNL     1     -44.482 -51.815  13.431  1.00  0.00     0.256 A 
HETATM   11  C   UNL     1     -46.684 -51.429  14.685  1.00  0.00     0.056 C 
HETATM   12  O   UNL     1     -44.297 -50.600  13.370  1.00  0.00    -0.267 OA
ENDBRANCH   2   3
ENDBRANCH   1   2
BRANCH   1  13
HETATM   13  O   UNL     1     -40.434 -53.416  11.304  1.00  0.00    -0.392 OA
HETATM   14  H   UNL     1     -39.518 -53.669  11.523  1.00  0.00     0.210 HD
ENDBRANCH   1  13
BRANCH   1  15
HETATM   15  C   UNL     1     -40.239 -52.556  13.569  1.00  0.00     0.209 C 
BRANCH  15  16
HETATM   16  O   UNL     1     -39.079 -52.024  12.927  1.00  0.00    -0.347 OA
BRANCH  16  17
HETATM   17  C   UNL     1     -38.603 -50.812  13.357  1.00  0.00     0.092 A 
HETATM   18  C   UNL     1     -37.759 -50.639  14.460  1.00  0.00     0.062 A 
HETATM   19  C   UNL     1     -37.306 -49.362  14.804  1.00  0.00     0.036 A 
HETATM   20 CL   UNL     1     -36.264 -49.167  16.159  1.00  0.00    -0.084 Cl
HETATM   21  C   UNL     1     -37.683 -48.246  14.060  1.00  0.00     0.026 A 
HETATM   22  C   UNL     1     -38.529 -48.406  12.964  1.00  0.00     0.028 A 
HETATM   23  C   UNL     1     -38.987 -49.681  12.614  1.00  0.00     0.067 A 
HETATM   24 CL   UNL     1     -40.036 -49.813  11.246  1.00  0.00    -0.081 Cl
ENDBRANCH  16  17
ENDBRANCH  15  16
ENDBRANCH   1  15
TORSDOF 6
ENDMDL
MODEL 4
REMARK VINA RESULT:      -5.4      4.883      7.404
REMARK  6 active torsions:
REMARK  status: ('A' for Active; 'I' for Inactive)
REMARK    1  A    between atoms: N_6  and  C_7 
REMARK    2  A    between atoms: C_7  and  C_8 
REMARK    3  A    between atoms: C_8  and  O_9 
REMARK    4  A    between atoms: C_8  and  C_10 
REMARK    5  A    between atoms: C_10  and  O_11 
REMARK    6  A    between atoms: O_11  and  C_12 
ROOT
HETATM    1  C   UNL     1     -39.597 -49.994  11.527  1.00  0.00     0.161 C 
ENDROOT
BRANCH   1   2
HETATM    2  C   UNL     1     -39.888 -48.588  12.083  1.00  0.00     0.166 C 
BRANCH   2   3
HETATM    3  N   UNL     1     -40.870 -47.851  11.294  1.00  0.00    -0.307 N 
HETATM    4  C   UNL     1     -41.560 -48.472  10.289  1.00  0.00     0.186 A 
HETATM    5  N   UNL     1     -42.461 -47.914   9.555  1.00  0.00    -0.355 N 
HETATM    6  C   UNL     1     -42.739 -46.591   9.795  1.00  0.00     0.017 A 
ATOM      7  HN  UNL     1     -42.950 -48.435   8.827  1.00  0.00     0.166 HD
HETATM    8  C   UNL     1     -43.812 -46.014   8.907  1.00  0.00     0.069 C 
HETATM    9  C   UNL     1     -42.127 -45.849  10.737  1.00  0.00     0.028 A 
HETATM   10  C   UNL     1     -41.092 -46.519  11.573  1.00  0.00     0.256 A 
HETATM   11  C   UNL     1     -42.425 -44.405  11.003  1.00  0.00     0.056 C 
HETATM   12  O   UNL     1     -40.499 -45.912  12.464  1.00  0.00    -0.267 OA
ENDBRANCH   2   3
ENDBRANCH   1   2
BRANCH   1  13
HETATM   13  O   UNL     1     -38.315 -50.045  10.889  1.00  0.00    -0.392 OA
HETATM   14  H   UNL     1     -38.118 -49.176  10.491  1.00  0.00     0.210 HD
ENDBRANCH   1  13
BRANCH   1  15
HETATM   15  C   UNL     1     -39.650 -51.021  12.670  1.00  0.00     0.209 C 
BRANCH  15  16
HETATM   16  O   UNL     1     -40.059 -52.289  12.153  1.00  0.00    -0.347 OA
BRANCH  16  17
HETATM   17  C   UNL     1     -41.176 -52.875  12.692  1.00  0.00     0.092 A 
HETATM   18  C   UNL     1     -42.490 -52.544  12.343  1.00  0.00     0.062 A 
HETATM   19  C   UNL     1     -43.564 -53.218  12.932  1.00  0.00     0.036 A 
HETATM   20 CL   UNL     1     -45.174 -52.804  12.487  1.00  0.00    -0.084 Cl
HETATM   21  C   UNL     1     -43.347 -54.224  13.871  1.00  0.00     0.026 A 
HETATM   22  C   UNL     1     -42.043 -54.556  14.231  1.00  0.00     0.028 A 
HETATM   23  C   UNL     1     -40.963 -53.886  13.646  1.00  0.00     0.067 A 
HETATM   24 CL   UNL     1     -39.369 -54.342  14.138  1.00  0.00    -0.081 Cl
ENDBRANCH  16  17
ENDBRANCH  15  16
ENDBRANCH   1  15
TORSDOF 6
ENDMDL
MODEL 5
REMARK VINA RESULT:      -5.4      3.790      5.644
REMARK  6 active torsions:
REMARK  status: ('A' for Active; 'I' for Inactive)
REMARK    1  A    between atoms: N_6  and  C_7 
REMARK    2  A    between atoms: C_7  and  C_8 
REMARK    3  A    between atoms: C_8  and  O_9 
REMARK    4  A    between atoms: C_8  and  C_10 
REMARK    5  A    between atoms: C_10  and  O_11 
REMARK    6  A    between atoms: O_11  and  C_12 
ROOT
HETATM    1  C   UNL     1     -40.765 -52.285  12.378  1.00  0.00     0.161 C 
ENDROOT
BRANCH   1   2
HETATM    2  C   UNL     1     -39.635 -51.242  12.470  1.00  0.00     0.166 C 
BRANCH   2   3
HETATM    3  N   UNL     1     -40.040 -49.916  12.017  1.00  0.00    -0.307 N 
HETATM    4  C   UNL     1     -40.811 -49.771  10.897  1.00  0.00     0.186 A 
HETATM    5  N   UNL     1     -41.239 -48.646  10.432  1.00  0.00    -0.355 N 
HETATM    6  C   UNL     1     -40.878 -47.507  11.109  1.00  0.00     0.017 A 
ATOM      7  HN  UNL     1     -41.822 -48.605   9.596  1.00  0.00     0.166 HD
HETATM    8  C   UNL     1     -41.427 -46.235  10.514  1.00  0.00     0.069 C 
HETATM    9  C   UNL     1     -40.109 -47.496  12.214  1.00  0.00     0.028 A 
HETATM   10  C   UNL     1     -39.632 -48.809  12.731  1.00  0.00     0.256 A 
HETATM   11  C   UNL     1     -39.712 -46.257  12.956  1.00  0.00     0.056 C 
HETATM   12  O   UNL     1     -38.937 -48.882  13.744  1.00  0.00    -0.267 OA
ENDBRANCH   2   3
ENDBRANCH   1   2
BRANCH   1  13
HETATM   13  O   UNL     1     -40.418 -53.349  11.485  1.00  0.00    -0.392 OA
HETATM   14  H   UNL     1     -40.810 -54.182  11.808  1.00  0.00     0.210 HD
ENDBRANCH   1  13
BRANCH   1  15
HETATM   15  C   UNL     1     -41.056 -52.853  13.777  1.00  0.00     0.209 C 
BRANCH  15  16
HETATM   16  O   UNL     1     -42.070 -52.068  14.409  1.00  0.00    -0.347 OA
BRANCH  16  17
HETATM   17  C   UNL     1     -43.378 -52.320  14.082  1.00  0.00     0.092 A 
HETATM   18  C   UNL     1     -43.996 -53.570  14.198  1.00  0.00     0.062 A 
HETATM   19  C   UNL     1     -45.345 -53.720  13.862  1.00  0.00     0.036 A 
HETATM   20 CL   UNL     1     -46.092 -55.263  14.017  1.00  0.00    -0.084 Cl
HETATM   21  C   UNL     1     -46.093 -52.636  13.409  1.00  0.00     0.026 A 
HETATM   22  C   UNL     1     -45.485 -51.389  13.283  1.00  0.00     0.028 A 
HETATM   23  C   UNL     1     -44.135 -51.231  13.616  1.00  0.00     0.067 A 
HETATM   24 CL   UNL     1     -43.438 -49.659  13.434  1.00  0.00    -0.081 Cl
ENDBRANCH  16  17
ENDBRANCH  15  16
ENDBRANCH   1  15
TORSDOF 6
ENDMDL
MODEL 6
REMARK VINA RESULT:      -5.2      2.552      3.526
REMARK  6 active torsions:
REMARK  status: ('A' for Active; 'I' for Inactive)
REMARK    1  A    between atoms: N_6  and  C_7 
REMARK    2  A    between atoms: C_7  and  C_8 
REMARK    3  A    between atoms: C_8  and  O_9 
REMARK    4  A    between atoms: C_8  and  C_10 
REMARK    5  A    between atoms: C_10  and  O_11 
REMARK    6  A    between atoms: O_11  and  C_12 
ROOT
HETATM    1  C   UNL     1     -43.322 -53.780  13.254  1.00  0.00     0.161 C 
ENDROOT
BRANCH   1   2
HETATM    2  C   UNL     1     -41.816 -54.090  13.159  1.00  0.00     0.166 C 
BRANCH   2   3
HETATM    3  N   UNL     1     -41.009 -52.916  12.841  1.00  0.00    -0.307 N 
HETATM    4  C   UNL     1     -41.304 -52.144  11.752  1.00  0.00     0.186 A 
HETATM    5  N   UNL     1     -40.668 -51.078  11.404  1.00  0.00    -0.355 N 
HETATM    6  C   UNL     1     -39.602 -50.699  12.183  1.00  0.00     0.017 A 
ATOM      7  HN  UNL     1     -40.944 -50.538  10.584  1.00  0.00     0.166 HD
HETATM    8  C   UNL     1     -38.917 -49.437  11.722  1.00  0.00     0.069 C 
HETATM    9  C   UNL     1     -39.186 -51.371  13.273  1.00  0.00     0.028 A 
HETATM   10  C   UNL     1     -39.942 -52.597  13.654  1.00  0.00     0.256 A 
HETATM   11  C   UNL     1     -38.024 -50.962  14.126  1.00  0.00     0.056 C 
HETATM   12  O   UNL     1     -39.631 -53.256  14.645  1.00  0.00    -0.267 OA
ENDBRANCH   2   3
ENDBRANCH   1   2
BRANCH   1  13
HETATM   13  O   UNL     1     -44.018 -54.224  12.082  1.00  0.00    -0.392 OA
HETATM   14  H   UNL     1     -44.721 -54.849  12.342  1.00  0.00     0.210 HD
ENDBRANCH   1  13
BRANCH   1  15
HETATM   15  C   UNL     1     -43.911 -54.464  14.499  1.00  0.00     0.209 C 
BRANCH  15  16
HETATM   16  O   UNL     1     -45.336 -54.357  14.472  1.00  0.00    -0.347 OA
BRANCH  16  17
HETATM   17  C   UNL     1     -45.929 -53.436  15.298  1.00  0.00     0.092 A 
HETATM   18  C   UNL     1     -45.947 -53.521  16.694  1.00  0.00     0.062 A 
HETATM   19  C   UNL     1     -46.557 -52.515  17.451  1.00  0.00     0.036 A 
HETATM   20 CL   UNL     1     -46.565 -52.631  19.168  1.00  0.00    -0.084 Cl
HETATM   21  C   UNL     1     -47.153 -51.418  16.833  1.00  0.00     0.026 A 
HETATM   22  C   UNL     1     -47.146 -51.327  15.442  1.00  0.00     0.028 A 
HETATM   23  C   UNL     1     -46.538 -52.330  14.678  1.00  0.00     0.067 A 
HETATM   24 CL   UNL     1     -46.567 -52.161  12.958  1.00  0.00    -0.081 Cl
ENDBRANCH  16  17
ENDBRANCH  15  16
ENDBRANCH   1  15
TORSDOF 6
ENDMDL
MODEL 7
REMARK VINA RESULT:      -5.1      2.361      4.664
REMARK  6 active torsions:
REMARK  status: ('A' for Active; 'I' for Inactive)
REMARK    1  A    between atoms: N_6  and  C_7 
REMARK    2  A    between atoms: C_7  and  C_8 
REMARK    3  A    between atoms: C_8  and  O_9 
REMARK    4  A    between atoms: C_8  and  C_10 
REMARK    5  A    between atoms: C_10  and  O_11 
REMARK    6  A    between atoms: O_11  and  C_12 
ROOT
HETATM    1  C   UNL     1     -41.181 -53.071  12.561  1.00  0.00     0.161 C 
ENDROOT
BRANCH   1   2
HETATM    2  C   UNL     1     -42.448 -52.302  12.142  1.00  0.00     0.166 C 
BRANCH   2   3
HETATM    3  N   UNL     1     -43.652 -52.765  12.824  1.00  0.00    -0.307 N 
HETATM    4  C   UNL     1     -43.909 -54.102  12.948  1.00  0.00     0.186 A 
HETATM    5  N   UNL     1     -44.929 -54.608  13.553  1.00  0.00    -0.355 N 
HETATM    6  C   UNL     1     -45.834 -53.732  14.102  1.00  0.00     0.017 A 
ATOM      7  HN  UNL     1     -45.059 -55.617  13.621  1.00  0.00     0.166 HD
HETATM    8  C   UNL     1     -46.991 -54.398  14.802  1.00  0.00     0.069 C 
HETATM    9  C   UNL     1     -45.720 -52.392  14.041  1.00  0.00     0.028 A 
HETATM   10  C   UNL     1     -44.530 -51.835  13.340  1.00  0.00     0.256 A 
HETATM   11  C   UNL     1     -46.704 -51.433  14.638  1.00  0.00     0.056 C 
HETATM   12  O   UNL     1     -44.349 -50.621  13.256  1.00  0.00    -0.267 OA
ENDBRANCH   2   3
ENDBRANCH   1   2
BRANCH   1  13
HETATM   13  O   UNL     1     -40.401 -53.448  11.420  1.00  0.00    -0.392 OA
HETATM   14  H   UNL     1     -39.453 -53.394  11.645  1.00  0.00     0.210 HD
ENDBRANCH   1  13
BRANCH   1  15
HETATM   15  C   UNL     1     -40.337 -52.198  13.504  1.00  0.00     0.209 C 
BRANCH  15  16
HETATM   16  O   UNL     1     -40.404 -52.726  14.830  1.00  0.00    -0.347 OA
BRANCH  16  17
HETATM   17  C   UNL     1     -41.505 -52.424  15.589  1.00  0.00     0.092 A 
HETATM   18  C   UNL     1     -41.952 -51.124  15.853  1.00  0.00     0.062 A 
HETATM   19  C   UNL     1     -43.104 -50.920  16.619  1.00  0.00     0.036 A 
HETATM   20 CL   UNL     1     -43.644 -49.316  16.929  1.00  0.00    -0.084 Cl
HETATM   21  C   UNL     1     -43.822 -51.998  17.130  1.00  0.00     0.026 A 
HETATM   22  C   UNL     1     -43.382 -53.296  16.879  1.00  0.00     0.028 A 
HETATM   23  C   UNL     1     -42.230 -53.509  16.113  1.00  0.00     0.067 A 
HETATM   24 CL   UNL     1     -41.734 -55.142  15.841  1.00  0.00    -0.081 Cl
ENDBRANCH  16  17
ENDBRANCH  15  16
ENDBRANCH   1  15
TORSDOF 6
ENDMDL
MODEL 8
REMARK VINA RESULT:      -5.0      2.660      4.797
REMARK  6 active torsions:
REMARK  status: ('A' for Active; 'I' for Inactive)
REMARK    1  A    between atoms: N_6  and  C_7 
REMARK    2  A    between atoms: C_7  and  C_8 
REMARK    3  A    between atoms: C_8  and  O_9 
REMARK    4  A    between atoms: C_8  and  C_10 
REMARK    5  A    between atoms: C_10  and  O_11 
REMARK    6  A    between atoms: O_11  and  C_12 
ROOT
HETATM    1  C   UNL     1     -41.044 -50.935  12.153  1.00  0.00     0.161 C 
ENDROOT
BRANCH   1   2
HETATM    2  C   UNL     1     -41.493 -52.408  12.087  1.00  0.00     0.166 C 
BRANCH   2   3
HETATM    3  N   UNL     1     -41.113 -53.177  13.267  1.00  0.00    -0.307 N 
HETATM    4  C   UNL     1     -39.841 -53.100  13.765  1.00  0.00     0.186 A 
HETATM    5  N   UNL     1     -39.417 -53.720  14.813  1.00  0.00    -0.355 N 
HETATM    6  C   UNL     1     -40.311 -54.529  15.471  1.00  0.00     0.017 A 
ATOM      7  HN  UNL     1     -38.457 -53.613  15.142  1.00  0.00     0.166 HD
HETATM    8  C   UNL     1     -39.746 -55.209  16.692  1.00  0.00     0.069 C 
HETATM    9  C   UNL     1     -41.587 -54.715  15.085  1.00  0.00     0.028 A 
HETATM   10  C   UNL     1     -42.051 -53.984  13.873  1.00  0.00     0.256 A 
HETATM   11  C   UNL     1     -42.566 -55.598  15.798  1.00  0.00     0.056 C 
HETATM   12  O   UNL     1     -43.208 -54.091  13.467  1.00  0.00    -0.267 OA
ENDBRANCH   2   3
ENDBRANCH   1   2
BRANCH   1  13
HETATM   13  O   UNL     1     -40.480 -50.508  10.907  1.00  0.00    -0.392 OA
HETATM   14  H   UNL     1     -40.740 -51.133  10.205  1.00  0.00     0.210 HD
ENDBRANCH   1  13
BRANCH   1  15
HETATM   15  C   UNL     1     -42.246 -50.046  12.512  1.00  0.00     0.209 C 
BRANCH  15  16
HETATM   16  O   UNL     1     -42.747 -50.417  13.797  1.00  0.00    -0.347 OA
BRANCH  16  17
HETATM   17  C   UNL     1     -44.069 -50.770  13.897  1.00  0.00     0.092 A 
HETATM   18  C   UNL     1     -44.896 -51.056  12.806  1.00  0.00     0.062 A 
HETATM   19  C   UNL     1     -46.227 -51.432  13.013  1.00  0.00     0.036 A 
HETATM   20 CL   UNL     1     -47.229 -51.788  11.660  1.00  0.00    -0.084 Cl
HETATM   21  C   UNL     1     -46.750 -51.526  14.301  1.00  0.00     0.026 A 
HETATM   22  C   UNL     1     -45.936 -51.236  15.394  1.00  0.00     0.028 A 
HETATM   23  C   UNL     1     -44.604 -50.859  15.195  1.00  0.00     0.067 A 
HETATM   24 CL   UNL     1     -43.648 -50.508  16.592  1.00  0.00    -0.081 Cl
ENDBRANCH  16  17
ENDBRANCH  15  16
ENDBRANCH   1  15
TORSDOF 6
ENDMDL
MODEL 9
REMARK VINA RESULT:      -5.0      4.523      6.903
REMARK  6 active torsions:
REMARK  status: ('A' for Active; 'I' for Inactive)
REMARK    1  A    between atoms: N_6  and  C_7 
REMARK    2  A    between atoms: C_7  and  C_8 
REMARK    3  A    between atoms: C_8  and  O_9 
REMARK    4  A    between atoms: C_8  and  C_10 
REMARK    5  A    between atoms: C_10  and  O_11 
REMARK    6  A    between atoms: O_11  and  C_12 
ROOT
HETATM    1  C   UNL     1     -40.310 -50.786  12.128  1.00  0.00     0.161 C 
ENDROOT
BRANCH   1   2
HETATM    2  C   UNL     1     -41.346 -49.687  12.434  1.00  0.00     0.166 C 
BRANCH   2   3
HETATM    3  N   UNL     1     -40.910 -48.358  12.018  1.00  0.00    -0.307 N 
HETATM    4  C   UNL     1     -41.184 -47.900  10.759  1.00  0.00     0.186 A 
HETATM    5  N   UNL     1     -40.864 -46.735  10.308  1.00  0.00    -0.355 N 
HETATM    6  C   UNL     1     -40.184 -45.896  11.157  1.00  0.00     0.017 A 
ATOM      7  HN  UNL     1     -41.107 -46.448   9.360  1.00  0.00     0.166 HD
HETATM    8  C   UNL     1     -39.857 -44.550  10.563  1.00  0.00     0.069 C 
HETATM    9  C   UNL     1     -39.831 -46.219  12.415  1.00  0.00     0.028 A 
HETATM   10  C   UNL     1     -40.217 -47.569  12.912  1.00  0.00     0.256 A 
HETATM   11  C   UNL     1     -39.089 -45.308  13.345  1.00  0.00     0.056 C 
HETATM   12  O   UNL     1     -39.944 -47.931  14.055  1.00  0.00    -0.267 OA
ENDBRANCH   2   3
ENDBRANCH   1   2
BRANCH   1  13
HETATM   13  O   UNL     1     -39.407 -50.968  13.226  1.00  0.00    -0.392 OA
HETATM   14  H   UNL     1     -38.961 -50.123  13.420  1.00  0.00     0.210 HD
ENDBRANCH   1  13
BRANCH   1  15
HETATM   15  C   UNL     1     -41.036 -52.108  11.826  1.00  0.00     0.209 C 
BRANCH  15  16
HETATM   16  O   UNL     1     -40.468 -53.154  12.616  1.00  0.00    -0.347 OA
BRANCH  16  17
HETATM   17  C   UNL     1     -41.285 -53.808  13.503  1.00  0.00     0.092 A 
HETATM   18  C   UNL     1     -42.647 -54.053  13.292  1.00  0.00     0.062 A 
HETATM   19  C   UNL     1     -43.391 -54.752  14.247  1.00  0.00     0.036 A 
HETATM   20 CL   UNL     1     -45.063 -55.050  13.969  1.00  0.00    -0.084 Cl
HETATM   21  C   UNL     1     -42.795 -55.215  15.418  1.00  0.00     0.026 A 
HETATM   22  C   UNL     1     -41.441 -54.971  15.641  1.00  0.00     0.028 A 
HETATM   23  C   UNL     1     -40.690 -54.271  14.690  1.00  0.00     0.067 A 
HETATM   24 CL   UNL     1     -39.017 -53.997  15.027  1.00  0.00    -0.081 Cl
ENDBRANCH  16  17
ENDBRANCH  15  16
ENDBRANCH   1  15
TORSDOF 6
ENDMDL
