MODEL 1
REMARK VINA RESULT:      -6.1      0.000      0.000
REMARK  6 active torsions:
REMARK  status: ('A' for Active; 'I' for Inactive)
REMARK    1  A    between atoms: C_4  and  N_5 
REMARK       I    between atoms: N_5  and  C_6 
REMARK    2  A    between atoms: C_6  and  C_8 
REMARK    3  A    between atoms: C_8  and  N_9 
REMARK    4  A    between atoms: C_12  and  C_13 
REMARK    5  A    between atoms: C_13  and  N_14 
REMARK    6  A    between atoms: N_18  and  C_19 
ROOT
HETATM    1  N   UNL     1     -44.941 -54.123  14.524  1.00  0.00    -0.256 N 
HETATM    2  C   UNL     1     -45.289 -53.547  13.310  1.00  0.00     0.273 A 
HETATM    3  O   UNL     1     -44.793 -53.869  12.235  1.00  0.00    -0.266 OA
HETATM    4  C   UNL     1     -46.341 -52.502  13.354  1.00  0.00     0.110 A 
HETATM    5  C   UNL     1     -46.830 -52.133  14.539  1.00  0.00     0.123 A 
HETATM    6  N   UNL     1     -46.412 -52.713  15.719  1.00  0.00    -0.303 N 
HETATM    7  C   UNL     1     -45.431 -53.713  15.762  1.00  0.00     0.332 A 
HETATM    8  O   UNL     1     -45.010 -54.196  16.816  1.00  0.00    -0.246 OA
ENDROOT
BRANCH   1   9
HETATM    9  C   UNL     1     -43.992 -55.232  14.516  1.00  0.00     0.239 C 
BRANCH   9  10
HETATM   10  C   UNL     1     -42.551 -54.801  14.813  1.00  0.00     0.236 C 
HETATM   11  N   UNL     1     -41.941 -54.049  13.825  1.00  0.00    -0.361 N 
HETATM   12  H   UNL     1     -42.384 -54.021  12.910  1.00  0.00     0.162 HD
HETATM   13  O   UNL     1     -41.992 -55.101  15.866  1.00  0.00    -0.272 OA
BRANCH  11  14
HETATM   14  C   UNL     1     -40.378 -52.341  12.983  1.00  0.00     0.102 A 
HETATM   15  C   UNL     1     -42.322 -51.649  14.472  1.00  0.00    -0.020 A 
HETATM   16  C   UNL     1     -41.518 -51.601  15.761  1.00  0.00     0.006 C 
HETATM   17  C   UNL     1     -41.810 -52.652  13.424  1.00  0.00     0.057 A 
ENDBRANCH  11  14
ENDBRANCH   9  10
ENDBRANCH   1   9
BRANCH   4  18
HETATM   18  C   UNL     1     -46.774 -51.842  12.055  1.00  0.00    -0.030 C 
BRANCH  18  19
HETATM   19  N   UNL     1     -47.132 -51.294  10.977  1.00  0.00    -0.365 N 
ATOM     20  HN2 UNL     1     -46.813 -51.714  11.850  1.00  0.00     0.165 HD
ATOM     21  HN1 UNL     1     -47.422 -50.851  10.105  1.00  0.00     0.165 HD
ENDBRANCH  18  19
ENDBRANCH   4  18
BRANCH   6  22
HETATM   22  C   UNL     1     -46.917 -52.154  16.954  1.00  0.00     0.094 A 
HETATM   23  C   UNL     1     -47.951 -51.055  16.975  1.00  0.00     0.028 A 
HETATM   24  C   UNL     1     -46.555 -50.765  17.430  1.00  0.00     0.028 A 
ENDBRANCH   6  22
TORSDOF 6
ENDMDL
MODEL 2
REMARK VINA RESULT:      -6.1      1.561      2.277
REMARK  6 active torsions:
REMARK  status: ('A' for Active; 'I' for Inactive)
REMARK    1  A    between atoms: C_4  and  N_5 
REMARK       I    between atoms: N_5  and  C_6 
REMARK    2  A    between atoms: C_6  and  C_8 
REMARK    3  A    between atoms: C_8  and  N_9 
REMARK    4  A    between atoms: C_12  and  C_13 
REMARK    5  A    between atoms: C_13  and  N_14 
REMARK    6  A    between atoms: N_18  and  C_19 
ROOT
HETATM    1  N   UNL     1     -44.782 -53.930  14.539  1.00  0.00    -0.256 N 
HETATM    2  C   UNL     1     -45.186 -53.407  13.318  1.00  0.00     0.273 A 
HETATM    3  O   UNL     1     -44.684 -53.720  12.243  1.00  0.00    -0.266 OA
HETATM    4  C   UNL     1     -46.307 -52.436  13.355  1.00  0.00     0.110 A 
HETATM    5  C   UNL     1     -46.803 -52.074  14.538  1.00  0.00     0.123 A 
HETATM    6  N   UNL     1     -46.330 -52.595  15.725  1.00  0.00    -0.303 N 
HETATM    7  C   UNL     1     -45.282 -53.524  15.775  1.00  0.00     0.332 A 
HETATM    8  O   UNL     1     -44.814 -53.953  16.833  1.00  0.00    -0.246 OA
ENDROOT
BRANCH   1   9
HETATM    9  C   UNL     1     -43.760 -54.971  14.542  1.00  0.00     0.239 C 
BRANCH   9  10
HETATM   10  C   UNL     1     -42.330 -54.418  14.529  1.00  0.00     0.236 C 
HETATM   11  N   UNL     1     -41.779 -54.170  15.773  1.00  0.00    -0.361 N 
HETATM   12  H   UNL     1     -42.405 -54.156  16.574  1.00  0.00     0.162 HD
HETATM   13  O   UNL     1     -41.724 -54.223  13.477  1.00  0.00    -0.272 OA
BRANCH  11  14
HETATM   14  C   UNL     1     -39.920 -53.986  17.379  1.00  0.00     0.102 A 
HETATM   15  C   UNL     1     -41.646 -55.835  17.653  1.00  0.00    -0.020 A 
HETATM   16  C   UNL     1     -40.819 -56.918  16.979  1.00  0.00     0.006 C 
HETATM   17  C   UNL     1     -41.375 -54.405  17.155  1.00  0.00     0.057 A 
ENDBRANCH  11  14
ENDBRANCH   9  10
ENDBRANCH   1   9
BRANCH   4  18
HETATM   18  C   UNL     1     -46.802 -51.837  12.048  1.00  0.00    -0.030 C 
BRANCH  18  19
HETATM   19  N   UNL     1     -47.212 -51.341  10.964  1.00  0.00    -0.365 N 
ATOM     20  HN2 UNL     1     -46.849 -51.752  11.824  1.00  0.00     0.165 HD
ATOM     21  HN1 UNL     1     -47.544 -50.939  10.087  1.00  0.00     0.165 HD
ENDBRANCH  18  19
ENDBRANCH   4  18
BRANCH   6  22
HETATM   22  C   UNL     1     -46.855 -52.043  16.955  1.00  0.00     0.094 A 
HETATM   23  C   UNL     1     -47.963 -51.019  16.967  1.00  0.00     0.028 A 
HETATM   24  C   UNL     1     -46.584 -50.622  17.392  1.00  0.00     0.028 A 
ENDBRANCH   6  22
TORSDOF 6
ENDMDL
MODEL 3
REMARK VINA RESULT:      -6.1      3.227      5.327
REMARK  6 active torsions:
REMARK  status: ('A' for Active; 'I' for Inactive)
REMARK    1  A    between atoms: C_4  and  N_5 
REMARK       I    between atoms: N_5  and  C_6 
REMARK    2  A    between atoms: C_6  and  C_8 
REMARK    3  A    between atoms: C_8  and  N_9 
REMARK    4  A    between atoms: C_12  and  C_13 
REMARK    5  A    between atoms: C_13  and  N_14 
REMARK    6  A    between atoms: N_18  and  C_19 
ROOT
HETATM    1  N   UNL     1     -41.521 -53.166  12.898  1.00  0.00    -0.256 N 
HETATM    2  C   UNL     1     -42.889 -53.407  12.910  1.00  0.00     0.273 A 
HETATM    3  O   UNL     1     -43.681 -52.878  12.137  1.00  0.00    -0.266 OA
HETATM    4  C   UNL     1     -43.377 -54.382  13.915  1.00  0.00     0.110 A 
HETATM    5  C   UNL     1     -42.505 -54.906  14.778  1.00  0.00     0.123 A 
HETATM    6  N   UNL     1     -41.162 -54.594  14.745  1.00  0.00    -0.303 N 
HETATM    7  C   UNL     1     -40.619 -53.691  13.821  1.00  0.00     0.332 A 
HETATM    8  O   UNL     1     -39.430 -53.362  13.821  1.00  0.00    -0.246 OA
ENDROOT
BRANCH   1   9
HETATM    9  C   UNL     1     -40.981 -52.300  11.855  1.00  0.00     0.239 C 
BRANCH   9  10
HETATM   10  C   UNL     1     -40.984 -50.815  12.237  1.00  0.00     0.236 C 
HETATM   11  N   UNL     1     -39.882 -50.386  12.957  1.00  0.00    -0.361 N 
HETATM   12  H   UNL     1     -39.277 -51.094  13.364  1.00  0.00     0.162 HD
HETATM   13  O   UNL     1     -41.903 -50.067  11.911  1.00  0.00    -0.272 OA
BRANCH  11  14
HETATM   14  C   UNL     1     -38.213 -48.723  13.676  1.00  0.00     0.102 A 
HETATM   15  C   UNL     1     -37.469 -50.774  12.366  1.00  0.00    -0.020 A 
HETATM   16  C   UNL     1     -37.422 -50.083  11.013  1.00  0.00     0.006 C 
HETATM   17  C   UNL     1     -38.493 -50.193  13.357  1.00  0.00     0.057 A 
ENDBRANCH  11  14
ENDBRANCH   9  10
ENDBRANCH   1   9
BRANCH   4  18
HETATM   18  C   UNL     1     -44.864 -54.696  13.970  1.00  0.00    -0.030 C 
BRANCH  18  19
HETATM   19  N   UNL     1     -46.096 -54.958  14.016  1.00  0.00    -0.365 N 
ATOM     20  HN2 UNL     1     -45.092 -54.782  13.973  1.00  0.00     0.165 HD
ATOM     21  HN1 UNL     1     -47.094 -55.170  14.054  1.00  0.00     0.165 HD
ENDBRANCH  18  19
ENDBRANCH   4  18
BRANCH   6  22
HETATM   22  C   UNL     1     -40.327 -55.123  15.802  1.00  0.00     0.094 A 
HETATM   23  C   UNL     1     -40.905 -55.804  17.018  1.00  0.00     0.028 A 
HETATM   24  C   UNL     1     -40.228 -54.477  17.165  1.00  0.00     0.028 A 
ENDBRANCH   6  22
TORSDOF 6
ENDMDL
MODEL 4
REMARK VINA RESULT:      -5.9      2.520      3.972
REMARK  6 active torsions:
REMARK  status: ('A' for Active; 'I' for Inactive)
REMARK    1  A    between atoms: C_4  and  N_5 
REMARK       I    between atoms: N_5  and  C_6 
REMARK    2  A    between atoms: C_6  and  C_8 
REMARK    3  A    between atoms: C_8  and  N_9 
REMARK    4  A    between atoms: C_12  and  C_13 
REMARK    5  A    between atoms: C_13  and  N_14 
REMARK    6  A    between atoms: N_18  and  C_19 
ROOT
HETATM    1  N   UNL     1     -43.180 -54.529  14.715  1.00  0.00    -0.256 N 
HETATM    2  C   UNL     1     -42.189 -53.935  13.946  1.00  0.00     0.273 A 
HETATM    3  O   UNL     1     -40.993 -54.185  14.063  1.00  0.00    -0.266 OA
HETATM    4  C   UNL     1     -42.643 -52.966  12.919  1.00  0.00     0.110 A 
HETATM    5  C   UNL     1     -43.942 -52.674  12.843  1.00  0.00     0.123 A 
HETATM    6  N   UNL     1     -44.878 -53.265  13.666  1.00  0.00    -0.303 N 
HETATM    7  C   UNL     1     -44.532 -54.197  14.654  1.00  0.00     0.332 A 
HETATM    8  O   UNL     1     -45.354 -54.688  15.433  1.00  0.00    -0.246 OA
ENDROOT
BRANCH   1   9
HETATM    9  C   UNL     1     -42.791 -55.570  15.661  1.00  0.00     0.239 C 
BRANCH   9  10
HETATM   10  C   UNL     1     -42.386 -55.023  17.034  1.00  0.00     0.236 C 
HETATM   11  N   UNL     1     -41.031 -54.806  17.211  1.00  0.00    -0.361 N 
HETATM   12  H   UNL     1     -40.394 -55.215  16.533  1.00  0.00     0.162 HD
HETATM   13  O   UNL     1     -43.221 -54.787  17.906  1.00  0.00    -0.272 OA
BRANCH  11  14
HETATM   14  C   UNL     1     -39.075 -53.657  18.171  1.00  0.00     0.102 A 
HETATM   15  C   UNL     1     -38.825 -56.012  17.239  1.00  0.00    -0.020 A 
HETATM   16  C   UNL     1     -38.281 -55.584  15.885  1.00  0.00     0.006 C 
HETATM   17  C   UNL     1     -39.766 -54.998  17.912  1.00  0.00     0.057 A 
ENDBRANCH  11  14
ENDBRANCH   9  10
ENDBRANCH   1   9
BRANCH   4  18
HETATM   18  C   UNL     1     -41.605 -52.291  12.037  1.00  0.00    -0.030 C 
BRANCH  18  19
HETATM   19  N   UNL     1     -40.745 -51.730  11.305  1.00  0.00    -0.365 N 
ATOM     20  HN2 UNL     1     -41.450 -52.151  11.911  1.00  0.00     0.165 HD
ATOM     21  HN1 UNL     1     -40.049 -51.277  10.713  1.00  0.00     0.165 HD
ENDBRANCH  18  19
ENDBRANCH   4  18
BRANCH   6  22
HETATM   22  C   UNL     1     -46.241 -52.785  13.582  1.00  0.00     0.094 A 
HETATM   23  C   UNL     1     -46.622 -51.593  12.740  1.00  0.00     0.028 A 
HETATM   24  C   UNL     1     -46.694 -51.498  14.232  1.00  0.00     0.028 A 
ENDBRANCH   6  22
TORSDOF 6
ENDMDL
MODEL 5
REMARK VINA RESULT:      -5.7      1.884      5.119
REMARK  6 active torsions:
REMARK  status: ('A' for Active; 'I' for Inactive)
REMARK    1  A    between atoms: C_4  and  N_5 
REMARK       I    between atoms: N_5  and  C_6 
REMARK    2  A    between atoms: C_6  and  C_8 
REMARK    3  A    between atoms: C_8  and  N_9 
REMARK    4  A    between atoms: C_12  and  C_13 
REMARK    5  A    between atoms: C_13  and  N_14 
REMARK    6  A    between atoms: N_18  and  C_19 
ROOT
HETATM    1  N   UNL     1     -44.966 -53.740  14.382  1.00  0.00    -0.256 N 
HETATM    2  C   UNL     1     -44.251 -53.375  13.249  1.00  0.00     0.273 A 
HETATM    3  O   UNL     1     -44.773 -53.002  12.203  1.00  0.00    -0.266 OA
HETATM    4  C   UNL     1     -42.772 -53.430  13.356  1.00  0.00     0.110 A 
HETATM    5  C   UNL     1     -42.227 -53.885  14.485  1.00  0.00     0.123 A 
HETATM    6  N   UNL     1     -42.992 -54.275  15.565  1.00  0.00    -0.303 N 
HETATM    7  C   UNL     1     -44.393 -54.244  15.548  1.00  0.00     0.332 A 
HETATM    8  O   UNL     1     -45.087 -54.645  16.486  1.00  0.00    -0.246 OA
ENDROOT
BRANCH   1   9
HETATM    9  C   UNL     1     -46.418 -53.594  14.359  1.00  0.00     0.239 C 
BRANCH   9  10
HETATM   10  C   UNL     1     -46.892 -52.180  14.711  1.00  0.00     0.236 C 
HETATM   11  N   UNL     1     -47.469 -52.041  15.961  1.00  0.00    -0.361 N 
HETATM   12  H   UNL     1     -47.735 -52.888  16.456  1.00  0.00     0.162 HD
HETATM   13  O   UNL     1     -46.754 -51.241  13.930  1.00  0.00    -0.272 OA
BRANCH  11  14
HETATM   14  C   UNL     1     -48.042 -50.808  18.015  1.00  0.00     0.102 A 
HETATM   15  C   UNL     1     -45.616 -51.416  17.543  1.00  0.00    -0.020 A 
HETATM   16  C   UNL     1     -45.230 -50.065  16.964  1.00  0.00     0.006 C 
HETATM   17  C   UNL     1     -47.092 -51.808  17.351  1.00  0.00     0.057 A 
ENDBRANCH  11  14
ENDBRANCH   9  10
ENDBRANCH   1   9
BRANCH   4  18
HETATM   18  C   UNL     1     -41.934 -53.031  12.152  1.00  0.00    -0.030 C 
BRANCH  18  19
HETATM   19  N   UNL     1     -41.238 -52.702  11.154  1.00  0.00    -0.365 N 
ATOM     20  HN2 UNL     1     -41.819 -52.936  11.959  1.00  0.00     0.165 HD
ATOM     21  HN1 UNL     1     -40.674 -52.435  10.347  1.00  0.00     0.165 HD
ENDBRANCH  18  19
ENDBRANCH   4  18
BRANCH   6  22
HETATM   22  C   UNL     1     -42.305 -54.868  16.693  1.00  0.00     0.094 A 
HETATM   23  C   UNL     1     -40.873 -55.334  16.605  1.00  0.00     0.028 A 
HETATM   24  C   UNL     1     -41.970 -56.340  16.763  1.00  0.00     0.028 A 
ENDBRANCH   6  22
TORSDOF 6
ENDMDL
MODEL 6
REMARK VINA RESULT:      -5.6      2.691      5.183
REMARK  6 active torsions:
REMARK  status: ('A' for Active; 'I' for Inactive)
REMARK    1  A    between atoms: C_4  and  N_5 
REMARK       I    between atoms: N_5  and  C_6 
REMARK    2  A    between atoms: C_6  and  C_8 
REMARK    3  A    between atoms: C_8  and  N_9 
REMARK    4  A    between atoms: C_12  and  C_13 
REMARK    5  A    between atoms: C_13  and  N_14 
REMARK    6  A    between atoms: N_18  and  C_19 
ROOT
HETATM    1  N   UNL     1     -41.728 -53.602  13.252  1.00  0.00    -0.256 N 
HETATM    2  C   UNL     1     -41.152 -54.310  14.299  1.00  0.00     0.273 A 
HETATM    3  O   UNL     1     -39.941 -54.393  14.480  1.00  0.00    -0.266 OA
HETATM    4  C   UNL     1     -42.087 -54.970  15.242  1.00  0.00     0.110 A 
HETATM    5  C   UNL     1     -43.397 -54.908  14.996  1.00  0.00     0.123 A 
HETATM    6  N   UNL     1     -43.909 -54.224  13.913  1.00  0.00    -0.303 N 
HETATM    7  C   UNL     1     -43.095 -53.566  12.982  1.00  0.00     0.332 A 
HETATM    8  O   UNL     1     -43.540 -53.001  11.979  1.00  0.00    -0.246 OA
ENDROOT
BRANCH   1   9
HETATM    9  C   UNL     1     -40.852 -52.844  12.365  1.00  0.00     0.239 C 
BRANCH   9  10
HETATM   10  C   UNL     1     -40.587 -51.414  12.849  1.00  0.00     0.236 C 
HETATM   11  N   UNL     1     -39.487 -51.261  13.674  1.00  0.00    -0.361 N 
HETATM   12  H   UNL     1     -39.075 -52.100  14.073  1.00  0.00     0.162 HD
HETATM   13  O   UNL     1     -41.305 -50.476  12.510  1.00  0.00    -0.272 OA
BRANCH  11  14
HETATM   14  C   UNL     1     -37.584 -50.020  14.627  1.00  0.00     0.102 A 
HETATM   15  C   UNL     1     -37.411 -50.992  12.281  1.00  0.00    -0.020 A 
HETATM   16  C   UNL     1     -37.755 -49.701  11.556  1.00  0.00     0.006 C 
HETATM   17  C   UNL     1     -38.034 -51.136  13.681  1.00  0.00     0.057 A 
ENDBRANCH  11  14
ENDBRANCH   9  10
ENDBRANCH   1   9
BRANCH   4  18
HETATM   18  C   UNL     1     -41.516 -55.751  16.414  1.00  0.00    -0.030 C 
BRANCH  18  19
HETATM   19  N   UNL     1     -41.042 -56.400  17.387  1.00  0.00    -0.365 N 
ATOM     20  HN2 UNL     1     -41.435 -55.848  16.624  1.00  0.00     0.165 HD
ATOM     21  HN1 UNL     1     -40.659 -56.924  18.173  1.00  0.00     0.165 HD
ENDBRANCH  18  19
ENDBRANCH   4  18
BRANCH   6  22
HETATM   22  C   UNL     1     -45.333 -54.323  13.673  1.00  0.00     0.094 A 
HETATM   23  C   UNL     1     -46.290 -53.220  14.053  1.00  0.00     0.028 A 
HETATM   24  C   UNL     1     -46.336 -54.525  14.785  1.00  0.00     0.028 A 
ENDBRANCH   6  22
TORSDOF 6
ENDMDL
MODEL 7
REMARK VINA RESULT:      -5.5      2.971      4.690
REMARK  6 active torsions:
REMARK  status: ('A' for Active; 'I' for Inactive)
REMARK    1  A    between atoms: C_4  and  N_5 
REMARK       I    between atoms: N_5  and  C_6 
REMARK    2  A    between atoms: C_6  and  C_8 
REMARK    3  A    between atoms: C_8  and  N_9 
REMARK    4  A    between atoms: C_12  and  C_13 
REMARK    5  A    between atoms: C_13  and  N_14 
REMARK    6  A    between atoms: N_18  and  C_19 
ROOT
HETATM    1  N   UNL     1     -41.823 -53.668  13.023  1.00  0.00    -0.256 N 
HETATM    2  C   UNL     1     -43.208 -53.768  13.041  1.00  0.00     0.273 A 
HETATM    3  O   UNL     1     -43.938 -53.281  12.184  1.00  0.00    -0.266 OA
HETATM    4  C   UNL     1     -43.799 -54.536  14.164  1.00  0.00     0.110 A 
HETATM    5  C   UNL     1     -42.990 -55.014  15.111  1.00  0.00     0.123 A 
HETATM    6  N   UNL     1     -41.622 -54.844  15.062  1.00  0.00    -0.303 N 
HETATM    7  C   UNL     1     -40.985 -54.141  14.031  1.00  0.00     0.332 A 
HETATM    8  O   UNL     1     -39.768 -53.935  14.008  1.00  0.00    -0.246 OA
ENDROOT
BRANCH   1   9
HETATM    9  C   UNL     1     -41.192 -53.019  11.879  1.00  0.00     0.239 C 
BRANCH   9  10
HETATM   10  C   UNL     1     -40.861 -51.542  12.125  1.00  0.00     0.236 C 
HETATM   11  N   UNL     1     -41.910 -50.660  11.933  1.00  0.00    -0.361 N 
HETATM   12  H   UNL     1     -42.733 -51.002  11.446  1.00  0.00     0.162 HD
HETATM   13  O   UNL     1     -39.740 -51.182  12.477  1.00  0.00    -0.272 OA
BRANCH  11  14
HETATM   14  C   UNL     1     -43.178 -48.593  12.368  1.00  0.00     0.102 A 
HETATM   15  C   UNL     1     -42.849 -50.291  14.236  1.00  0.00    -0.020 A 
HETATM   16  C   UNL     1     -41.671 -49.580  14.883  1.00  0.00     0.006 C 
HETATM   17  C   UNL     1     -42.988 -50.071  12.719  1.00  0.00     0.057 A 
ENDBRANCH  11  14
ENDBRANCH   9  10
ENDBRANCH   1   9
BRANCH   4  18
HETATM   18  C   UNL     1     -45.310 -54.690  14.233  1.00  0.00    -0.030 C 
BRANCH  18  19
HETATM   19  N   UNL     1     -46.563 -54.818  14.290  1.00  0.00    -0.365 N 
ATOM     20  HN2 UNL     1     -45.553 -54.681  14.259  1.00  0.00     0.165 HD
ATOM     21  HN1 UNL     1     -47.577 -54.921  14.336  1.00  0.00     0.165 HD
ENDBRANCH  18  19
ENDBRANCH   4  18
BRANCH   6  22
HETATM   22  C   UNL     1     -40.851 -55.295  16.201  1.00  0.00     0.094 A 
HETATM   23  C   UNL     1     -41.504 -55.819  17.456  1.00  0.00     0.028 A 
HETATM   24  C   UNL     1     -40.771 -54.515  17.493  1.00  0.00     0.028 A 
ENDBRANCH   6  22
TORSDOF 6
ENDMDL
MODEL 8
REMARK VINA RESULT:      -5.5      2.227      4.018
REMARK  6 active torsions:
REMARK  status: ('A' for Active; 'I' for Inactive)
REMARK    1  A    between atoms: C_4  and  N_5 
REMARK       I    between atoms: N_5  and  C_6 
REMARK    2  A    between atoms: C_6  and  C_8 
REMARK    3  A    between atoms: C_8  and  N_9 
REMARK    4  A    between atoms: C_12  and  C_13 
REMARK    5  A    between atoms: C_13  and  N_14 
REMARK    6  A    between atoms: N_18  and  C_19 
ROOT
HETATM    1  N   UNL     1     -43.155 -54.565  14.660  1.00  0.00    -0.256 N 
HETATM    2  C   UNL     1     -42.174 -53.957  13.888  1.00  0.00     0.273 A 
HETATM    3  O   UNL     1     -40.978 -54.212  13.980  1.00  0.00    -0.266 OA
HETATM    4  C   UNL     1     -42.643 -52.964  12.890  1.00  0.00     0.110 A 
HETATM    5  C   UNL     1     -43.942 -52.666  12.843  1.00  0.00     0.123 A 
HETATM    6  N   UNL     1     -44.866 -53.273  13.668  1.00  0.00    -0.303 N 
HETATM    7  C   UNL     1     -44.506 -54.228  14.629  1.00  0.00     0.332 A 
HETATM    8  O   UNL     1     -45.316 -54.734  15.410  1.00  0.00    -0.246 OA
ENDROOT
BRANCH   1   9
HETATM    9  C   UNL     1     -42.753 -55.628  15.575  1.00  0.00     0.239 C 
BRANCH   9  10
HETATM   10  C   UNL     1     -42.266 -55.109  16.933  1.00  0.00     0.236 C 
HETATM   11  N   UNL     1     -43.250 -54.588  17.756  1.00  0.00    -0.361 N 
HETATM   12  H   UNL     1     -44.155 -54.385  17.342  1.00  0.00     0.162 HD
HETATM   13  O   UNL     1     -41.082 -55.167  17.259  1.00  0.00    -0.272 OA
BRANCH  11  14
HETATM   14  C   UNL     1     -44.267 -54.061  19.937  1.00  0.00     0.102 A 
HETATM   15  C   UNL     1     -43.781 -52.188  18.284  1.00  0.00    -0.020 A 
HETATM   16  C   UNL     1     -45.192 -52.108  17.724  1.00  0.00     0.006 C 
HETATM   17  C   UNL     1     -43.364 -53.576  18.800  1.00  0.00     0.057 A 
ENDBRANCH  11  14
ENDBRANCH   9  10
ENDBRANCH   1   9
BRANCH   4  18
HETATM   18  C   UNL     1     -41.617 -52.272  12.007  1.00  0.00    -0.030 C 
BRANCH  18  19
HETATM   19  N   UNL     1     -40.767 -51.697  11.274  1.00  0.00    -0.365 N 
ATOM     20  HN2 UNL     1     -41.477 -52.164  11.837  1.00  0.00     0.165 HD
ATOM     21  HN1 UNL     1     -40.080 -51.232  10.681  1.00  0.00     0.165 HD
ENDBRANCH  18  19
ENDBRANCH   4  18
BRANCH   6  22
HETATM   22  C   UNL     1     -46.228 -52.788  13.618  1.00  0.00     0.094 A 
HETATM   23  C   UNL     1     -46.624 -51.590  12.791  1.00  0.00     0.028 A 
HETATM   24  C   UNL     1     -46.662 -51.503  14.285  1.00  0.00     0.028 A 
ENDBRANCH   6  22
TORSDOF 6
ENDMDL
MODEL 9
REMARK VINA RESULT:      -5.5      3.089      4.673
REMARK  6 active torsions:
REMARK  status: ('A' for Active; 'I' for Inactive)
REMARK    1  A    between atoms: C_4  and  N_5 
REMARK       I    between atoms: N_5  and  C_6 
REMARK    2  A    between atoms: C_6  and  C_8 
REMARK    3  A    between atoms: C_8  and  N_9 
REMARK    4  A    between atoms: C_12  and  C_13 
REMARK    5  A    between atoms: C_13  and  N_14 
REMARK    6  A    between atoms: N_18  and  C_19 
ROOT
HETATM    1  N   UNL     1     -42.517 -52.515  13.115  1.00  0.00    -0.256 N 
HETATM    2  C   UNL     1     -42.178 -53.703  13.750  1.00  0.00     0.273 A 
HETATM    3  O   UNL     1     -41.348 -54.496  13.316  1.00  0.00    -0.266 OA
HETATM    4  C   UNL     1     -42.864 -53.982  15.035  1.00  0.00     0.110 A 
HETATM    5  C   UNL     1     -43.799 -53.132  15.461  1.00  0.00     0.123 A 
HETATM    6  N   UNL     1     -44.124 -51.987  14.763  1.00  0.00    -0.303 N 
HETATM    7  C   UNL     1     -43.516 -51.646  13.548  1.00  0.00     0.332 A 
HETATM    8  O   UNL     1     -43.840 -50.655  12.888  1.00  0.00    -0.246 OA
ENDROOT
BRANCH   1   9
HETATM    9  C   UNL     1     -41.787 -52.145  11.907  1.00  0.00     0.239 C 
BRANCH   9  10
HETATM   10  C   UNL     1     -40.569 -51.255  12.181  1.00  0.00     0.236 C 
HETATM   11  N   UNL     1     -40.790 -49.894  12.060  1.00  0.00    -0.361 N 
HETATM   12  H   UNL     1     -41.644 -49.592  11.598  1.00  0.00     0.162 HD
HETATM   13  O   UNL     1     -39.481 -51.731  12.496  1.00  0.00    -0.272 OA
BRANCH  11  14
HETATM   14  C   UNL     1     -40.396 -47.526  12.609  1.00  0.00     0.102 A 
HETATM   15  C   UNL     1     -41.630 -48.137  10.469  1.00  0.00    -0.020 A 
HETATM   16  C   UNL     1     -43.026 -47.927  11.032  1.00  0.00     0.006 C 
HETATM   17  C   UNL     1     -40.570 -48.566  11.500  1.00  0.00     0.057 A 
ENDBRANCH  11  14
ENDBRANCH   9  10
ENDBRANCH   1   9
BRANCH   4  18
HETATM   18  C   UNL     1     -42.528 -55.262  15.783  1.00  0.00    -0.030 C 
BRANCH  18  19
HETATM   19  N   UNL     1     -42.248 -56.323  16.404  1.00  0.00    -0.365 N 
ATOM     20  HN2 UNL     1     -42.472 -55.446  15.934  1.00  0.00     0.165 HD
ATOM     21  HN1 UNL     1     -42.022 -57.182  16.907  1.00  0.00     0.165 HD
ENDBRANCH  18  19
ENDBRANCH   4  18
BRANCH   6  22
HETATM   22  C   UNL     1     -45.236 -51.199  15.252  1.00  0.00     0.094 A 
HETATM   23  C   UNL     1     -46.257 -51.759  16.210  1.00  0.00     0.028 A 
HETATM   24  C   UNL     1     -46.660 -51.434  14.806  1.00  0.00     0.028 A 
ENDBRANCH   6  22
TORSDOF 6
ENDMDL
