MODEL 1
REMARK VINA RESULT:      -6.6      0.000      0.000
REMARK  4 active torsions:
REMARK  status: ('A' for Active; 'I' for Inactive)
REMARK    1  A    between atoms: C_9  and  N_10 
REMARK       I    between atoms: N_10  and  C_11 
REMARK       I    between atoms: C_11  and  N_13 
REMARK    2  A    between atoms: N_13  and  C_14 
REMARK    3  A    between atoms: C_14  and  C_15 
REMARK    4  A    between atoms: C_15  and  C_16 
ROOT
HETATM    1  N   UNL     1     -40.979 -49.297  10.624  1.00  0.00    -0.307 N 
HETATM    2  C   UNL     1     -41.092 -50.089  11.754  1.00  0.00     0.320 C 
HETATM    3  O   UNL     1     -41.699 -49.792  12.779  1.00  0.00    -0.247 OA
HETATM    4  N   UNL     1     -40.430 -51.305  11.680  1.00  0.00    -0.343 N 
HETATM    5  H   UNL     1     -40.363 -49.621   9.899  1.00  0.00     0.170 HD
HETATM    6  H   UNL     1     -40.394 -51.753  10.776  1.00  0.00     0.164 HD
ENDROOT
BRANCH   1   7
HETATM    7  C   UNL     1     -41.562 -48.036  10.455  1.00  0.00     0.058 A 
HETATM    8  C   UNL     1     -40.919 -46.830  11.009  1.00  0.00    -0.029 A 
HETATM    9  C   UNL     1     -39.647 -46.893  11.806  1.00  0.00     0.050 C 
HETATM   10  C   UNL     1     -41.487 -45.623  10.813  1.00  0.00     0.083 A 
HETATM   11  C   UNL     1     -42.765 -45.450  10.076  1.00  0.00     0.247 A 
HETATM   12  O   UNL     1     -43.234 -44.324   9.933  1.00  0.00    -0.268 OA
HETATM   13  N   UNL     1     -43.331 -46.625   9.618  1.00  0.00    -0.327 N 
HETATM   14  C   UNL     1     -44.606 -46.592   8.920  1.00  0.00     0.159 C 
HETATM   15  C   UNL     1     -42.722 -47.854   9.790  1.00  0.00     0.123 A 
ENDBRANCH   1   7
BRANCH   4  16
HETATM   16  C   UNL     1     -40.631 -52.176  12.840  1.00  0.00     0.128 C 
BRANCH  16  17
HETATM   17  C   UNL     1     -41.130 -53.593  12.570  1.00  0.00     0.053 C 
BRANCH  17  18
HETATM   18  C   UNL     1     -42.473 -53.898  13.152  1.00  0.00    -0.082 C 
HETATM   19  C   UNL     1     -43.659 -53.674  12.574  1.00  0.00    -0.024 C 
HETATM   20  C   UNL     1     -44.790 -54.105  13.444  1.00  0.00     0.027 C 
HETATM   21  C   UNL     1     -44.099 -54.964  14.501  1.00  0.00     0.008 C 
HETATM   22  C   UNL     1     -42.629 -54.546  14.495  1.00  0.00     0.034 C 
ENDBRANCH  17  18
ENDBRANCH  16  17
ENDBRANCH   4  16
TORSDOF 4
ENDMDL
MODEL 2
REMARK VINA RESULT:      -6.6      1.930      2.853
REMARK  4 active torsions:
REMARK  status: ('A' for Active; 'I' for Inactive)
REMARK    1  A    between atoms: C_9  and  N_10 
REMARK       I    between atoms: N_10  and  C_11 
REMARK       I    between atoms: C_11  and  N_13 
REMARK    2  A    between atoms: N_13  and  C_14 
REMARK    3  A    between atoms: C_14  and  C_15 
REMARK    4  A    between atoms: C_15  and  C_16 
ROOT
HETATM    1  N   UNL     1     -41.037 -50.817  11.270  1.00  0.00    -0.307 N 
HETATM    2  C   UNL     1     -41.822 -51.466  12.209  1.00  0.00     0.320 C 
HETATM    3  O   UNL     1     -42.371 -50.937  13.171  1.00  0.00    -0.247 OA
HETATM    4  N   UNL     1     -41.955 -52.831  12.011  1.00  0.00    -0.343 N 
HETATM    5  H   UNL     1     -40.563 -51.391  10.596  1.00  0.00     0.170 HD
HETATM    6  H   UNL     1     -41.974 -53.156  11.055  1.00  0.00     0.164 HD
ENDROOT
BRANCH   1   7
HETATM    7  C   UNL     1     -40.762 -49.445  11.251  1.00  0.00     0.058 A 
HETATM    8  C   UNL     1     -39.524 -48.918  11.855  1.00  0.00    -0.029 A 
HETATM    9  C   UNL     1     -38.528 -49.805  12.547  1.00  0.00     0.050 C 
HETATM   10  C   UNL     1     -39.269 -47.595  11.803  1.00  0.00     0.083 A 
HETATM   11  C   UNL     1     -40.204 -46.623  11.181  1.00  0.00     0.247 A 
HETATM   12  O   UNL     1     -39.916 -45.429  11.168  1.00  0.00    -0.268 OA
HETATM   13  N   UNL     1     -41.361 -47.181  10.669  1.00  0.00    -0.327 N 
HETATM   14  C   UNL     1     -42.376 -46.328  10.072  1.00  0.00     0.159 C 
HETATM   15  C   UNL     1     -41.595 -48.543  10.692  1.00  0.00     0.123 A 
ENDBRANCH   1   7
BRANCH   4  16
HETATM   16  C   UNL     1     -42.860 -53.494  12.951  1.00  0.00     0.128 C 
BRANCH  16  17
HETATM   17  C   UNL     1     -44.289 -53.754  12.479  1.00  0.00     0.053 C 
BRANCH  17  18
HETATM   18  C   UNL     1     -45.346 -53.111  13.319  1.00  0.00    -0.082 C 
HETATM   19  C   UNL     1     -45.876 -53.606  14.443  1.00  0.00    -0.024 C 
HETATM   20  C   UNL     1     -46.906 -52.694  15.019  1.00  0.00     0.027 C 
HETATM   21  C   UNL     1     -46.665 -51.388  14.262  1.00  0.00     0.008 C 
HETATM   22  C   UNL     1     -45.921 -51.768  12.983  1.00  0.00     0.034 C 
ENDBRANCH  17  18
ENDBRANCH  16  17
ENDBRANCH   4  16
TORSDOF 4
ENDMDL
MODEL 3
REMARK VINA RESULT:      -6.6      2.630      7.190
REMARK  4 active torsions:
REMARK  status: ('A' for Active; 'I' for Inactive)
REMARK    1  A    between atoms: C_9  and  N_10 
REMARK       I    between atoms: N_10  and  C_11 
REMARK       I    between atoms: C_11  and  N_13 
REMARK    2  A    between atoms: N_13  and  C_14 
REMARK    3  A    between atoms: C_14  and  C_15 
REMARK    4  A    between atoms: C_15  and  C_16 
ROOT
HETATM    1  N   UNL     1     -41.899 -51.894  11.853  1.00  0.00    -0.307 N 
HETATM    2  C   UNL     1     -41.749 -50.551  12.158  1.00  0.00     0.320 C 
HETATM    3  O   UNL     1     -41.992 -50.032  13.244  1.00  0.00    -0.247 OA
HETATM    4  N   UNL     1     -41.299 -49.764  11.110  1.00  0.00    -0.343 N 
HETATM    5  H   UNL     1     -41.764 -52.162  10.895  1.00  0.00     0.170 HD
HETATM    6  H   UNL     1     -40.651 -50.190  10.462  1.00  0.00     0.164 HD
ENDROOT
BRANCH   1   7
HETATM    7  C   UNL     1     -42.330 -52.885  12.743  1.00  0.00     0.058 A 
HETATM    8  C   UNL     1     -41.376 -53.542  13.655  1.00  0.00    -0.029 A 
HETATM    9  C   UNL     1     -39.908 -53.220  13.650  1.00  0.00     0.050 C 
HETATM   10  C   UNL     1     -41.819 -54.477  14.521  1.00  0.00     0.083 A 
HETATM   11  C   UNL     1     -43.240 -54.901  14.582  1.00  0.00     0.247 A 
HETATM   12  O   UNL     1     -43.581 -55.760  15.392  1.00  0.00    -0.268 OA
HETATM   13  N   UNL     1     -44.071 -54.271  13.674  1.00  0.00    -0.327 N 
HETATM   14  C   UNL     1     -45.478 -54.633  13.606  1.00  0.00     0.159 C 
HETATM   15  C   UNL     1     -43.616 -53.287  12.817  1.00  0.00     0.123 A 
ENDBRANCH   1   7
BRANCH   4  16
HETATM   16  C   UNL     1     -41.054 -48.365  11.464  1.00  0.00     0.128 C 
BRANCH  16  17
HETATM   17  C   UNL     1     -39.598 -47.916  11.564  1.00  0.00     0.053 C 
BRANCH  17  18
HETATM   18  C   UNL     1     -38.683 -48.914  12.198  1.00  0.00    -0.082 C 
HETATM   19  C   UNL     1     -38.584 -49.182  13.505  1.00  0.00    -0.024 C 
HETATM   20  C   UNL     1     -37.568 -50.238  13.779  1.00  0.00     0.027 C 
HETATM   21  C   UNL     1     -37.317 -50.836  12.396  1.00  0.00     0.008 C 
HETATM   22  C   UNL     1     -37.765 -49.779  11.387  1.00  0.00     0.034 C 
ENDBRANCH  17  18
ENDBRANCH  16  17
ENDBRANCH   4  16
TORSDOF 4
ENDMDL
MODEL 4
REMARK VINA RESULT:      -6.3      1.091      1.461
REMARK  4 active torsions:
REMARK  status: ('A' for Active; 'I' for Inactive)
REMARK    1  A    between atoms: C_9  and  N_10 
REMARK       I    between atoms: N_10  and  C_11 
REMARK       I    between atoms: C_11  and  N_13 
REMARK    2  A    between atoms: N_13  and  C_14 
REMARK    3  A    between atoms: C_14  and  C_15 
REMARK    4  A    between atoms: C_15  and  C_16 
ROOT
HETATM    1  N   UNL     1     -40.903 -49.464  10.725  1.00  0.00    -0.307 N 
HETATM    2  C   UNL     1     -41.405 -50.433  11.579  1.00  0.00     0.320 C 
HETATM    3  O   UNL     1     -42.299 -50.267  12.404  1.00  0.00    -0.247 OA
HETATM    4  N   UNL     1     -40.801 -51.675  11.466  1.00  0.00    -0.343 N 
HETATM    5  H   UNL     1     -40.099 -49.711  10.176  1.00  0.00     0.170 HD
HETATM    6  H   UNL     1     -40.491 -51.953  10.546  1.00  0.00     0.164 HD
ENDROOT
BRANCH   1   7
HETATM    7  C   UNL     1     -41.354 -48.141  10.645  1.00  0.00     0.058 A 
HETATM    8  C   UNL     1     -40.707 -47.078  11.436  1.00  0.00    -0.029 A 
HETATM    9  C   UNL     1     -39.576 -47.358  12.385  1.00  0.00     0.050 C 
HETATM   10  C   UNL     1     -41.142 -45.806  11.324  1.00  0.00     0.083 A 
HETATM   11  C   UNL     1     -42.279 -45.424  10.449  1.00  0.00     0.247 A 
HETATM   12  O   UNL     1     -42.631 -44.248  10.392  1.00  0.00    -0.268 OA
HETATM   13  N   UNL     1     -42.862 -46.476   9.766  1.00  0.00    -0.327 N 
HETATM   14  C   UNL     1     -44.013 -46.236   8.910  1.00  0.00     0.159 C 
HETATM   15  C   UNL     1     -42.384 -47.769   9.858  1.00  0.00     0.123 A 
ENDBRANCH   1   7
BRANCH   4  16
HETATM   16  C   UNL     1     -41.397 -52.717  12.305  1.00  0.00     0.128 C 
BRANCH  16  17
HETATM   17  C   UNL     1     -40.458 -53.493  13.225  1.00  0.00     0.053 C 
BRANCH  17  18
HETATM   18  C   UNL     1     -41.141 -54.213  14.343  1.00  0.00    -0.082 C 
HETATM   19  C   UNL     1     -42.431 -54.563  14.391  1.00  0.00    -0.024 C 
HETATM   20  C   UNL     1     -42.767 -55.272  15.659  1.00  0.00     0.027 C 
HETATM   21  C   UNL     1     -41.393 -55.623  16.226  1.00  0.00     0.008 C 
HETATM   22  C   UNL     1     -40.402 -54.665  15.567  1.00  0.00     0.034 C 
ENDBRANCH  17  18
ENDBRANCH  16  17
ENDBRANCH   4  16
TORSDOF 4
ENDMDL
MODEL 5
REMARK VINA RESULT:      -6.1      1.496      2.712
REMARK  4 active torsions:
REMARK  status: ('A' for Active; 'I' for Inactive)
REMARK    1  A    between atoms: C_9  and  N_10 
REMARK       I    between atoms: N_10  and  C_11 
REMARK       I    between atoms: C_11  and  N_13 
REMARK    2  A    between atoms: N_13  and  C_14 
REMARK    3  A    between atoms: C_14  and  C_15 
REMARK    4  A    between atoms: C_15  and  C_16 
ROOT
HETATM    1  N   UNL     1     -41.532 -48.481   9.996  1.00  0.00    -0.307 N 
HETATM    2  C   UNL     1     -41.367 -49.242  11.142  1.00  0.00     0.320 C 
HETATM    3  O   UNL     1     -41.725 -48.923  12.272  1.00  0.00    -0.247 OA
HETATM    4  N   UNL     1     -40.719 -50.452  10.946  1.00  0.00    -0.343 N 
HETATM    5  H   UNL     1     -41.095 -48.818   9.157  1.00  0.00     0.170 HD
HETATM    6  H   UNL     1     -40.886 -50.925  10.070  1.00  0.00     0.164 HD
ENDROOT
BRANCH   1   7
HETATM    7  C   UNL     1     -42.160 -47.232   9.936  1.00  0.00     0.058 A 
HETATM    8  C   UNL     1     -43.190 -46.957   8.919  1.00  0.00    -0.029 A 
HETATM    9  C   UNL     1     -43.587 -47.970   7.882  1.00  0.00     0.050 C 
HETATM   10  C   UNL     1     -43.800 -45.753   8.896  1.00  0.00     0.083 A 
HETATM   11  C   UNL     1     -43.456 -44.665   9.846  1.00  0.00     0.247 A 
HETATM   12  O   UNL     1     -44.045 -43.589   9.773  1.00  0.00    -0.268 OA
HETATM   13  N   UNL     1     -42.456 -44.979  10.748  1.00  0.00    -0.327 N 
HETATM   14  C   UNL     1     -42.000 -43.981  11.702  1.00  0.00     0.159 C 
HETATM   15  C   UNL     1     -41.865 -46.227  10.788  1.00  0.00     0.123 A 
ENDBRANCH   1   7
BRANCH   4  16
HETATM   16  C   UNL     1     -40.630 -51.292  12.143  1.00  0.00     0.128 C 
BRANCH  16  17
HETATM   17  C   UNL     1     -41.070 -52.747  12.006  1.00  0.00     0.053 C 
BRANCH  17  18
HETATM   18  C   UNL     1     -40.885 -53.569  13.242  1.00  0.00    -0.082 C 
HETATM   19  C   UNL     1     -39.729 -53.806  13.872  1.00  0.00    -0.024 C 
HETATM   20  C   UNL     1     -39.919 -54.667  15.074  1.00  0.00     0.027 C 
HETATM   21  C   UNL     1     -41.431 -54.623  15.289  1.00  0.00     0.008 C 
HETATM   22  C   UNL     1     -42.040 -54.214  13.948  1.00  0.00     0.034 C 
ENDBRANCH  17  18
ENDBRANCH  16  17
ENDBRANCH   4  16
TORSDOF 4
ENDMDL
MODEL 6
REMARK VINA RESULT:      -6.0      2.743      7.550
REMARK  4 active torsions:
REMARK  status: ('A' for Active; 'I' for Inactive)
REMARK    1  A    between atoms: C_9  and  N_10 
REMARK       I    between atoms: N_10  and  C_11 
REMARK       I    between atoms: C_11  and  N_13 
REMARK    2  A    between atoms: N_13  and  C_14 
REMARK    3  A    between atoms: C_14  and  C_15 
REMARK    4  A    between atoms: C_15  and  C_16 
ROOT
HETATM    1  N   UNL     1     -42.139 -52.109  11.744  1.00  0.00    -0.307 N 
HETATM    2  C   UNL     1     -41.323 -51.045  12.092  1.00  0.00     0.320 C 
HETATM    3  O   UNL     1     -41.212 -50.566  13.217  1.00  0.00    -0.247 OA
HETATM    4  N   UNL     1     -40.605 -50.497  11.042  1.00  0.00    -0.343 N 
HETATM    5  H   UNL     1     -42.213 -52.328  10.767  1.00  0.00     0.170 HD
HETATM    6  H   UNL     1     -40.294 -51.130  10.319  1.00  0.00     0.164 HD
ENDROOT
BRANCH   1   7
HETATM    7  C   UNL     1     -42.952 -52.830  12.627  1.00  0.00     0.058 A 
HETATM    8  C   UNL     1     -42.405 -53.961  13.398  1.00  0.00    -0.029 A 
HETATM    9  C   UNL     1     -40.982 -54.420  13.252  1.00  0.00     0.050 C 
HETATM   10  C   UNL     1     -43.202 -54.626  14.261  1.00  0.00     0.083 A 
HETATM   11  C   UNL     1     -44.634 -54.284  14.454  1.00  0.00     0.247 A 
HETATM   12  O   UNL     1     -45.308 -54.929  15.252  1.00  0.00    -0.268 OA
HETATM   13  N   UNL     1     -45.089 -53.238  13.671  1.00  0.00    -0.327 N 
HETATM   14  C   UNL     1     -46.485 -52.837  13.736  1.00  0.00     0.159 C 
HETATM   15  C   UNL     1     -44.256 -52.539  12.819  1.00  0.00     0.123 A 
ENDBRANCH   1   7
BRANCH   4  16
HETATM   16  C   UNL     1     -39.676 -49.434  11.432  1.00  0.00     0.128 C 
BRANCH  16  17
HETATM   17  C   UNL     1     -40.186 -47.998  11.349  1.00  0.00     0.053 C 
BRANCH  17  18
HETATM   18  C   UNL     1     -39.701 -47.103  12.446  1.00  0.00    -0.082 C 
HETATM   19  C   UNL     1     -39.051 -47.484  13.551  1.00  0.00    -0.024 C 
HETATM   20  C   UNL     1     -38.717 -46.323  14.425  1.00  0.00     0.027 C 
HETATM   21  C   UNL     1     -38.947 -45.126  13.504  1.00  0.00     0.008 C 
HETATM   22  C   UNL     1     -39.876 -45.615  12.394  1.00  0.00     0.034 C 
ENDBRANCH  17  18
ENDBRANCH  16  17
ENDBRANCH   4  16
TORSDOF 4
ENDMDL
MODEL 7
REMARK VINA RESULT:      -6.0      2.350      8.325
REMARK  4 active torsions:
REMARK  status: ('A' for Active; 'I' for Inactive)
REMARK    1  A    between atoms: C_9  and  N_10 
REMARK       I    between atoms: N_10  and  C_11 
REMARK       I    between atoms: C_11  and  N_13 
REMARK    2  A    between atoms: N_13  and  C_14 
REMARK    3  A    between atoms: C_14  and  C_15 
REMARK    4  A    between atoms: C_15  and  C_16 
ROOT
HETATM    1  N   UNL     1     -41.402 -52.811  12.182  1.00  0.00    -0.307 N 
HETATM    2  C   UNL     1     -41.185 -51.444  12.243  1.00  0.00     0.320 C 
HETATM    3  O   UNL     1     -41.323 -50.741  13.240  1.00  0.00    -0.247 OA
HETATM    4  N   UNL     1     -40.798 -50.864  11.046  1.00  0.00    -0.343 N 
HETATM    5  H   UNL     1     -41.354 -53.241  11.276  1.00  0.00     0.170 HD
HETATM    6  H   UNL     1     -40.218 -51.420  10.433  1.00  0.00     0.164 HD
ENDROOT
BRANCH   1   7
HETATM    7  C   UNL     1     -41.790 -53.620  13.257  1.00  0.00     0.058 A 
HETATM    8  C   UNL     1     -43.202 -54.001  13.439  1.00  0.00    -0.029 A 
HETATM    9  C   UNL     1     -44.290 -53.517  12.522  1.00  0.00     0.050 C 
HETATM   10  C   UNL     1     -43.549 -54.801  14.468  1.00  0.00     0.083 A 
HETATM   11  C   UNL     1     -42.562 -55.303  15.459  1.00  0.00     0.247 A 
HETATM   12  O   UNL     1     -42.940 -56.027  16.376  1.00  0.00    -0.268 OA
HETATM   13  N   UNL     1     -41.264 -54.876  15.248  1.00  0.00    -0.327 N 
HETATM   14  C   UNL     1     -40.214 -55.265  16.176  1.00  0.00     0.159 C 
HETATM   15  C   UNL     1     -40.913 -54.088  14.169  1.00  0.00     0.123 A 
ENDBRANCH   1   7
BRANCH   4  16
HETATM   16  C   UNL     1     -40.481 -49.437  11.139  1.00  0.00     0.128 C 
BRANCH  16  17
HETATM   17  C   UNL     1     -41.548 -48.454  10.665  1.00  0.00     0.053 C 
BRANCH  17  18
HETATM   18  C   UNL     1     -41.235 -47.018  10.943  1.00  0.00    -0.082 C 
HETATM   19  C   UNL     1     -40.016 -46.476  11.041  1.00  0.00    -0.024 C 
HETATM   20  C   UNL     1     -40.080 -45.013  11.323  1.00  0.00     0.027 C 
HETATM   21  C   UNL     1     -41.539 -44.673  11.022  1.00  0.00     0.008 C 
HETATM   22  C   UNL     1     -42.311 -45.989  11.114  1.00  0.00     0.034 C 
ENDBRANCH  17  18
ENDBRANCH  16  17
ENDBRANCH   4  16
TORSDOF 4
ENDMDL
MODEL 8
REMARK VINA RESULT:      -6.0      2.276      7.999
REMARK  4 active torsions:
REMARK  status: ('A' for Active; 'I' for Inactive)
REMARK    1  A    between atoms: C_9  and  N_10 
REMARK       I    between atoms: N_10  and  C_11 
REMARK       I    between atoms: C_11  and  N_13 
REMARK    2  A    between atoms: N_13  and  C_14 
REMARK    3  A    between atoms: C_14  and  C_15 
REMARK    4  A    between atoms: C_15  and  C_16 
ROOT
HETATM    1  N   UNL     1     -41.955 -51.870  11.858  1.00  0.00    -0.307 N 
HETATM    2  C   UNL     1     -41.953 -50.509  12.113  1.00  0.00     0.320 C 
HETATM    3  O   UNL     1     -42.286 -49.978  13.169  1.00  0.00    -0.247 OA
HETATM    4  N   UNL     1     -41.551 -49.719  11.048  1.00  0.00    -0.343 N 
HETATM    5  H   UNL     1     -41.760 -52.159  10.916  1.00  0.00     0.170 HD
HETATM    6  H   UNL     1     -40.842 -50.098  10.438  1.00  0.00     0.164 HD
ENDROOT
BRANCH   1   7
HETATM    7  C   UNL     1     -42.311 -52.867  12.774  1.00  0.00     0.058 A 
HETATM    8  C   UNL     1     -41.317 -53.413  13.716  1.00  0.00    -0.029 A 
HETATM    9  C   UNL     1     -39.882 -52.967  13.717  1.00  0.00     0.050 C 
HETATM   10  C   UNL     1     -41.691 -54.355  14.606  1.00  0.00     0.083 A 
HETATM   11  C   UNL     1     -43.072 -54.898  14.665  1.00  0.00     0.247 A 
HETATM   12  O   UNL     1     -43.349 -55.758  15.497  1.00  0.00    -0.268 OA
HETATM   13  N   UNL     1     -43.941 -54.369  13.728  1.00  0.00    -0.327 N 
HETATM   14  C   UNL     1     -45.311 -54.851  13.656  1.00  0.00     0.159 C 
HETATM   15  C   UNL     1     -43.559 -53.376  12.846  1.00  0.00     0.123 A 
ENDBRANCH   1   7
BRANCH   4  16
HETATM   16  C   UNL     1     -41.463 -48.289  11.353  1.00  0.00     0.128 C 
BRANCH  16  17
HETATM   17  C   UNL     1     -40.088 -47.739  11.722  1.00  0.00     0.053 C 
BRANCH  17  18
HETATM   18  C   UNL     1     -39.973 -46.250  11.638  1.00  0.00    -0.082 C 
HETATM   19  C   UNL     1     -40.341 -45.482  10.606  1.00  0.00    -0.024 C 
HETATM   20  C   UNL     1     -40.083 -44.038  10.870  1.00  0.00     0.027 C 
HETATM   21  C   UNL     1     -39.832 -44.007  12.376  1.00  0.00     0.008 C 
HETATM   22  C   UNL     1     -39.437 -45.429  12.772  1.00  0.00     0.034 C 
ENDBRANCH  17  18
ENDBRANCH  16  17
ENDBRANCH   4  16
TORSDOF 4
ENDMDL
MODEL 9
REMARK VINA RESULT:      -5.9      1.263      2.266
REMARK  4 active torsions:
REMARK  status: ('A' for Active; 'I' for Inactive)
REMARK    1  A    between atoms: C_9  and  N_10 
REMARK       I    between atoms: N_10  and  C_11 
REMARK       I    between atoms: C_11  and  N_13 
REMARK    2  A    between atoms: N_13  and  C_14 
REMARK    3  A    between atoms: C_14  and  C_15 
REMARK    4  A    between atoms: C_15  and  C_16 
ROOT
HETATM    1  N   UNL     1     -40.856 -48.787  10.627  1.00  0.00    -0.307 N 
HETATM    2  C   UNL     1     -41.035 -49.705  11.649  1.00  0.00     0.320 C 
HETATM    3  O   UNL     1     -41.426 -49.445  12.784  1.00  0.00    -0.247 OA
HETATM    4  N   UNL     1     -40.715 -51.012  11.318  1.00  0.00    -0.343 N 
HETATM    5  H   UNL     1     -40.429 -49.122   9.782  1.00  0.00     0.170 HD
HETATM    6  H   UNL     1     -40.897 -51.302  10.368  1.00  0.00     0.164 HD
ENDROOT
BRANCH   1   7
HETATM    7  C   UNL     1     -41.117 -47.415  10.714  1.00  0.00     0.058 A 
HETATM    8  C   UNL     1     -42.343 -46.844  10.127  1.00  0.00    -0.029 A 
HETATM    9  C   UNL     1     -43.341 -47.683   9.379  1.00  0.00     0.050 C 
HETATM   10  C   UNL     1     -42.586 -45.522  10.245  1.00  0.00     0.083 A 
HETATM   11  C   UNL     1     -41.648 -44.594  10.927  1.00  0.00     0.247 A 
HETATM   12  O   UNL     1     -41.924 -43.400  10.999  1.00  0.00    -0.268 OA
HETATM   13  N   UNL     1     -40.502 -45.191  11.420  1.00  0.00    -0.327 N 
HETATM   14  C   UNL     1     -39.485 -44.380  12.070  1.00  0.00     0.159 C 
HETATM   15  C   UNL     1     -40.281 -46.552  11.328  1.00  0.00     0.123 A 
ENDBRANCH   1   7
BRANCH   4  16
HETATM   16  C   UNL     1     -40.993 -51.989  12.372  1.00  0.00     0.128 C 
BRANCH  16  17
HETATM   17  C   UNL     1     -41.830 -53.208  11.989  1.00  0.00     0.053 C 
BRANCH  17  18
HETATM   18  C   UNL     1     -42.583 -53.824  13.124  1.00  0.00    -0.082 C 
HETATM   19  C   UNL     1     -43.896 -54.077  13.161  1.00  0.00    -0.024 C 
HETATM   20  C   UNL     1     -44.305 -54.701  14.452  1.00  0.00     0.027 C 
HETATM   21  C   UNL     1     -42.970 -55.123  15.063  1.00  0.00     0.008 C 
HETATM   22  C   UNL     1     -41.900 -54.271  14.382  1.00  0.00     0.034 C 
ENDBRANCH  17  18
ENDBRANCH  16  17
ENDBRANCH   4  16
TORSDOF 4
ENDMDL
