MODEL 1
REMARK VINA RESULT:      -6.7      0.000      0.000
REMARK  8 active torsions:
REMARK  status: ('A' for Active; 'I' for Inactive)
REMARK    1  A    between atoms: O_1  and  C_2 
REMARK    2  A    between atoms: C_2  and  C_3 
REMARK    3  A    between atoms: C_3  and  N_4 
REMARK    4  A    between atoms: N_4  and  C_5 
REMARK    5  A    between atoms: N_14  and  C_15 
REMARK    6  A    between atoms: C_15  and  C_16 
REMARK    7  A    between atoms: C_16  and  O_17 
REMARK    8  A    between atoms: C_16  and  C_18 
ROOT
HETATM    1  C   UNL     1     -39.945 -49.182  11.413  1.00  0.00     0.681 A 
HETATM    2  N   UNL     1     -40.016 -47.906  11.116  1.00  0.00    -0.190 N 
ATOM      3  HN  UNL     1     -39.430 -47.397  10.455  1.00  0.00     0.184 HD
HETATM    4  C   UNL     1     -41.037 -47.394  11.877  1.00  0.00     0.076 A 
HETATM    5  C   UNL     1     -41.526 -46.079  11.949  1.00  0.00     0.032 A 
HETATM    6  C   UNL     1     -42.559 -45.791  12.849  1.00  0.00     0.002 A 
HETATM    7  C   UNL     1     -43.098 -46.791  13.659  1.00  0.00     0.002 A 
HETATM    8  C   UNL     1     -42.636 -48.111  13.589  1.00  0.00     0.032 A 
HETATM    9  C   UNL     1     -41.607 -48.380  12.679  1.00  0.00     0.079 A 
HETATM   10  N   UNL     1     -40.913 -49.525  12.338  1.00  0.00    -0.178 N 
ENDROOT
BRANCH  10  11
HETATM   11  C   UNL     1     -41.082 -50.822  12.959  1.00  0.00     0.184 C 
BRANCH  11  12
HETATM   12  C   UNL     1     -41.930 -51.818  12.148  1.00  0.00     0.170 C 
BRANCH  12  13
HETATM   13  O   UNL     1     -41.182 -52.446  11.103  1.00  0.00    -0.389 OA
HETATM   14  H   UNL     1     -41.796 -52.787  10.432  1.00  0.00     0.210 HD
ENDBRANCH  12  13
BRANCH  12  15
HETATM   15  C   UNL     1     -42.559 -52.936  12.970  1.00  0.00    -0.025 A 
HETATM   16  C   UNL     1     -41.795 -53.550  13.984  1.00  0.00     0.010 A 
HETATM   17  C   UNL     1     -42.321 -54.583  14.767  1.00  0.00     0.004 A 
HETATM   18  C   UNL     1     -43.621 -55.027  14.549  1.00  0.00     0.042 A 
HETATM   19  C   UNL     1     -44.383 -54.428  13.556  1.00  0.00     0.117 A 
HETATM   20  F   UNL     1     -45.637 -54.847  13.342  1.00  0.00    -0.206 F 
HETATM   21  C   UNL     1     -43.869 -53.396  12.772  1.00  0.00     0.052 A 
ENDBRANCH  12  15
ENDBRANCH  11  12
ENDBRANCH  10  11
BRANCH   1  22
HETATM   22  N   UNL     1     -39.061 -50.086  10.929  1.00  0.00    -0.224 N 
HETATM   23  H   UNL     1     -39.295 -51.074  10.905  1.00  0.00     0.177 HD
BRANCH  22  24
HETATM   24  C   UNL     1     -37.653 -49.950  11.310  1.00  0.00     0.164 C 
BRANCH  24  25
HETATM   25  C   UNL     1     -37.368 -50.845  12.524  1.00  0.00     0.184 C 
BRANCH  25  26
HETATM   26  O   UNL     1     -36.693 -52.037  12.095  1.00  0.00    -0.399 OA
HETATM   27  H   UNL     1     -36.678 -52.009  11.123  1.00  0.00     0.209 HD
ENDBRANCH  25  26
ENDBRANCH  24  25
ENDBRANCH  22  24
ENDBRANCH   1  22
TORSDOF 8
ENDMDL
MODEL 2
REMARK VINA RESULT:      -6.6      1.934      3.987
REMARK  8 active torsions:
REMARK  status: ('A' for Active; 'I' for Inactive)
REMARK    1  A    between atoms: O_1  and  C_2 
REMARK    2  A    between atoms: C_2  and  C_3 
REMARK    3  A    between atoms: C_3  and  N_4 
REMARK    4  A    between atoms: N_4  and  C_5 
REMARK    5  A    between atoms: N_14  and  C_15 
REMARK    6  A    between atoms: C_15  and  C_16 
REMARK    7  A    between atoms: C_16  and  O_17 
REMARK    8  A    between atoms: C_16  and  C_18 
ROOT
HETATM    1  C   UNL     1     -41.244 -49.248  11.299  1.00  0.00     0.681 A 
HETATM    2  N   UNL     1     -40.028 -48.914  10.935  1.00  0.00    -0.190 N 
ATOM      3  HN  UNL     1     -39.766 -48.223  10.233  1.00  0.00     0.184 HD
HETATM    4  C   UNL     1     -39.180 -49.684  11.691  1.00  0.00     0.076 A 
HETATM    5  C   UNL     1     -37.777 -49.728  11.694  1.00  0.00     0.032 A 
HETATM    6  C   UNL     1     -37.131 -50.645  12.533  1.00  0.00     0.002 A 
HETATM    7  C   UNL     1     -37.867 -51.498  13.356  1.00  0.00     0.002 A 
HETATM    8  C   UNL     1     -39.267 -51.456  13.381  1.00  0.00     0.032 A 
HETATM    9  C   UNL     1     -39.893 -50.529  12.539  1.00  0.00     0.079 A 
HETATM   10  N   UNL     1     -41.213 -50.206  12.295  1.00  0.00    -0.178 N 
ENDROOT
BRANCH  10  11
HETATM   11  C   UNL     1     -42.360 -50.870  12.879  1.00  0.00     0.184 C 
BRANCH  11  12
HETATM   12  C   UNL     1     -42.775 -52.174  12.176  1.00  0.00     0.170 C 
BRANCH  12  13
HETATM   13  O   UNL     1     -41.758 -52.671  11.303  1.00  0.00    -0.389 OA
HETATM   14  H   UNL     1     -41.843 -52.241  10.437  1.00  0.00     0.210 HD
ENDBRANCH  12  13
BRANCH  12  15
HETATM   15  C   UNL     1     -43.141 -53.315  13.118  1.00  0.00    -0.025 A 
HETATM   16  C   UNL     1     -42.203 -53.729  14.085  1.00  0.00     0.010 A 
HETATM   17  C   UNL     1     -42.484 -54.774  14.972  1.00  0.00     0.004 A 
HETATM   18  C   UNL     1     -43.710 -55.429  14.907  1.00  0.00     0.042 A 
HETATM   19  C   UNL     1     -44.642 -55.028  13.961  1.00  0.00     0.117 A 
HETATM   20  F   UNL     1     -45.826 -55.651  13.893  1.00  0.00    -0.206 F 
HETATM   21  C   UNL     1     -44.372 -53.987  13.074  1.00  0.00     0.052 A 
ENDBRANCH  12  15
ENDBRANCH  11  12
ENDBRANCH  10  11
BRANCH   1  22
HETATM   22  N   UNL     1     -42.408 -48.769  10.798  1.00  0.00    -0.224 N 
HETATM   23  H   UNL     1     -43.105 -49.403  10.418  1.00  0.00     0.177 HD
BRANCH  22  24
HETATM   24  C   UNL     1     -42.359 -47.573   9.955  1.00  0.00     0.164 C 
BRANCH  24  25
HETATM   25  C   UNL     1     -43.523 -47.609   8.955  1.00  0.00     0.184 C 
BRANCH  25  26
HETATM   26  O   UNL     1     -43.050 -47.237   7.653  1.00  0.00    -0.399 OA
HETATM   27  H   UNL     1     -43.643 -47.667   7.013  1.00  0.00     0.209 HD
ENDBRANCH  25  26
ENDBRANCH  24  25
ENDBRANCH  22  24
ENDBRANCH   1  22
TORSDOF 8
ENDMDL
MODEL 3
REMARK VINA RESULT:      -6.5      3.473      5.352
REMARK  8 active torsions:
REMARK  status: ('A' for Active; 'I' for Inactive)
REMARK    1  A    between atoms: O_1  and  C_2 
REMARK    2  A    between atoms: C_2  and  C_3 
REMARK    3  A    between atoms: C_3  and  N_4 
REMARK    4  A    between atoms: N_4  and  C_5 
REMARK    5  A    between atoms: N_14  and  C_15 
REMARK    6  A    between atoms: C_15  and  C_16 
REMARK    7  A    between atoms: C_16  and  O_17 
REMARK    8  A    between atoms: C_16  and  C_18 
ROOT
HETATM    1  C   UNL     1     -42.037 -47.317  10.049  1.00  0.00     0.681 A 
HETATM    2  N   UNL     1     -41.547 -46.129   9.781  1.00  0.00    -0.190 N 
ATOM      3  HN  UNL     1     -41.691 -45.583   8.932  1.00  0.00     0.184 HD
HETATM    4  C   UNL     1     -40.802 -45.770  10.877  1.00  0.00     0.076 A 
HETATM    5  C   UNL     1     -40.060 -44.600  11.107  1.00  0.00     0.032 A 
HETATM    6  C   UNL     1     -39.334 -44.485  12.299  1.00  0.00     0.002 A 
HETATM    7  C   UNL     1     -39.348 -45.511  13.245  1.00  0.00     0.002 A 
HETATM    8  C   UNL     1     -40.096 -46.677  13.040  1.00  0.00     0.032 A 
HETATM    9  C   UNL     1     -40.819 -46.771  11.845  1.00  0.00     0.079 A 
HETATM   10  N   UNL     1     -41.646 -47.737  11.306  1.00  0.00    -0.178 N 
ENDROOT
BRANCH  10  11
HETATM   11  C   UNL     1     -41.927 -49.026  11.902  1.00  0.00     0.184 C 
BRANCH  11  12
HETATM   12  C   UNL     1     -40.965 -50.152  11.482  1.00  0.00     0.170 C 
BRANCH  12  13
HETATM   13  O   UNL     1     -40.492 -49.993  10.143  1.00  0.00    -0.389 OA
HETATM   14  H   UNL     1     -40.798 -49.140   9.795  1.00  0.00     0.210 HD
ENDBRANCH  12  13
BRANCH  12  15
HETATM   15  C   UNL     1     -39.733 -50.300  12.368  1.00  0.00    -0.025 A 
HETATM   16  C   UNL     1     -38.492 -49.831  11.893  1.00  0.00     0.010 A 
HETATM   17  C   UNL     1     -37.328 -49.945  12.661  1.00  0.00     0.004 A 
HETATM   18  C   UNL     1     -37.382 -50.533  13.921  1.00  0.00     0.042 A 
HETATM   19  C   UNL     1     -38.600 -50.995  14.400  1.00  0.00     0.117 A 
HETATM   20  F   UNL     1     -38.662 -51.561  15.612  1.00  0.00    -0.206 F 
HETATM   21  C   UNL     1     -39.765 -50.885  13.643  1.00  0.00     0.052 A 
ENDBRANCH  12  15
ENDBRANCH  11  12
ENDBRANCH  10  11
BRANCH   1  22
HETATM   22  N   UNL     1     -42.809 -48.083   9.242  1.00  0.00    -0.224 N 
HETATM   23  H   UNL     1     -42.413 -48.880   8.754  1.00  0.00     0.177 HD
BRANCH  22  24
HETATM   24  C   UNL     1     -43.755 -47.412   8.348  1.00  0.00     0.164 C 
BRANCH  24  25
HETATM   25  C   UNL     1     -45.160 -47.465   8.963  1.00  0.00     0.184 C 
BRANCH  25  26
HETATM   26  O   UNL     1     -46.110 -47.854   7.961  1.00  0.00    -0.399 OA
HETATM   27  H   UNL     1     -45.835 -47.416   7.137  1.00  0.00     0.209 HD
ENDBRANCH  25  26
ENDBRANCH  24  25
ENDBRANCH  22  24
ENDBRANCH   1  22
TORSDOF 8
ENDMDL
MODEL 4
REMARK VINA RESULT:      -6.5      2.760      4.172
REMARK  8 active torsions:
REMARK  status: ('A' for Active; 'I' for Inactive)
REMARK    1  A    between atoms: O_1  and  C_2 
REMARK    2  A    between atoms: C_2  and  C_3 
REMARK    3  A    between atoms: C_3  and  N_4 
REMARK    4  A    between atoms: N_4  and  C_5 
REMARK    5  A    between atoms: N_14  and  C_15 
REMARK    6  A    between atoms: C_15  and  C_16 
REMARK    7  A    between atoms: C_16  and  O_17 
REMARK    8  A    between atoms: C_16  and  C_18 
ROOT
HETATM    1  C   UNL     1     -41.521 -47.261  10.379  1.00  0.00     0.681 A 
HETATM    2  N   UNL     1     -41.097 -46.038  10.162  1.00  0.00    -0.190 N 
ATOM      3  HN  UNL     1     -41.274 -45.465   9.337  1.00  0.00     0.184 HD
HETATM    4  C   UNL     1     -40.367 -45.686  11.269  1.00  0.00     0.076 A 
HETATM    5  C   UNL     1     -39.688 -44.489  11.548  1.00  0.00     0.032 A 
HETATM    6  C   UNL     1     -38.963 -44.385  12.742  1.00  0.00     0.002 A 
HETATM    7  C   UNL     1     -38.917 -45.450  13.642  1.00  0.00     0.002 A 
HETATM    8  C   UNL     1     -39.603 -46.645  13.390  1.00  0.00     0.032 A 
HETATM    9  C   UNL     1     -40.326 -46.726  12.194  1.00  0.00     0.079 A 
HETATM   10  N   UNL     1     -41.102 -47.712  11.617  1.00  0.00    -0.178 N 
ENDROOT
BRANCH  10  11
HETATM   11  C   UNL     1     -41.310 -49.039  12.158  1.00  0.00     0.184 C 
BRANCH  11  12
HETATM   12  C   UNL     1     -40.512 -50.152  11.455  1.00  0.00     0.170 C 
BRANCH  12  13
HETATM   13  O   UNL     1     -39.240 -49.699  10.987  1.00  0.00    -0.389 OA
HETATM   14  H   UNL     1     -39.273 -49.596  10.022  1.00  0.00     0.210 HD
ENDBRANCH  12  13
BRANCH  12  15
HETATM   15  C   UNL     1     -40.251 -51.385  12.311  1.00  0.00    -0.025 A 
HETATM   16  C   UNL     1     -39.195 -51.356  13.245  1.00  0.00     0.010 A 
HETATM   17  C   UNL     1     -38.907 -52.461  14.054  1.00  0.00     0.004 A 
HETATM   18  C   UNL     1     -39.669 -53.620  13.944  1.00  0.00     0.042 A 
HETATM   19  C   UNL     1     -40.713 -53.658  13.031  1.00  0.00     0.117 A 
HETATM   20  F   UNL     1     -41.453 -54.769  12.919  1.00  0.00    -0.206 F 
HETATM   21  C   UNL     1     -41.008 -52.563  12.221  1.00  0.00     0.052 A 
ENDBRANCH  12  15
ENDBRANCH  11  12
ENDBRANCH  10  11
BRANCH   1  22
HETATM   22  N   UNL     1     -42.255 -48.032   9.543  1.00  0.00    -0.224 N 
HETATM   23  H   UNL     1     -41.814 -48.512   8.764  1.00  0.00     0.177 HD
BRANCH  22  24
HETATM   24  C   UNL     1     -43.559 -47.531   9.104  1.00  0.00     0.164 C 
BRANCH  24  25
HETATM   25  C   UNL     1     -43.783 -47.919   7.636  1.00  0.00     0.184 C 
BRANCH  25  26
HETATM   26  O   UNL     1     -42.632 -48.619   7.142  1.00  0.00    -0.399 OA
HETATM   27  H   UNL     1     -42.944 -49.175   6.407  1.00  0.00     0.209 HD
ENDBRANCH  25  26
ENDBRANCH  24  25
ENDBRANCH  22  24
ENDBRANCH   1  22
TORSDOF 8
ENDMDL
MODEL 5
REMARK VINA RESULT:      -6.5      3.081      5.766
REMARK  8 active torsions:
REMARK  status: ('A' for Active; 'I' for Inactive)
REMARK    1  A    between atoms: O_1  and  C_2 
REMARK    2  A    between atoms: C_2  and  C_3 
REMARK    3  A    between atoms: C_3  and  N_4 
REMARK    4  A    between atoms: N_4  and  C_5 
REMARK    5  A    between atoms: N_14  and  C_15 
REMARK    6  A    between atoms: C_15  and  C_16 
REMARK    7  A    between atoms: C_16  and  O_17 
REMARK    8  A    between atoms: C_16  and  C_18 
ROOT
HETATM    1  C   UNL     1     -41.969 -52.527  12.923  1.00  0.00     0.681 A 
HETATM    2  N   UNL     1     -40.955 -52.665  13.745  1.00  0.00    -0.190 N 
ATOM      3  HN  UNL     1     -40.086 -52.132  13.741  1.00  0.00     0.184 HD
HETATM    4  C   UNL     1     -41.302 -53.671  14.611  1.00  0.00     0.076 A 
HETATM    5  C   UNL     1     -40.575 -54.221  15.679  1.00  0.00     0.032 A 
HETATM    6  C   UNL     1     -41.130 -55.288  16.396  1.00  0.00     0.002 A 
HETATM    7  C   UNL     1     -42.384 -55.798  16.059  1.00  0.00     0.002 A 
HETATM    8  C   UNL     1     -43.132 -55.251  15.008  1.00  0.00     0.032 A 
HETATM    9  C   UNL     1     -42.563 -54.181  14.308  1.00  0.00     0.079 A 
HETATM   10  N   UNL     1     -42.985 -53.408  13.244  1.00  0.00    -0.178 N 
ENDROOT
BRANCH  10  11
HETATM   11  C   UNL     1     -44.217 -53.597  12.508  1.00  0.00     0.184 C 
BRANCH  11  12
HETATM   12  C   UNL     1     -45.166 -52.385  12.520  1.00  0.00     0.170 C 
BRANCH  12  13
HETATM   13  O   UNL     1     -46.363 -52.623  11.777  1.00  0.00    -0.389 OA
HETATM   14  H   UNL     1     -47.074 -52.061  12.127  1.00  0.00     0.210 HD
ENDBRANCH  12  13
BRANCH  12  15
HETATM   15  C   UNL     1     -45.595 -51.926  13.908  1.00  0.00    -0.025 A 
HETATM   16  C   UNL     1     -46.786 -52.442  14.459  1.00  0.00     0.010 A 
HETATM   17  C   UNL     1     -47.230 -52.053  15.728  1.00  0.00     0.004 A 
HETATM   18  C   UNL     1     -46.492 -51.136  16.470  1.00  0.00     0.042 A 
HETATM   19  C   UNL     1     -45.318 -50.624  15.939  1.00  0.00     0.117 A 
HETATM   20  F   UNL     1     -44.601 -49.742  16.648  1.00  0.00    -0.206 F 
HETATM   21  C   UNL     1     -44.866 -51.006  14.677  1.00  0.00     0.052 A 
ENDBRANCH  12  15
ENDBRANCH  11  12
ENDBRANCH  10  11
BRANCH   1  22
HETATM   22  N   UNL     1     -42.063 -51.672  11.877  1.00  0.00    -0.224 N 
HETATM   23  H   UNL     1     -41.611 -51.887  10.994  1.00  0.00     0.177 HD
BRANCH  22  24
HETATM   24  C   UNL     1     -41.917 -50.239  12.139  1.00  0.00     0.164 C 
BRANCH  24  25
HETATM   25  C   UNL     1     -40.540 -49.771  11.647  1.00  0.00     0.184 C 
BRANCH  25  26
HETATM   26  O   UNL     1     -40.400 -50.074  10.252  1.00  0.00    -0.399 OA
HETATM   27  H   UNL     1     -39.697 -49.491   9.914  1.00  0.00     0.209 HD
ENDBRANCH  25  26
ENDBRANCH  24  25
ENDBRANCH  22  24
ENDBRANCH   1  22
TORSDOF 8
ENDMDL
MODEL 6
REMARK VINA RESULT:      -6.4      2.302      4.308
REMARK  8 active torsions:
REMARK  status: ('A' for Active; 'I' for Inactive)
REMARK    1  A    between atoms: O_1  and  C_2 
REMARK    2  A    between atoms: C_2  and  C_3 
REMARK    3  A    between atoms: C_3  and  N_4 
REMARK    4  A    between atoms: N_4  and  C_5 
REMARK    5  A    between atoms: N_14  and  C_15 
REMARK    6  A    between atoms: C_15  and  C_16 
REMARK    7  A    between atoms: C_16  and  O_17 
REMARK    8  A    between atoms: C_16  and  C_18 
ROOT
HETATM    1  C   UNL     1     -41.290 -49.337  11.345  1.00  0.00     0.681 A 
HETATM    2  N   UNL     1     -40.109 -49.080  10.834  1.00  0.00    -0.190 N 
ATOM      3  HN  UNL     1     -39.902 -48.471  10.043  1.00  0.00     0.184 HD
HETATM    4  C   UNL     1     -39.207 -49.799  11.578  1.00  0.00     0.076 A 
HETATM    5  C   UNL     1     -37.812 -49.889  11.449  1.00  0.00     0.032 A 
HETATM    6  C   UNL     1     -37.107 -50.738  12.311  1.00  0.00     0.002 A 
HETATM    7  C   UNL     1     -37.776 -51.482  13.283  1.00  0.00     0.002 A 
HETATM    8  C   UNL     1     -39.165 -51.392  13.438  1.00  0.00     0.032 A 
HETATM    9  C   UNL     1     -39.851 -50.534  12.572  1.00  0.00     0.079 A 
HETATM   10  N   UNL     1     -41.181 -50.193  12.425  1.00  0.00    -0.178 N 
ENDROOT
BRANCH  10  11
HETATM   11  C   UNL     1     -42.279 -50.759  13.181  1.00  0.00     0.184 C 
BRANCH  11  12
HETATM   12  C   UNL     1     -42.999 -51.931  12.492  1.00  0.00     0.170 C 
BRANCH  12  13
HETATM   13  O   UNL     1     -42.172 -53.093  12.389  1.00  0.00    -0.389 OA
HETATM   14  H   UNL     1     -42.420 -53.724  13.085  1.00  0.00     0.210 HD
ENDBRANCH  12  13
BRANCH  12  15
HETATM   15  C   UNL     1     -44.291 -52.371  13.168  1.00  0.00    -0.025 A 
HETATM   16  C   UNL     1     -44.546 -53.748  13.323  1.00  0.00     0.010 A 
HETATM   17  C   UNL     1     -45.718 -54.208  13.933  1.00  0.00     0.004 A 
HETATM   18  C   UNL     1     -46.662 -53.298  14.398  1.00  0.00     0.042 A 
HETATM   19  C   UNL     1     -46.421 -51.940  14.254  1.00  0.00     0.117 A 
HETATM   20  F   UNL     1     -47.323 -51.057  14.701  1.00  0.00    -0.206 F 
HETATM   21  C   UNL     1     -45.255 -51.471  13.649  1.00  0.00     0.052 A 
ENDBRANCH  12  15
ENDBRANCH  11  12
ENDBRANCH  10  11
BRANCH   1  22
HETATM   22  N   UNL     1     -42.486 -48.873  10.913  1.00  0.00    -0.224 N 
HETATM   23  H   UNL     1     -43.084 -49.452  10.332  1.00  0.00     0.177 HD
BRANCH  22  24
HETATM   24  C   UNL     1     -42.559 -47.494  10.426  1.00  0.00     0.164 C 
BRANCH  24  25
HETATM   25  C   UNL     1     -43.425 -47.448   9.160  1.00  0.00     0.184 C 
BRANCH  25  26
HETATM   26  O   UNL     1     -42.776 -48.174   8.106  1.00  0.00    -0.399 OA
HETATM   27  H   UNL     1     -43.484 -48.571   7.569  1.00  0.00     0.209 HD
ENDBRANCH  25  26
ENDBRANCH  24  25
ENDBRANCH  22  24
ENDBRANCH   1  22
TORSDOF 8
ENDMDL
MODEL 7
REMARK VINA RESULT:      -6.4      2.851      5.374
REMARK  8 active torsions:
REMARK  status: ('A' for Active; 'I' for Inactive)
REMARK    1  A    between atoms: O_1  and  C_2 
REMARK    2  A    between atoms: C_2  and  C_3 
REMARK    3  A    between atoms: C_3  and  N_4 
REMARK    4  A    between atoms: N_4  and  C_5 
REMARK    5  A    between atoms: N_14  and  C_15 
REMARK    6  A    between atoms: C_15  and  C_16 
REMARK    7  A    between atoms: C_16  and  O_17 
REMARK    8  A    between atoms: C_16  and  C_18 
ROOT
HETATM    1  C   UNL     1     -40.153 -52.420  13.091  1.00  0.00     0.681 A 
HETATM    2  N   UNL     1     -39.461 -53.182  13.906  1.00  0.00    -0.190 N 
ATOM      3  HN  UNL     1     -38.446 -53.220  13.995  1.00  0.00     0.184 HD
HETATM    4  C   UNL     1     -40.379 -53.916  14.613  1.00  0.00     0.076 A 
HETATM    5  C   UNL     1     -40.173 -54.887  15.607  1.00  0.00     0.032 A 
HETATM    6  C   UNL     1     -41.284 -55.541  16.153  1.00  0.00     0.002 A 
HETATM    7  C   UNL     1     -42.575 -55.235  15.722  1.00  0.00     0.002 A 
HETATM    8  C   UNL     1     -42.801 -54.257  14.745  1.00  0.00     0.032 A 
HETATM    9  C   UNL     1     -41.679 -53.611  14.215  1.00  0.00     0.079 A 
HETATM   10  N   UNL     1     -41.510 -52.624  13.264  1.00  0.00    -0.178 N 
ENDROOT
BRANCH  10  11
HETATM   11  C   UNL     1     -42.570 -52.022  12.484  1.00  0.00     0.184 C 
BRANCH  11  12
HETATM   12  C   UNL     1     -43.183 -50.753  13.103  1.00  0.00     0.170 C 
BRANCH  12  13
HETATM   13  O   UNL     1     -43.442 -49.741  12.127  1.00  0.00    -0.389 OA
HETATM   14  H   UNL     1     -44.149 -50.043  11.533  1.00  0.00     0.210 HD
ENDBRANCH  12  13
BRANCH  12  15
HETATM   15  C   UNL     1     -44.488 -50.978  13.856  1.00  0.00    -0.025 A 
HETATM   16  C   UNL     1     -45.629 -51.390  13.138  1.00  0.00     0.010 A 
HETATM   17  C   UNL     1     -46.853 -51.608  13.778  1.00  0.00     0.004 A 
HETATM   18  C   UNL     1     -46.963 -51.416  15.152  1.00  0.00     0.042 A 
HETATM   19  C   UNL     1     -45.846 -51.014  15.869  1.00  0.00     0.117 A 
HETATM   20  F   UNL     1     -45.942 -50.828  17.192  1.00  0.00    -0.206 F 
HETATM   21  C   UNL     1     -44.621 -50.795  15.241  1.00  0.00     0.052 A 
ENDBRANCH  12  15
ENDBRANCH  11  12
ENDBRANCH  10  11
BRANCH   1  22
HETATM   22  N   UNL     1     -39.668 -51.549  12.176  1.00  0.00    -0.224 N 
HETATM   23  H   UNL     1     -38.903 -51.817  11.564  1.00  0.00     0.177 HD
BRANCH  22  24
HETATM   24  C   UNL     1     -39.473 -50.155  12.582  1.00  0.00     0.164 C 
BRANCH  24  25
HETATM   25  C   UNL     1     -39.992 -49.227  11.475  1.00  0.00     0.184 C 
BRANCH  25  26
HETATM   26  O   UNL     1     -40.408 -50.010  10.347  1.00  0.00    -0.399 OA
HETATM   27  H   UNL     1     -39.602 -50.412   9.979  1.00  0.00     0.209 HD
ENDBRANCH  25  26
ENDBRANCH  24  25
ENDBRANCH  22  24
ENDBRANCH   1  22
TORSDOF 8
ENDMDL
MODEL 8
REMARK VINA RESULT:      -6.4      3.596      5.863
REMARK  8 active torsions:
REMARK  status: ('A' for Active; 'I' for Inactive)
REMARK    1  A    between atoms: O_1  and  C_2 
REMARK    2  A    between atoms: C_2  and  C_3 
REMARK    3  A    between atoms: C_3  and  N_4 
REMARK    4  A    between atoms: N_4  and  C_5 
REMARK    5  A    between atoms: N_14  and  C_15 
REMARK    6  A    between atoms: C_15  and  C_16 
REMARK    7  A    between atoms: C_16  and  O_17 
REMARK    8  A    between atoms: C_16  and  C_18 
ROOT
HETATM    1  C   UNL     1     -41.720 -52.516  12.047  1.00  0.00     0.681 A 
HETATM    2  N   UNL     1     -42.952 -52.748  11.659  1.00  0.00    -0.190 N 
ATOM      3  HN  UNL     1     -43.397 -52.423  10.801  1.00  0.00     0.184 HD
HETATM    4  C   UNL     1     -43.522 -53.518  12.642  1.00  0.00     0.076 A 
HETATM    5  C   UNL     1     -44.824 -54.038  12.728  1.00  0.00     0.032 A 
HETATM    6  C   UNL     1     -45.187 -54.763  13.869  1.00  0.00     0.002 A 
HETATM    7  C   UNL     1     -44.274 -54.971  14.904  1.00  0.00     0.002 A 
HETATM    8  C   UNL     1     -42.966 -54.475  14.827  1.00  0.00     0.032 A 
HETATM    9  C   UNL     1     -42.620 -53.758  13.676  1.00  0.00     0.079 A 
HETATM   10  N   UNL     1     -41.461 -53.135  13.255  1.00  0.00    -0.178 N 
ENDROOT
BRANCH  10  11
HETATM   11  C   UNL     1     -40.240 -53.030  14.025  1.00  0.00     0.184 C 
BRANCH  11  12
HETATM   12  C   UNL     1     -39.525 -54.369  14.282  1.00  0.00     0.170 C 
BRANCH  12  13
HETATM   13  O   UNL     1     -38.536 -54.658  13.290  1.00  0.00    -0.389 OA
HETATM   14  H   UNL     1     -38.774 -55.481  12.833  1.00  0.00     0.210 HD
ENDBRANCH  12  13
BRANCH  12  15
HETATM   15  C   UNL     1     -38.831 -54.470  15.635  1.00  0.00    -0.025 A 
HETATM   16  C   UNL     1     -38.238 -55.694  16.007  1.00  0.00     0.010 A 
HETATM   17  C   UNL     1     -37.592 -55.845  17.239  1.00  0.00     0.004 A 
HETATM   18  C   UNL     1     -37.528 -54.774  18.126  1.00  0.00     0.042 A 
HETATM   19  C   UNL     1     -38.105 -53.565  17.768  1.00  0.00     0.117 A 
HETATM   20  F   UNL     1     -38.046 -52.528  18.615  1.00  0.00    -0.206 F 
HETATM   21  C   UNL     1     -38.750 -53.403  16.543  1.00  0.00     0.052 A 
ENDBRANCH  12  15
ENDBRANCH  11  12
ENDBRANCH  10  11
BRANCH   1  22
HETATM   22  N   UNL     1     -40.789 -51.769  11.407  1.00  0.00    -0.224 N 
HETATM   23  H   UNL     1     -39.844 -52.121  11.282  1.00  0.00     0.177 HD
BRANCH  22  24
HETATM   24  C   UNL     1     -40.717 -50.339  11.715  1.00  0.00     0.164 C 
BRANCH  24  25
HETATM   25  C   UNL     1     -39.247 -49.897  11.726  1.00  0.00     0.184 C 
BRANCH  25  26
HETATM   26  O   UNL     1     -38.396 -51.052  11.708  1.00  0.00    -0.399 OA
HETATM   27  H   UNL     1     -37.568 -50.776  11.279  1.00  0.00     0.209 HD
ENDBRANCH  25  26
ENDBRANCH  24  25
ENDBRANCH  22  24
ENDBRANCH   1  22
TORSDOF 8
ENDMDL
MODEL 9
REMARK VINA RESULT:      -6.1      2.973      4.508
REMARK  8 active torsions:
REMARK  status: ('A' for Active; 'I' for Inactive)
REMARK    1  A    between atoms: O_1  and  C_2 
REMARK    2  A    between atoms: C_2  and  C_3 
REMARK    3  A    between atoms: C_3  and  N_4 
REMARK    4  A    between atoms: N_4  and  C_5 
REMARK    5  A    between atoms: N_14  and  C_15 
REMARK    6  A    between atoms: C_15  and  C_16 
REMARK    7  A    between atoms: C_16  and  O_17 
REMARK    8  A    between atoms: C_16  and  C_18 
ROOT
HETATM    1  C   UNL     1     -41.545 -49.076  11.342  1.00  0.00     0.681 A 
HETATM    2  N   UNL     1     -40.459 -49.349  10.658  1.00  0.00    -0.190 N 
ATOM      3  HN  UNL     1     -40.345 -49.310   9.646  1.00  0.00     0.184 HD
HETATM    4  C   UNL     1     -39.506 -49.698  11.582  1.00  0.00     0.076 A 
HETATM    5  C   UNL     1     -38.171 -50.087  11.386  1.00  0.00     0.032 A 
HETATM    6  C   UNL     1     -37.401 -50.446  12.499  1.00  0.00     0.002 A 
HETATM    7  C   UNL     1     -37.947 -50.417  13.783  1.00  0.00     0.002 A 
HETATM    8  C   UNL     1     -39.271 -50.014  14.000  1.00  0.00     0.032 A 
HETATM    9  C   UNL     1     -40.022 -49.654  12.875  1.00  0.00     0.079 A 
HETATM   10  N   UNL     1     -41.320 -49.218  12.698  1.00  0.00    -0.178 N 
ENDROOT
BRANCH  10  11
HETATM   11  C   UNL     1     -42.309 -49.082  13.747  1.00  0.00     0.184 C 
BRANCH  11  12
HETATM   12  C   UNL     1     -42.650 -50.390  14.483  1.00  0.00     0.170 C 
BRANCH  12  13
HETATM   13  O   UNL     1     -42.253 -50.364  15.856  1.00  0.00    -0.389 OA
HETATM   14  H   UNL     1     -41.770 -49.540  16.032  1.00  0.00     0.210 HD
ENDBRANCH  12  13
BRANCH  12  15
HETATM   15  C   UNL     1     -44.127 -50.766  14.461  1.00  0.00    -0.025 A 
HETATM   16  C   UNL     1     -44.827 -50.850  15.682  1.00  0.00     0.010 A 
HETATM   17  C   UNL     1     -46.183 -51.194  15.721  1.00  0.00     0.004 A 
HETATM   18  C   UNL     1     -46.866 -51.465  14.539  1.00  0.00     0.042 A 
HETATM   19  C   UNL     1     -46.187 -51.382  13.332  1.00  0.00     0.117 A 
HETATM   20  F   UNL     1     -46.837 -51.639  12.190  1.00  0.00    -0.206 F 
HETATM   21  C   UNL     1     -44.837 -51.038  13.282  1.00  0.00     0.052 A 
ENDBRANCH  12  15
ENDBRANCH  11  12
ENDBRANCH  10  11
BRANCH   1  22
HETATM   22  N   UNL     1     -42.753 -48.716  10.847  1.00  0.00    -0.224 N 
HETATM   23  H   UNL     1     -43.411 -49.422  10.528  1.00  0.00     0.177 HD
BRANCH  22  24
HETATM   24  C   UNL     1     -42.815 -47.575   9.932  1.00  0.00     0.164 C 
BRANCH  24  25
HETATM   25  C   UNL     1     -42.140 -46.362  10.588  1.00  0.00     0.184 C 
BRANCH  25  26
HETATM   26  O   UNL     1     -41.427 -45.612   9.595  1.00  0.00    -0.399 OA
HETATM   27  H   UNL     1     -40.776 -45.071  10.074  1.00  0.00     0.209 HD
ENDBRANCH  25  26
ENDBRANCH  24  25
ENDBRANCH  22  24
ENDBRANCH   1  22
TORSDOF 8
ENDMDL
