MODEL 1
REMARK VINA RESULT:      -5.3      0.000      0.000
REMARK  7 active torsions:
REMARK  status: ('A' for Active; 'I' for Inactive)
REMARK    1  A    between atoms: N_5  and  C_6 
REMARK    2  A    between atoms: C_6  and  C_7 
REMARK    3  A    between atoms: C_7  and  O_8 
REMARK    4  A    between atoms: C_7  and  C_9 
REMARK    5  A    between atoms: C_9  and  O_10 
REMARK    6  A    between atoms: O_10  and  C_11 
REMARK    7  A    between atoms: C_11  and  C_12 
ROOT
HETATM    1  C   UNL     1     -41.078 -52.326  11.528  1.00  0.00     0.168 C 
ENDROOT
BRANCH   1   2
HETATM    2  N   UNL     1     -41.259 -53.128  12.714  1.00  0.00    -0.295 N 
HETATM    3  C   UNL     1     -40.233 -53.477  13.616  1.00  0.00     0.329 A 
HETATM    4  N   UNL     1     -40.828 -54.304  14.592  1.00  0.00    -0.302 N 
HETATM    5  O   UNL     1     -39.061 -53.129  13.544  1.00  0.00    -0.246 OA
HETATM    6  C   UNL     1     -40.149 -54.934  15.686  1.00  0.00     0.161 C 
HETATM    7  C   UNL     1     -42.194 -54.430  14.309  1.00  0.00     0.065 A 
HETATM    8  C   UNL     1     -42.463 -53.695  13.151  1.00  0.00     0.066 A 
HETATM    9  C   UNL     1     -43.183 -55.127  14.974  1.00  0.00     0.032 A 
HETATM   10  C   UNL     1     -43.731 -53.619  12.616  1.00  0.00     0.032 A 
HETATM   11  C   UNL     1     -44.748 -54.317  13.280  1.00  0.00     0.002 A 
HETATM   12  C   UNL     1     -44.476 -55.063  14.445  1.00  0.00     0.002 A 
ENDBRANCH   1   2
BRANCH   1  13
HETATM   13  C   UNL     1     -40.784 -50.846  11.837  1.00  0.00     0.160 C 
BRANCH  13  14
HETATM   14  O   UNL     1     -40.244 -50.150  10.707  1.00  0.00    -0.392 OA
HETATM   15  H   UNL     1     -39.858 -49.308  11.015  1.00  0.00     0.210 HD
ENDBRANCH  13  14
BRANCH  13  16
HETATM   16  C   UNL     1     -42.062 -50.124  12.279  1.00  0.00     0.201 C 
BRANCH  16  17
HETATM   17  O   UNL     1     -42.216 -50.225  13.691  1.00  0.00    -0.384 OA
BRANCH  17  18
HETATM   18  C   UNL     1     -43.423 -49.604  14.136  1.00  0.00     0.213 C 
BRANCH  18  19
HETATM   19  C   UNL     1     -44.148 -50.584  15.006  1.00  0.00     0.006 A 
HETATM   20  C   UNL     1     -45.458 -51.020  14.948  1.00  0.00     0.017 A 
HETATM   21  C   UNL     1     -45.765 -51.968  15.965  1.00  0.00     0.008 A 
HETATM   22  C   UNL     1     -44.682 -52.225  16.772  1.00  0.00     0.050 A 
HETATM   23  S   UNL     1     -43.304 -51.328  16.302  1.00  0.00    -0.104 SA
ENDBRANCH  18  19
ENDBRANCH  17  18
ENDBRANCH  16  17
ENDBRANCH  13  16
ENDBRANCH   1  13
TORSDOF 7
ENDMDL
MODEL 2
REMARK VINA RESULT:      -5.3      1.970      3.795
REMARK  7 active torsions:
REMARK  status: ('A' for Active; 'I' for Inactive)
REMARK    1  A    between atoms: N_5  and  C_6 
REMARK    2  A    between atoms: C_6  and  C_7 
REMARK    3  A    between atoms: C_7  and  O_8 
REMARK    4  A    between atoms: C_7  and  C_9 
REMARK    5  A    between atoms: C_9  and  O_10 
REMARK    6  A    between atoms: O_10  and  C_11 
REMARK    7  A    between atoms: C_11  and  C_12 
ROOT
HETATM    1  C   UNL     1     -42.170 -50.719  12.608  1.00  0.00     0.168 C 
ENDROOT
BRANCH   1   2
HETATM    2  N   UNL     1     -42.937 -50.628  13.826  1.00  0.00    -0.295 N 
HETATM    3  C   UNL     1     -42.425 -50.213  15.073  1.00  0.00     0.329 A 
HETATM    4  N   UNL     1     -43.488 -50.323  15.994  1.00  0.00    -0.302 N 
HETATM    5  O   UNL     1     -41.278 -49.845  15.294  1.00  0.00    -0.246 OA
HETATM    6  C   UNL     1     -43.414 -50.050  17.399  1.00  0.00     0.161 C 
HETATM    7  C   UNL     1     -44.632 -50.764  15.317  1.00  0.00     0.065 A 
HETATM    8  C   UNL     1     -44.294 -50.945  13.973  1.00  0.00     0.066 A 
HETATM    9  C   UNL     1     -45.907 -51.013  15.785  1.00  0.00     0.032 A 
HETATM   10  C   UNL     1     -45.216 -51.373  13.041  1.00  0.00     0.032 A 
HETATM   11  C   UNL     1     -46.515 -51.627  13.499  1.00  0.00     0.002 A 
HETATM   12  C   UNL     1     -46.855 -51.450  14.856  1.00  0.00     0.002 A 
ENDBRANCH   1   2
BRANCH   1  13
HETATM   13  C   UNL     1     -41.582 -52.123  12.365  1.00  0.00     0.160 C 
BRANCH  13  14
HETATM   14  O   UNL     1     -41.371 -52.392  10.975  1.00  0.00    -0.392 OA
HETATM   15  H   UNL     1     -40.474 -52.761  10.861  1.00  0.00     0.210 HD
ENDBRANCH  13  14
BRANCH  13  16
HETATM   16  C   UNL     1     -40.241 -52.278  13.093  1.00  0.00     0.201 C 
BRANCH  16  17
HETATM   17  O   UNL     1     -40.405 -53.091  14.250  1.00  0.00    -0.384 OA
BRANCH  17  18
HETATM   18  C   UNL     1     -41.115 -54.294  13.953  1.00  0.00     0.213 C 
BRANCH  18  19
HETATM   19  C   UNL     1     -42.377 -54.291  14.757  1.00  0.00     0.006 A 
HETATM   20  C   UNL     1     -43.672 -54.590  14.375  1.00  0.00     0.017 A 
HETATM   21  C   UNL     1     -44.600 -54.469  15.447  1.00  0.00     0.008 A 
HETATM   22  C   UNL     1     -43.989 -54.078  16.615  1.00  0.00     0.050 A 
HETATM   23  S   UNL     1     -42.305 -53.860  16.417  1.00  0.00    -0.104 SA
ENDBRANCH  18  19
ENDBRANCH  17  18
ENDBRANCH  16  17
ENDBRANCH  13  16
ENDBRANCH   1  13
TORSDOF 7
ENDMDL
MODEL 3
REMARK VINA RESULT:      -5.3      2.578      5.223
REMARK  7 active torsions:
REMARK  status: ('A' for Active; 'I' for Inactive)
REMARK    1  A    between atoms: N_5  and  C_6 
REMARK    2  A    between atoms: C_6  and  C_7 
REMARK    3  A    between atoms: C_7  and  O_8 
REMARK    4  A    between atoms: C_7  and  C_9 
REMARK    5  A    between atoms: C_9  and  O_10 
REMARK    6  A    between atoms: O_10  and  C_11 
REMARK    7  A    between atoms: C_11  and  C_12 
ROOT
HETATM    1  C   UNL     1     -42.391 -51.520  13.404  1.00  0.00     0.168 C 
ENDROOT
BRANCH   1   2
HETATM    2  N   UNL     1     -41.580 -50.471  12.836  1.00  0.00    -0.295 N 
HETATM    3  C   UNL     1     -42.081 -49.287  12.259  1.00  0.00     0.329 A 
HETATM    4  N   UNL     1     -40.961 -48.572  11.784  1.00  0.00    -0.302 N 
HETATM    5  O   UNL     1     -43.260 -48.965  12.184  1.00  0.00    -0.246 OA
HETATM    6  C   UNL     1     -40.997 -47.325  11.080  1.00  0.00     0.161 C 
HETATM    7  C   UNL     1     -39.799 -49.291  12.095  1.00  0.00     0.065 A 
HETATM    8  C   UNL     1     -40.181 -50.462  12.754  1.00  0.00     0.066 A 
HETATM    9  C   UNL     1     -38.474 -48.997  11.843  1.00  0.00     0.032 A 
HETATM   10  C   UNL     1     -39.256 -51.384  13.195  1.00  0.00     0.032 A 
HETATM   11  C   UNL     1     -37.906 -51.100  12.951  1.00  0.00     0.002 A 
HETATM   12  C   UNL     1     -37.521 -49.921  12.282  1.00  0.00     0.002 A 
ENDBRANCH   1   2
BRANCH   1  13
HETATM   13  C   UNL     1     -42.884 -52.539  12.358  1.00  0.00     0.160 C 
BRANCH  13  14
HETATM   14  O   UNL     1     -41.899 -52.807  11.353  1.00  0.00    -0.392 OA
HETATM   15  H   UNL     1     -41.647 -51.964  10.932  1.00  0.00     0.210 HD
ENDBRANCH  13  14
BRANCH  13  16
HETATM   16  C   UNL     1     -43.255 -53.865  13.032  1.00  0.00     0.201 C 
BRANCH  16  17
HETATM   17  O   UNL     1     -44.553 -54.278  12.614  1.00  0.00    -0.384 OA
BRANCH  17  18
HETATM   18  C   UNL     1     -45.348 -54.713  13.718  1.00  0.00     0.213 C 
BRANCH  18  19
HETATM   19  C   UNL     1     -45.924 -53.496  14.374  1.00  0.00     0.006 A 
HETATM   20  C   UNL     1     -46.423 -52.337  13.808  1.00  0.00     0.017 A 
HETATM   21  C   UNL     1     -46.885 -51.408  14.782  1.00  0.00     0.008 A 
HETATM   22  C   UNL     1     -46.723 -51.882  16.062  1.00  0.00     0.050 A 
HETATM   23  S   UNL     1     -46.019 -53.440  16.087  1.00  0.00    -0.104 SA
ENDBRANCH  18  19
ENDBRANCH  17  18
ENDBRANCH  16  17
ENDBRANCH  13  16
ENDBRANCH   1  13
TORSDOF 7
ENDMDL
MODEL 4
REMARK VINA RESULT:      -5.2      2.323      4.780
REMARK  7 active torsions:
REMARK  status: ('A' for Active; 'I' for Inactive)
REMARK    1  A    between atoms: N_5  and  C_6 
REMARK    2  A    between atoms: C_6  and  C_7 
REMARK    3  A    between atoms: C_7  and  O_8 
REMARK    4  A    between atoms: C_7  and  C_9 
REMARK    5  A    between atoms: C_9  and  O_10 
REMARK    6  A    between atoms: O_10  and  C_11 
REMARK    7  A    between atoms: C_11  and  C_12 
ROOT
HETATM    1  C   UNL     1     -41.640 -52.047  13.487  1.00  0.00     0.168 C 
ENDROOT
BRANCH   1   2
HETATM    2  N   UNL     1     -40.894 -50.991  12.848  1.00  0.00    -0.295 N 
HETATM    3  C   UNL     1     -39.503 -51.011  12.620  1.00  0.00     0.329 A 
HETATM    4  N   UNL     1     -39.180 -49.771  12.028  1.00  0.00    -0.302 N 
HETATM    5  O   UNL     1     -38.740 -51.928  12.898  1.00  0.00    -0.246 OA
HETATM    6  C   UNL     1     -37.866 -49.331  11.664  1.00  0.00     0.161 C 
HETATM    7  C   UNL     1     -40.355 -49.026  11.868  1.00  0.00     0.065 A 
HETATM    8  C   UNL     1     -41.417 -49.783  12.369  1.00  0.00     0.066 A 
HETATM    9  C   UNL     1     -40.548 -47.766  11.336  1.00  0.00     0.032 A 
HETATM   10  C   UNL     1     -42.715 -49.319  12.350  1.00  0.00     0.032 A 
HETATM   11  C   UNL     1     -42.930 -48.044  11.810  1.00  0.00     0.002 A 
HETATM   12  C   UNL     1     -41.858 -47.277  11.310  1.00  0.00     0.002 A 
ENDBRANCH   1   2
BRANCH   1  13
HETATM   13  C   UNL     1     -42.011 -53.194  12.527  1.00  0.00     0.160 C 
BRANCH  13  14
HETATM   14  O   UNL     1     -40.859 -53.902  12.054  1.00  0.00    -0.392 OA
HETATM   15  H   UNL     1     -40.176 -53.252  11.802  1.00  0.00     0.210 HD
ENDBRANCH  13  14
BRANCH  13  16
HETATM   16  C   UNL     1     -42.939 -54.198  13.221  1.00  0.00     0.201 C 
BRANCH  16  17
HETATM   17  O   UNL     1     -44.206 -54.220  12.570  1.00  0.00    -0.384 OA
BRANCH  17  18
HETATM   18  C   UNL     1     -45.243 -54.654  13.452  1.00  0.00     0.213 C 
BRANCH  18  19
HETATM   19  C   UNL     1     -45.845 -53.437  14.083  1.00  0.00     0.006 A 
HETATM   20  C   UNL     1     -46.302 -52.271  13.499  1.00  0.00     0.017 A 
HETATM   21  C   UNL     1     -46.810 -51.344  14.454  1.00  0.00     0.008 A 
HETATM   22  C   UNL     1     -46.723 -51.829  15.737  1.00  0.00     0.050 A 
HETATM   23  S   UNL     1     -46.034 -53.392  15.789  1.00  0.00    -0.104 SA
ENDBRANCH  18  19
ENDBRANCH  17  18
ENDBRANCH  16  17
ENDBRANCH  13  16
ENDBRANCH   1  13
TORSDOF 7
ENDMDL
MODEL 5
REMARK VINA RESULT:      -5.2      3.651      6.433
REMARK  7 active torsions:
REMARK  status: ('A' for Active; 'I' for Inactive)
REMARK    1  A    between atoms: N_5  and  C_6 
REMARK    2  A    between atoms: C_6  and  C_7 
REMARK    3  A    between atoms: C_7  and  O_8 
REMARK    4  A    between atoms: C_7  and  C_9 
REMARK    5  A    between atoms: C_9  and  O_10 
REMARK    6  A    between atoms: O_10  and  C_11 
REMARK    7  A    between atoms: C_11  and  C_12 
ROOT
HETATM    1  C   UNL     1     -41.935 -49.342  12.119  1.00  0.00     0.168 C 
ENDROOT
BRANCH   1   2
HETATM    2  N   UNL     1     -41.814 -48.104  11.388  1.00  0.00    -0.295 N 
HETATM    3  C   UNL     1     -40.667 -47.283  11.377  1.00  0.00     0.329 A 
HETATM    4  N   UNL     1     -40.993 -46.159  10.589  1.00  0.00    -0.302 N 
HETATM    5  O   UNL     1     -39.611 -47.513  11.953  1.00  0.00    -0.246 OA
HETATM    6  C   UNL     1     -40.141 -45.034  10.338  1.00  0.00     0.161 C 
HETATM    7  C   UNL     1     -42.298 -46.307  10.103  1.00  0.00     0.065 A 
HETATM    8  C   UNL     1     -42.804 -47.515  10.591  1.00  0.00     0.066 A 
HETATM    9  C   UNL     1     -43.049 -45.479   9.293  1.00  0.00     0.032 A 
HETATM   10  C   UNL     1     -44.075 -47.949  10.282  1.00  0.00     0.032 A 
HETATM   11  C   UNL     1     -44.850 -47.122   9.458  1.00  0.00     0.002 A 
HETATM   12  C   UNL     1     -44.342 -45.901   8.971  1.00  0.00     0.002 A 
ENDBRANCH   1   2
BRANCH   1  13
HETATM   13  C   UNL     1     -41.121 -50.494  11.500  1.00  0.00     0.160 C 
BRANCH  13  14
HETATM   14  O   UNL     1     -40.373 -50.077  10.352  1.00  0.00    -0.392 OA
HETATM   15  H   UNL     1     -40.499 -49.117  10.230  1.00  0.00     0.210 HD
ENDBRANCH  13  14
BRANCH  13  16
HETATM   16  C   UNL     1     -40.142 -51.074  12.527  1.00  0.00     0.201 C 
BRANCH  16  17
HETATM   17  O   UNL     1     -40.819 -51.984  13.387  1.00  0.00    -0.384 OA
BRANCH  17  18
HETATM   18  C   UNL     1     -41.094 -53.223  12.732  1.00  0.00     0.213 C 
BRANCH  18  19
HETATM   19  C   UNL     1     -42.379 -53.757  13.285  1.00  0.00     0.006 A 
HETATM   20  C   UNL     1     -42.599 -54.600  14.359  1.00  0.00     0.017 A 
HETATM   21  C   UNL     1     -43.981 -54.874  14.565  1.00  0.00     0.008 A 
HETATM   22  C   UNL     1     -44.775 -54.236  13.642  1.00  0.00     0.050 A 
HETATM   23  S   UNL     1     -43.857 -53.312  12.534  1.00  0.00    -0.104 SA
ENDBRANCH  18  19
ENDBRANCH  17  18
ENDBRANCH  16  17
ENDBRANCH  13  16
ENDBRANCH   1  13
TORSDOF 7
ENDMDL
MODEL 6
REMARK VINA RESULT:      -5.1      2.694      4.625
REMARK  7 active torsions:
REMARK  status: ('A' for Active; 'I' for Inactive)
REMARK    1  A    between atoms: N_5  and  C_6 
REMARK    2  A    between atoms: C_6  and  C_7 
REMARK    3  A    between atoms: C_7  and  O_8 
REMARK    4  A    between atoms: C_7  and  C_9 
REMARK    5  A    between atoms: C_9  and  O_10 
REMARK    6  A    between atoms: O_10  and  C_11 
REMARK    7  A    between atoms: C_11  and  C_12 
ROOT
HETATM    1  C   UNL     1     -42.313 -51.915  12.152  1.00  0.00     0.168 C 
ENDROOT
BRANCH   1   2
HETATM    2  N   UNL     1     -43.233 -51.878  13.263  1.00  0.00    -0.295 N 
HETATM    3  C   UNL     1     -43.358 -50.808  14.172  1.00  0.00     0.329 A 
HETATM    4  N   UNL     1     -44.323 -51.204  15.122  1.00  0.00    -0.302 N 
HETATM    5  O   UNL     1     -42.734 -49.755  14.134  1.00  0.00    -0.246 OA
HETATM    6  C   UNL     1     -44.738 -50.446  16.264  1.00  0.00     0.161 C 
HETATM    7  C   UNL     1     -44.800 -52.476  14.779  1.00  0.00     0.065 A 
HETATM    8  C   UNL     1     -44.132 -52.890  13.624  1.00  0.00     0.066 A 
HETATM    9  C   UNL     1     -45.747 -53.270  15.396  1.00  0.00     0.032 A 
HETATM   10  C   UNL     1     -44.388 -54.109  13.033  1.00  0.00     0.032 A 
HETATM   11  C   UNL     1     -45.349 -54.926  13.643  1.00  0.00     0.002 A 
HETATM   12  C   UNL     1     -46.019 -54.511  14.812  1.00  0.00     0.002 A 
ENDBRANCH   1   2
BRANCH   1  13
HETATM   13  C   UNL     1     -40.922 -52.455  12.536  1.00  0.00     0.160 C 
BRANCH  13  14
HETATM   14  O   UNL     1     -40.483 -53.500  11.660  1.00  0.00    -0.392 OA
HETATM   15  H   UNL     1     -40.219 -53.102  10.809  1.00  0.00     0.210 HD
ENDBRANCH  13  14
BRANCH  13  16
HETATM   16  C   UNL     1     -39.880 -51.331  12.501  1.00  0.00     0.201 C 
BRANCH  16  17
HETATM   17  O   UNL     1     -40.233 -50.368  11.512  1.00  0.00    -0.384 OA
BRANCH  17  18
HETATM   18  C   UNL     1     -39.862 -49.047  11.907  1.00  0.00     0.213 C 
BRANCH  18  19
HETATM   19  C   UNL     1     -40.827 -48.093  11.274  1.00  0.00     0.006 A 
HETATM   20  C   UNL     1     -42.102 -48.315  10.788  1.00  0.00     0.017 A 
HETATM   21  C   UNL     1     -42.699 -47.136  10.259  1.00  0.00     0.008 A 
HETATM   22  C   UNL     1     -41.862 -46.049  10.354  1.00  0.00     0.050 A 
HETATM   23  S   UNL     1     -40.367 -46.451  11.078  1.00  0.00    -0.104 SA
ENDBRANCH  18  19
ENDBRANCH  17  18
ENDBRANCH  16  17
ENDBRANCH  13  16
ENDBRANCH   1  13
TORSDOF 7
ENDMDL
MODEL 7
REMARK VINA RESULT:      -5.1      2.333      4.623
REMARK  7 active torsions:
REMARK  status: ('A' for Active; 'I' for Inactive)
REMARK    1  A    between atoms: N_5  and  C_6 
REMARK    2  A    between atoms: C_6  and  C_7 
REMARK    3  A    between atoms: C_7  and  O_8 
REMARK    4  A    between atoms: C_7  and  C_9 
REMARK    5  A    between atoms: C_9  and  O_10 
REMARK    6  A    between atoms: O_10  and  C_11 
REMARK    7  A    between atoms: C_11  and  C_12 
ROOT
HETATM    1  C   UNL     1     -40.175 -51.978  13.166  1.00  0.00     0.168 C 
ENDROOT
BRANCH   1   2
HETATM    2  N   UNL     1     -40.485 -50.574  13.042  1.00  0.00    -0.295 N 
HETATM    3  C   UNL     1     -39.869 -49.690  12.133  1.00  0.00     0.329 A 
HETATM    4  N   UNL     1     -40.423 -48.416  12.382  1.00  0.00    -0.302 N 
HETATM    5  O   UNL     1     -39.014 -49.986  11.307  1.00  0.00    -0.246 OA
HETATM    6  C   UNL     1     -40.057 -47.198  11.722  1.00  0.00     0.161 C 
HETATM    7  C   UNL     1     -41.381 -48.529  13.398  1.00  0.00     0.065 A 
HETATM    8  C   UNL     1     -41.425 -49.866  13.801  1.00  0.00     0.066 A 
HETATM    9  C   UNL     1     -42.186 -47.568  13.976  1.00  0.00     0.032 A 
HETATM   10  C   UNL     1     -42.282 -50.299  14.791  1.00  0.00     0.032 A 
HETATM   11  C   UNL     1     -43.108 -49.338  15.387  1.00  0.00     0.002 A 
HETATM   12  C   UNL     1     -43.059 -47.988  14.984  1.00  0.00     0.002 A 
ENDBRANCH   1   2
BRANCH   1  13
HETATM   13  C   UNL     1     -41.157 -52.885  12.401  1.00  0.00     0.160 C 
BRANCH  13  14
HETATM   14  O   UNL     1     -40.599 -53.385  11.181  1.00  0.00    -0.392 OA
HETATM   15  H   UNL     1     -41.011 -54.247  10.979  1.00  0.00     0.210 HD
ENDBRANCH  13  14
BRANCH  13  16
HETATM   16  C   UNL     1     -41.569 -54.082  13.266  1.00  0.00     0.201 C 
BRANCH  16  17
HETATM   17  O   UNL     1     -42.907 -53.916  13.725  1.00  0.00    -0.384 OA
BRANCH  17  18
HETATM   18  C   UNL     1     -43.695 -53.174  12.793  1.00  0.00     0.213 C 
BRANCH  18  19
HETATM   19  C   UNL     1     -44.927 -52.707  13.505  1.00  0.00     0.006 A 
HETATM   20  C   UNL     1     -45.543 -51.469  13.490  1.00  0.00     0.017 A 
HETATM   21  C   UNL     1     -46.706 -51.428  14.310  1.00  0.00     0.008 A 
HETATM   22  C   UNL     1     -46.942 -52.632  14.929  1.00  0.00     0.050 A 
HETATM   23  S   UNL     1     -45.767 -53.805  14.522  1.00  0.00    -0.104 SA
ENDBRANCH  18  19
ENDBRANCH  17  18
ENDBRANCH  16  17
ENDBRANCH  13  16
ENDBRANCH   1  13
TORSDOF 7
ENDMDL
MODEL 8
REMARK VINA RESULT:      -5.0      2.540      3.756
REMARK  7 active torsions:
REMARK  status: ('A' for Active; 'I' for Inactive)
REMARK    1  A    between atoms: N_5  and  C_6 
REMARK    2  A    between atoms: C_6  and  C_7 
REMARK    3  A    between atoms: C_7  and  O_8 
REMARK    4  A    between atoms: C_7  and  C_9 
REMARK    5  A    between atoms: C_9  and  O_10 
REMARK    6  A    between atoms: O_10  and  C_11 
REMARK    7  A    between atoms: C_11  and  C_12 
ROOT
HETATM    1  C   UNL     1     -40.817 -52.384  11.771  1.00  0.00     0.168 C 
ENDROOT
BRANCH   1   2
HETATM    2  N   UNL     1     -41.133 -53.219  12.905  1.00  0.00    -0.295 N 
HETATM    3  C   UNL     1     -40.192 -53.704  13.836  1.00  0.00     0.329 A 
HETATM    4  N   UNL     1     -40.911 -54.516  14.739  1.00  0.00    -0.302 N 
HETATM    5  O   UNL     1     -38.991 -53.465  13.837  1.00  0.00    -0.246 OA
HETATM    6  C   UNL     1     -40.351 -55.257  15.831  1.00  0.00     0.161 C 
HETATM    7  C   UNL     1     -42.266 -54.499  14.385  1.00  0.00     0.065 A 
HETATM    8  C   UNL     1     -42.405 -53.690  13.254  1.00  0.00     0.066 A 
HETATM    9  C   UNL     1     -43.348 -55.130  14.966  1.00  0.00     0.032 A 
HETATM   10  C   UNL     1     -43.632 -53.470  12.664  1.00  0.00     0.032 A 
HETATM   11  C   UNL     1     -44.741 -54.099  13.242  1.00  0.00     0.002 A 
HETATM   12  C   UNL     1     -44.600 -54.920  14.379  1.00  0.00     0.002 A 
ENDBRANCH   1   2
BRANCH   1  13
HETATM   13  C   UNL     1     -40.111 -51.072  12.163  1.00  0.00     0.160 C 
BRANCH  13  14
HETATM   14  O   UNL     1     -38.695 -51.132  11.952  1.00  0.00    -0.392 OA
HETATM   15  H   UNL     1     -38.277 -50.392  12.431  1.00  0.00     0.210 HD
ENDBRANCH  13  14
BRANCH  13  16
HETATM   16  C   UNL     1     -40.668 -49.897  11.351  1.00  0.00     0.201 C 
BRANCH  16  17
HETATM   17  O   UNL     1     -41.190 -48.903  12.227  1.00  0.00    -0.384 OA
BRANCH  17  18
HETATM   18  C   UNL     1     -42.605 -48.770  12.089  1.00  0.00     0.213 C 
BRANCH  18  19
HETATM   19  C   UNL     1     -42.869 -47.620  11.166  1.00  0.00     0.006 A 
HETATM   20  C   UNL     1     -43.653 -47.559  10.029  1.00  0.00     0.017 A 
HETATM   21  C   UNL     1     -43.644 -46.269   9.427  1.00  0.00     0.008 A 
HETATM   22  C   UNL     1     -42.849 -45.385  10.118  1.00  0.00     0.050 A 
HETATM   23  S   UNL     1     -42.122 -46.108  11.486  1.00  0.00    -0.104 SA
ENDBRANCH  18  19
ENDBRANCH  17  18
ENDBRANCH  16  17
ENDBRANCH  13  16
ENDBRANCH   1  13
TORSDOF 7
ENDMDL
MODEL 9
REMARK VINA RESULT:      -4.9      2.474      3.630
REMARK  7 active torsions:
REMARK  status: ('A' for Active; 'I' for Inactive)
REMARK    1  A    between atoms: N_5  and  C_6 
REMARK    2  A    between atoms: C_6  and  C_7 
REMARK    3  A    between atoms: C_7  and  O_8 
REMARK    4  A    between atoms: C_7  and  C_9 
REMARK    5  A    between atoms: C_9  and  O_10 
REMARK    6  A    between atoms: O_10  and  C_11 
REMARK    7  A    between atoms: C_11  and  C_12 
ROOT
HETATM    1  C   UNL     1     -41.077 -52.386  11.476  1.00  0.00     0.168 C 
ENDROOT
BRANCH   1   2
HETATM    2  N   UNL     1     -41.265 -53.144  12.689  1.00  0.00    -0.295 N 
HETATM    3  C   UNL     1     -40.244 -53.462  13.608  1.00  0.00     0.329 A 
HETATM    4  N   UNL     1     -40.844 -54.253  14.610  1.00  0.00    -0.302 N 
HETATM    5  O   UNL     1     -39.071 -53.120  13.528  1.00  0.00    -0.246 OA
HETATM    6  C   UNL     1     -40.172 -54.845  15.729  1.00  0.00     0.161 C 
HETATM    7  C   UNL     1     -42.209 -54.386  14.325  1.00  0.00     0.065 A 
HETATM    8  C   UNL     1     -42.472 -53.693  13.141  1.00  0.00     0.066 A 
HETATM    9  C   UNL     1     -43.203 -55.057  15.011  1.00  0.00     0.032 A 
HETATM   10  C   UNL     1     -43.738 -53.634  12.598  1.00  0.00     0.032 A 
HETATM   11  C   UNL     1     -44.759 -54.306  13.282  1.00  0.00     0.002 A 
HETATM   12  C   UNL     1     -44.493 -55.010  14.474  1.00  0.00     0.002 A 
ENDBRANCH   1   2
BRANCH   1  13
HETATM   13  C   UNL     1     -40.736 -50.905  11.734  1.00  0.00     0.160 C 
BRANCH  13  14
HETATM   14  O   UNL     1     -40.357 -50.218  10.536  1.00  0.00    -0.392 OA
HETATM   15  H   UNL     1     -39.387 -50.114  10.530  1.00  0.00     0.210 HD
ENDBRANCH  13  14
BRANCH  13  16
HETATM   16  C   UNL     1     -41.936 -50.175  12.348  1.00  0.00     0.201 C 
BRANCH  16  17
HETATM   17  O   UNL     1     -41.487 -49.181  13.263  1.00  0.00    -0.384 OA
BRANCH  17  18
HETATM   18  C   UNL     1     -40.572 -49.719  14.219  1.00  0.00     0.213 C 
BRANCH  18  19
HETATM   19  C   UNL     1     -39.427 -48.763  14.344  1.00  0.00     0.006 A 
HETATM   20  C   UNL     1     -39.397 -47.390  14.181  1.00  0.00     0.017 A 
HETATM   21  C   UNL     1     -38.100 -46.842  14.391  1.00  0.00     0.008 A 
HETATM   22  C   UNL     1     -37.177 -47.812  14.704  1.00  0.00     0.050 A 
HETATM   23  S   UNL     1     -37.873 -49.373  14.746  1.00  0.00    -0.104 SA
ENDBRANCH  18  19
ENDBRANCH  17  18
ENDBRANCH  16  17
ENDBRANCH  13  16
ENDBRANCH   1  13
TORSDOF 7
ENDMDL
