MODEL 1
REMARK VINA RESULT:      -5.7      0.000      0.000
REMARK  3 active torsions:
REMARK  status: ('A' for Active; 'I' for Inactive)
REMARK    1  A    between atoms: N_1  and  C_2 
REMARK    2  A    between atoms: C_5  and  O_6 
REMARK    3  A    between atoms: C_10  and  N_13 
ROOT
HETATM    1  C   UNL     1     -43.364 -47.573   8.127  1.00  0.00     0.158 A 
HETATM    2  N   UNL     1     -43.792 -46.317   8.222  1.00  0.00    -0.312 N 
ATOM      3  HN  UNL     1     -44.331 -45.866   7.484  1.00  0.00     0.170 HD
HETATM    4  C   UNL     1     -43.462 -45.693   9.355  1.00  0.00     0.167 A 
HETATM    5  C   UNL     1     -42.746 -46.241  10.393  1.00  0.00     0.139 A 
HETATM    6  C   UNL     1     -42.497 -45.481  11.570  1.00  0.00     0.107 C 
HETATM    7  N   UNL     1     -42.244 -44.869  12.527  1.00  0.00    -0.191 NA
HETATM    8  C   UNL     1     -42.391 -47.574  10.236  1.00  0.00     0.131 A 
HETATM    9  N   UNL     1     -42.707 -48.228   9.090  1.00  0.00    -0.318 N 
ATOM     10  HN  UNL     1     -42.448 -49.206   8.965  1.00  0.00     0.170 HD
ENDROOT
BRANCH   4  11
HETATM   11  O   UNL     1     -43.961 -44.430   9.424  1.00  0.00    -0.345 OA
HETATM   12  H   UNL     1     -43.163 -43.899   9.253  1.00  0.00     0.219 HD
ENDBRANCH   4  11
BRANCH   8  13
HETATM   13  N   UNL     1     -41.838 -48.322  11.268  1.00  0.00    -0.362 N 
HETATM   14  C   UNL     1     -42.768 -48.953  12.227  1.00  0.00     0.150 C 
HETATM   15  C   UNL     1     -42.004 -49.202  13.543  1.00  0.00     0.187 C 
HETATM   16  O   UNL     1     -40.818 -49.992  13.340  1.00  0.00    -0.388 OA
HETATM   17  C   UNL     1     -39.945 -49.362  12.383  1.00  0.00     0.187 C 
HETATM   18  C   UNL     1     -40.660 -49.183  11.032  1.00  0.00     0.150 C 
ENDBRANCH   8  13
BRANCH   1  19
HETATM   19  N   UNL     1     -43.668 -48.260   6.973  1.00  0.00    -0.274 NA
HETATM   20  H   UNL     1     -44.276 -47.713   6.379  1.00  0.00     0.127 HD
HETATM   21  H   UNL     1     -43.951 -49.205   7.183  1.00  0.00     0.127 HD
ENDBRANCH   1  19
TORSDOF 3
ENDMDL
MODEL 2
REMARK VINA RESULT:      -5.7      6.025      7.633
REMARK  3 active torsions:
REMARK  status: ('A' for Active; 'I' for Inactive)
REMARK    1  A    between atoms: N_1  and  C_2 
REMARK    2  A    between atoms: C_5  and  O_6 
REMARK    3  A    between atoms: C_10  and  N_13 
ROOT
HETATM    1  C   UNL     1     -45.823 -52.858  12.567  1.00  0.00     0.158 A 
HETATM    2  N   UNL     1     -46.476 -53.633  13.427  1.00  0.00    -0.312 N 
ATOM      3  HN  UNL     1     -47.474 -53.823  13.344  1.00  0.00     0.170 HD
HETATM    4  C   UNL     1     -45.728 -54.143  14.408  1.00  0.00     0.167 A 
HETATM    5  C   UNL     1     -44.379 -53.937  14.577  1.00  0.00     0.139 A 
HETATM    6  C   UNL     1     -43.685 -54.576  15.643  1.00  0.00     0.107 C 
HETATM    7  N   UNL     1     -43.101 -55.053  16.528  1.00  0.00    -0.191 NA
HETATM    8  C   UNL     1     -43.765 -53.164  13.599  1.00  0.00     0.131 A 
HETATM    9  N   UNL     1     -44.506 -52.628  12.597  1.00  0.00    -0.318 N 
ATOM     10  HN  UNL     1     -44.064 -52.057  11.877  1.00  0.00     0.170 HD
ENDROOT
BRANCH   4  11
HETATM   11  O   UNL     1     -46.431 -54.964  15.234  1.00  0.00    -0.345 OA
HETATM   12  H   UNL     1     -45.812 -55.061  15.979  1.00  0.00     0.219 HD
ENDBRANCH   4  11
BRANCH   8  13
HETATM   13  N   UNL     1     -42.385 -53.025  13.520  1.00  0.00    -0.362 N 
HETATM   14  C   UNL     1     -41.612 -54.174  13.007  1.00  0.00     0.150 C 
HETATM   15  C   UNL     1     -40.168 -54.056  13.536  1.00  0.00     0.187 C 
HETATM   16  O   UNL     1     -39.564 -52.798  13.185  1.00  0.00    -0.388 OA
HETATM   17  C   UNL     1     -40.354 -51.698  13.680  1.00  0.00     0.187 C 
HETATM   18  C   UNL     1     -41.777 -51.747  13.094  1.00  0.00     0.150 C 
ENDBRANCH   8  13
BRANCH   1  19
HETATM   19  N   UNL     1     -46.551 -52.298  11.541  1.00  0.00    -0.274 NA
HETATM   20  H   UNL     1     -45.956 -52.084  10.752  1.00  0.00     0.127 HD
HETATM   21  H   UNL     1     -47.148 -51.561  11.886  1.00  0.00     0.127 HD
ENDBRANCH   1  19
TORSDOF 3
ENDMDL
MODEL 3
REMARK VINA RESULT:      -5.6      5.676      7.729
REMARK  3 active torsions:
REMARK  status: ('A' for Active; 'I' for Inactive)
REMARK    1  A    between atoms: N_1  and  C_2 
REMARK    2  A    between atoms: C_5  and  O_6 
REMARK    3  A    between atoms: C_10  and  N_13 
ROOT
HETATM    1  C   UNL     1     -41.376 -52.087  12.025  1.00  0.00     0.158 A 
HETATM    2  N   UNL     1     -42.555 -52.621  11.723  1.00  0.00    -0.312 N 
ATOM      3  HN  UNL     1     -43.069 -52.371  10.878  1.00  0.00     0.170 HD
HETATM    4  C   UNL     1     -43.016 -53.509  12.607  1.00  0.00     0.167 A 
HETATM    5  C   UNL     1     -42.375 -53.899  13.759  1.00  0.00     0.139 A 
HETATM    6  C   UNL     1     -42.954 -54.891  14.599  1.00  0.00     0.107 C 
HETATM    7  N   UNL     1     -43.424 -55.669  15.325  1.00  0.00    -0.191 NA
HETATM    8  C   UNL     1     -41.122 -53.336  13.966  1.00  0.00     0.131 A 
HETATM    9  N   UNL     1     -40.636 -52.425  13.086  1.00  0.00    -0.318 N 
ATOM     10  HN  UNL     1     -39.719 -52.004  13.232  1.00  0.00     0.170 HD
ENDROOT
BRANCH   4  11
HETATM   11  O   UNL     1     -44.200 -54.060  12.230  1.00  0.00    -0.345 OA
HETATM   12  H   UNL     1     -43.999 -54.344  11.321  1.00  0.00     0.219 HD
ENDBRANCH   4  11
BRANCH   8  13
HETATM   13  N   UNL     1     -40.271 -53.769  14.975  1.00  0.00    -0.362 N 
HETATM   14  C   UNL     1     -39.041 -54.481  14.571  1.00  0.00     0.150 C 
HETATM   15  C   UNL     1     -38.579 -55.352  15.757  1.00  0.00     0.187 C 
HETATM   16  O   UNL     1     -38.387 -54.578  16.955  1.00  0.00    -0.388 OA
HETATM   17  C   UNL     1     -39.596 -53.878  17.308  1.00  0.00     0.187 C 
HETATM   18  C   UNL     1     -40.028 -52.935  16.171  1.00  0.00     0.150 C 
ENDBRANCH   8  13
BRANCH   1  19
HETATM   19  N   UNL     1     -40.859 -51.157  11.151  1.00  0.00    -0.274 NA
HETATM   20  H   UNL     1     -40.375 -51.610  10.388  1.00  0.00     0.127 HD
HETATM   21  H   UNL     1     -40.366 -50.431  11.649  1.00  0.00     0.127 HD
ENDBRANCH   1  19
TORSDOF 3
ENDMDL
MODEL 4
REMARK VINA RESULT:      -5.6      5.027      7.120
REMARK  3 active torsions:
REMARK  status: ('A' for Active; 'I' for Inactive)
REMARK    1  A    between atoms: N_1  and  C_2 
REMARK    2  A    between atoms: C_5  and  O_6 
REMARK    3  A    between atoms: C_10  and  N_13 
ROOT
HETATM    1  C   UNL     1     -41.197 -51.391  11.638  1.00  0.00     0.158 A 
HETATM    2  N   UNL     1     -40.359 -52.377  11.948  1.00  0.00    -0.312 N 
ATOM      3  HN  UNL     1     -39.403 -52.414  11.596  1.00  0.00     0.170 HD
HETATM    4  C   UNL     1     -40.864 -53.314  12.753  1.00  0.00     0.167 A 
HETATM    5  C   UNL     1     -42.138 -53.324  13.271  1.00  0.00     0.139 A 
HETATM    6  C   UNL     1     -42.542 -54.362  14.157  1.00  0.00     0.107 C 
HETATM    7  N   UNL     1     -42.911 -55.219  14.851  1.00  0.00    -0.191 NA
HETATM    8  C   UNL     1     -42.925 -52.227  12.944  1.00  0.00     0.131 A 
HETATM    9  N   UNL     1     -42.437 -51.266  12.121  1.00  0.00    -0.318 N 
ATOM     10  HN  UNL     1     -43.009 -50.459  11.874  1.00  0.00     0.170 HD
ENDROOT
BRANCH   4  11
HETATM   11  O   UNL     1     -39.957 -54.273  13.077  1.00  0.00    -0.345 OA
HETATM   12  H   UNL     1     -39.195 -54.008  12.533  1.00  0.00     0.219 HD
ENDBRANCH   4  11
BRANCH   8  13
HETATM   13  N   UNL     1     -44.158 -51.994  13.540  1.00  0.00    -0.362 N 
HETATM   14  C   UNL     1     -44.310 -50.758  14.335  1.00  0.00     0.150 C 
HETATM   15  C   UNL     1     -45.459 -50.972  15.341  1.00  0.00     0.187 C 
HETATM   16  O   UNL     1     -46.686 -51.350  14.689  1.00  0.00    -0.388 OA
HETATM   17  C   UNL     1     -46.498 -52.544  13.904  1.00  0.00     0.187 C 
HETATM   18  C   UNL     1     -45.414 -52.325  12.834  1.00  0.00     0.150 C 
ENDBRANCH   8  13
BRANCH   1  19
HETATM   19  N   UNL     1     -40.729 -50.403  10.801  1.00  0.00    -0.274 NA
HETATM   20  H   UNL     1     -41.458 -50.081  10.180  1.00  0.00     0.127 HD
HETATM   21  H   UNL     1     -39.850 -50.672  10.385  1.00  0.00     0.127 HD
ENDBRANCH   1  19
TORSDOF 3
ENDMDL
MODEL 5
REMARK VINA RESULT:      -5.2      3.049      4.982
REMARK  3 active torsions:
REMARK  status: ('A' for Active; 'I' for Inactive)
REMARK    1  A    between atoms: N_1  and  C_2 
REMARK    2  A    between atoms: C_5  and  O_6 
REMARK    3  A    between atoms: C_10  and  N_13 
ROOT
HETATM    1  C   UNL     1     -41.539 -48.298  10.384  1.00  0.00     0.158 A 
HETATM    2  N   UNL     1     -40.867 -49.444  10.427  1.00  0.00    -0.312 N 
ATOM      3  HN  UNL     1     -41.052 -50.212   9.782  1.00  0.00     0.170 HD
HETATM    4  C   UNL     1     -39.932 -49.515  11.377  1.00  0.00     0.167 A 
HETATM    5  C   UNL     1     -39.625 -48.519  12.274  1.00  0.00     0.139 A 
HETATM    6  C   UNL     1     -38.572 -48.704  13.214  1.00  0.00     0.107 C 
HETATM    7  N   UNL     1     -37.745 -48.843  14.020  1.00  0.00    -0.191 NA
HETATM    8  C   UNL     1     -40.333 -47.335  12.120  1.00  0.00     0.131 A 
HETATM    9  N   UNL     1     -41.294 -47.241  11.166  1.00  0.00    -0.318 N 
ATOM     10  HN  UNL     1     -41.821 -46.377  11.048  1.00  0.00     0.170 HD
ENDROOT
BRANCH   4  11
HETATM   11  O   UNL     1     -39.243 -50.687  11.351  1.00  0.00    -0.345 OA
HETATM   12  H   UNL     1     -38.588 -50.507  10.654  1.00  0.00     0.219 HD
ENDBRANCH   4  11
BRANCH   8  13
HETATM   13  N   UNL     1     -40.007 -46.178  12.815  1.00  0.00    -0.362 N 
HETATM   14  C   UNL     1     -39.747 -44.957  12.025  1.00  0.00     0.150 C 
HETATM   15  C   UNL     1     -38.868 -44.015  12.872  1.00  0.00     0.187 C 
HETATM   16  O   UNL     1     -39.465 -43.717  14.147  1.00  0.00    -0.388 OA
HETATM   17  C   UNL     1     -39.727 -44.929  14.882  1.00  0.00     0.187 C 
HETATM   18  C   UNL     1     -40.675 -45.848  14.091  1.00  0.00     0.150 C 
ENDBRANCH   8  13
BRANCH   1  19
HETATM   19  N   UNL     1     -42.522 -48.176   9.428  1.00  0.00    -0.274 NA
HETATM   20  H   UNL     1     -42.980 -47.277   9.494  1.00  0.00     0.127 HD
HETATM   21  H   UNL     1     -43.110 -48.996   9.411  1.00  0.00     0.127 HD
ENDBRANCH   1  19
TORSDOF 3
ENDMDL
MODEL 6
REMARK VINA RESULT:      -5.1      3.773      5.707
REMARK  3 active torsions:
REMARK  status: ('A' for Active; 'I' for Inactive)
REMARK    1  A    between atoms: N_1  and  C_2 
REMARK    2  A    between atoms: C_5  and  O_6 
REMARK    3  A    between atoms: C_10  and  N_13 
ROOT
HETATM    1  C   UNL     1     -41.032 -49.248  10.965  1.00  0.00     0.158 A 
HETATM    2  N   UNL     1     -39.757 -49.619  11.016  1.00  0.00    -0.312 N 
ATOM      3  HN  UNL     1     -39.012 -49.083  10.571  1.00  0.00     0.170 HD
HETATM    4  C   UNL     1     -39.523 -50.744  11.695  1.00  0.00     0.167 A 
HETATM    5  C   UNL     1     -40.475 -51.511  12.326  1.00  0.00     0.139 A 
HETATM    6  C   UNL     1     -40.090 -52.670  13.056  1.00  0.00     0.107 C 
HETATM    7  N   UNL     1     -39.809 -53.645  13.625  1.00  0.00    -0.191 NA
HETATM    8  C   UNL     1     -41.772 -51.018  12.272  1.00  0.00     0.131 A 
HETATM    9  N   UNL     1     -42.035 -49.881  11.582  1.00  0.00    -0.318 N 
ATOM     10  HN  UNL     1     -42.985 -49.513  11.534  1.00  0.00     0.170 HD
ENDROOT
BRANCH   4  11
HETATM   11  O   UNL     1     -38.202 -51.056  11.759  1.00  0.00    -0.345 OA
HETATM   12  H   UNL     1     -38.152 -51.505  12.621  1.00  0.00     0.219 HD
ENDBRANCH   4  11
BRANCH   8  13
HETATM   13  N   UNL     1     -42.807 -51.568  13.017  1.00  0.00    -0.362 N 
HETATM   14  C   UNL     1     -43.743 -50.636  13.679  1.00  0.00     0.150 C 
HETATM   15  C   UNL     1     -44.397 -51.373  14.865  1.00  0.00     0.187 C 
HETATM   16  O   UNL     1     -45.046 -52.591  14.455  1.00  0.00    -0.388 OA
HETATM   17  C   UNL     1     -44.113 -53.467  13.793  1.00  0.00     0.187 C 
HETATM   18  C   UNL     1     -43.512 -52.782  12.553  1.00  0.00     0.150 C 
ENDBRANCH   8  13
BRANCH   1  19
HETATM   19  N   UNL     1     -41.329 -48.098  10.268  1.00  0.00    -0.274 NA
HETATM   20  H   UNL     1     -41.894 -47.473  10.827  1.00  0.00     0.127 HD
HETATM   21  H   UNL     1     -41.658 -48.315   9.339  1.00  0.00     0.127 HD
ENDBRANCH   1  19
TORSDOF 3
ENDMDL
MODEL 7
REMARK VINA RESULT:      -5.1      2.123      2.695
REMARK  3 active torsions:
REMARK  status: ('A' for Active; 'I' for Inactive)
REMARK    1  A    between atoms: N_1  and  C_2 
REMARK    2  A    between atoms: C_5  and  O_6 
REMARK    3  A    between atoms: C_10  and  N_13 
ROOT
HETATM    1  C   UNL     1     -42.491 -47.853   9.800  1.00  0.00     0.158 A 
HETATM    2  N   UNL     1     -43.136 -46.990  10.579  1.00  0.00    -0.312 N 
ATOM      3  HN  UNL     1     -43.875 -46.381  10.228  1.00  0.00     0.170 HD
HETATM    4  C   UNL     1     -42.744 -46.979  11.855  1.00  0.00     0.167 A 
HETATM    5  C   UNL     1     -41.763 -47.775  12.398  1.00  0.00     0.139 A 
HETATM    6  C   UNL     1     -41.468 -47.697  13.789  1.00  0.00     0.107 C 
HETATM    7  N   UNL     1     -41.178 -47.626  14.913  1.00  0.00    -0.191 NA
HETATM    8  C   UNL     1     -41.184 -48.688  11.528  1.00  0.00     0.131 A 
HETATM    9  N   UNL     1     -41.560 -48.713  10.225  1.00  0.00    -0.318 N 
ATOM     10  HN  UNL     1     -41.137 -49.378   9.578  1.00  0.00     0.170 HD
ENDROOT
BRANCH   4  11
HETATM   11  O   UNL     1     -43.464 -46.115  12.620  1.00  0.00    -0.345 OA
HETATM   12  H   UNL     1     -43.185 -45.257  12.252  1.00  0.00     0.219 HD
ENDBRANCH   4  11
BRANCH   8  13
HETATM   13  N   UNL     1     -40.322 -49.687  11.964  1.00  0.00    -0.362 N 
HETATM   14  C   UNL     1     -40.830 -51.074  11.966  1.00  0.00     0.150 C 
HETATM   15  C   UNL     1     -40.005 -51.887  12.984  1.00  0.00     0.187 C 
HETATM   16  O   UNL     1     -38.594 -51.827  12.708  1.00  0.00    -0.388 OA
HETATM   17  C   UNL     1     -38.135 -50.461  12.690  1.00  0.00     0.187 C 
HETATM   18  C   UNL     1     -38.886 -49.651  11.618  1.00  0.00     0.150 C 
ENDBRANCH   8  13
BRANCH   1  19
HETATM   19  N   UNL     1     -42.851 -47.897   8.472  1.00  0.00    -0.274 NA
HETATM   20  H   UNL     1     -42.461 -48.713   8.020  1.00  0.00     0.127 HD
HETATM   21  H   UNL     1     -42.698 -47.003   8.029  1.00  0.00     0.127 HD
ENDBRANCH   1  19
TORSDOF 3
ENDMDL
MODEL 8
REMARK VINA RESULT:      -5.0      2.300      4.333
REMARK  3 active torsions:
REMARK  status: ('A' for Active; 'I' for Inactive)
REMARK    1  A    between atoms: N_1  and  C_2 
REMARK    2  A    between atoms: C_5  and  O_6 
REMARK    3  A    between atoms: C_10  and  N_13 
ROOT
HETATM    1  C   UNL     1     -43.505 -47.066   9.393  1.00  0.00     0.158 A 
HETATM    2  N   UNL     1     -42.691 -48.117   9.374  1.00  0.00    -0.312 N 
ATOM      3  HN  UNL     1     -42.780 -48.866   8.688  1.00  0.00     0.170 HD
HETATM    4  C   UNL     1     -41.749 -48.118  10.320  1.00  0.00     0.167 A 
HETATM    5  C   UNL     1     -41.567 -47.140  11.270  1.00  0.00     0.139 A 
HETATM    6  C   UNL     1     -40.494 -47.238  12.200  1.00  0.00     0.107 C 
HETATM    7  N   UNL     1     -39.651 -47.313  12.998  1.00  0.00    -0.191 NA
HETATM    8  C   UNL     1     -42.423 -46.051  11.179  1.00  0.00     0.131 A 
HETATM    9  N   UNL     1     -43.393 -46.030  10.231  1.00  0.00    -0.318 N 
ATOM     10  HN  UNL     1     -44.028 -45.236  10.159  1.00  0.00     0.170 HD
ENDROOT
BRANCH   4  11
HETATM   11  O   UNL     1     -40.915 -49.188  10.231  1.00  0.00    -0.345 OA
HETATM   12  H   UNL     1     -40.782 -49.406  11.170  1.00  0.00     0.219 HD
ENDBRANCH   4  11
BRANCH   8  13
HETATM   13  N   UNL     1     -42.244 -44.900  11.936  1.00  0.00    -0.362 N 
HETATM   14  C   UNL     1     -42.450 -43.601  11.264  1.00  0.00     0.150 C 
HETATM   15  C   UNL     1     -41.664 -42.527  12.042  1.00  0.00     0.187 C 
HETATM   16  O   UNL     1     -42.039 -42.482  13.431  1.00  0.00    -0.388 OA
HETATM   17  C   UNL     1     -41.848 -43.769  14.051  1.00  0.00     0.187 C 
HETATM   18  C   UNL     1     -42.693 -44.843  13.343  1.00  0.00     0.150 C 
ENDBRANCH   8  13
BRANCH   1  19
HETATM   19  N   UNL     1     -44.501 -47.020   8.443  1.00  0.00    -0.274 NA
HETATM   20  H   UNL     1     -44.129 -47.204   7.522  1.00  0.00     0.127 HD
HETATM   21  H   UNL     1     -45.069 -46.195   8.558  1.00  0.00     0.127 HD
ENDBRANCH   1  19
TORSDOF 3
ENDMDL
MODEL 9
REMARK VINA RESULT:      -5.0      3.421      5.715
REMARK  3 active torsions:
REMARK  status: ('A' for Active; 'I' for Inactive)
REMARK    1  A    between atoms: N_1  and  C_2 
REMARK    2  A    between atoms: C_5  and  O_6 
REMARK    3  A    between atoms: C_10  and  N_13 
ROOT
HETATM    1  C   UNL     1     -43.754 -52.649  12.499  1.00  0.00     0.158 A 
HETATM    2  N   UNL     1     -42.695 -53.310  12.041  1.00  0.00    -0.312 N 
ATOM      3  HN  UNL     1     -42.741 -54.288  11.756  1.00  0.00     0.170 HD
HETATM    4  C   UNL     1     -41.567 -52.597  11.983  1.00  0.00     0.167 A 
HETATM    5  C   UNL     1     -41.435 -51.277  12.342  1.00  0.00     0.139 A 
HETATM    6  C   UNL     1     -40.183 -50.616  12.191  1.00  0.00     0.107 C 
HETATM    7  N   UNL     1     -39.162 -50.064  12.116  1.00  0.00    -0.191 NA
HETATM    8  C   UNL     1     -42.603 -50.648  12.752  1.00  0.00     0.131 A 
HETATM    9  N   UNL     1     -43.759 -51.353  12.827  1.00  0.00    -0.318 N 
ATOM     10  HN  UNL     1     -44.622 -50.900  13.130  1.00  0.00     0.170 HD
ENDROOT
BRANCH   4  11
HETATM   11  O   UNL     1     -40.526 -53.302  11.466  1.00  0.00    -0.345 OA
HETATM   12  H   UNL     1     -39.817 -52.635  11.479  1.00  0.00     0.219 HD
ENDBRANCH   4  11
BRANCH   8  13
HETATM   13  N   UNL     1     -42.675 -49.277  12.961  1.00  0.00    -0.362 N 
HETATM   14  C   UNL     1     -43.218 -48.447  11.866  1.00  0.00     0.150 C 
HETATM   15  C   UNL     1     -42.682 -47.011  12.040  1.00  0.00     0.187 C 
HETATM   16  O   UNL     1     -42.995 -46.470  13.336  1.00  0.00    -0.388 OA
HETATM   17  C   UNL     1     -42.473 -47.314  14.381  1.00  0.00     0.187 C 
HETATM   18  C   UNL     1     -43.063 -48.731  14.279  1.00  0.00     0.150 C 
ENDBRANCH   8  13
BRANCH   1  19
HETATM   19  N   UNL     1     -44.941 -53.341  12.588  1.00  0.00    -0.274 NA
HETATM   20  H   UNL     1     -44.795 -54.256  12.992  1.00  0.00     0.127 HD
HETATM   21  H   UNL     1     -45.451 -53.293  11.719  1.00  0.00     0.127 HD
ENDBRANCH   1  19
TORSDOF 3
ENDMDL
