MODEL 1
REMARK VINA RESULT:      -7.2      0.000      0.000
REMARK  5 active torsions:
REMARK  status: ('A' for Active; 'I' for Inactive)
REMARK    1  A    between atoms: N_8  and  C_9 
REMARK    2  A    between atoms: C_9  and  C_10 
REMARK    3  A    between atoms: C_10  and  O_11 
REMARK    4  A    between atoms: C_10  and  C_12 
REMARK    5  A    between atoms: C_12  and  N_13 
ROOT
HETATM    1  N   UNL     1     -43.415 -46.940  10.427  1.00  0.00    -0.283 N 
HETATM    2  C   UNL     1     -43.471 -45.981   9.463  1.00  0.00     0.202 A 
HETATM    3  N   UNL     1     -44.360 -46.316   8.558  1.00  0.00    -0.327 N 
ATOM      4  HN  UNL     1     -44.626 -45.813   7.711  1.00  0.00     0.169 HD
HETATM    5  C   UNL     1     -44.842 -47.511   9.031  1.00  0.00     0.204 A 
HETATM    6  C   UNL     1     -45.875 -48.244   8.359  1.00  0.00     0.138 C 
HETATM    7  N   UNL     1     -46.715 -48.839   7.811  1.00  0.00    -0.188 NA
HETATM    8  N   UNL     1     -44.271 -47.947  10.167  1.00  0.00    -0.273 N 
ATOM      9  HN  UNL     1     -44.440 -48.806  10.690  1.00  0.00     0.189 HD
ENDROOT
BRANCH   1  10
HETATM   10  C   UNL     1     -42.583 -46.952  11.618  1.00  0.00     0.183 C 
BRANCH  10  11
HETATM   11  C   UNL     1     -41.338 -47.819  11.417  1.00  0.00     0.156 C 
BRANCH  11  12
HETATM   12  C   UNL     1     -41.084 -48.741  12.621  1.00  0.00     0.163 C 
BRANCH  12  13
HETATM   13  N   UNL     1     -41.371 -50.133  12.312  1.00  0.00    -0.339 N 
HETATM   14  C   UNL     1     -40.519 -50.976  11.650  1.00  0.00     0.184 A 
HETATM   15  N   UNL     1     -41.004 -52.192  11.569  1.00  0.00    -0.350 N 
HETATM   16  C   UNL     1     -42.222 -52.135  12.199  1.00  0.00     0.060 A 
ATOM     17  HN  UNL     1     -40.569 -53.005  11.132  1.00  0.00     0.166 HD
HETATM   18  C   UNL     1     -43.153 -53.158  12.424  1.00  0.00     0.039 A 
HETATM   19  C   UNL     1     -42.493 -50.847  12.653  1.00  0.00     0.062 A 
HETATM   20  C   UNL     1     -44.354 -52.869  13.099  1.00  0.00    -0.054 A 
HETATM   21  C   UNL     1     -45.331 -53.990  13.343  1.00  0.00     0.049 C 
HETATM   22  C   UNL     1     -44.617 -51.553  13.538  1.00  0.00    -0.054 A 
HETATM   23  C   UNL     1     -43.683 -50.519  13.313  1.00  0.00     0.039 A 
HETATM   24  C   UNL     1     -45.895 -51.225  14.268  1.00  0.00     0.049 C 
ENDBRANCH  12  13
ENDBRANCH  11  12
BRANCH  11  25
HETATM   25  O   UNL     1     -41.521 -48.595  10.221  1.00  0.00    -0.392 OA
HETATM   26  H   UNL     1     -40.667 -48.763   9.787  1.00  0.00     0.210 HD
ENDBRANCH  11  25
ENDBRANCH  10  11
ENDBRANCH   1  10
TORSDOF 5
ENDMDL
MODEL 2
REMARK VINA RESULT:      -7.1      1.866      2.516
REMARK  5 active torsions:
REMARK  status: ('A' for Active; 'I' for Inactive)
REMARK    1  A    between atoms: N_8  and  C_9 
REMARK    2  A    between atoms: C_9  and  C_10 
REMARK    3  A    between atoms: C_10  and  O_11 
REMARK    4  A    between atoms: C_10  and  C_12 
REMARK    5  A    between atoms: C_12  and  N_13 
ROOT
HETATM    1  N   UNL     1     -40.548 -47.449  11.491  1.00  0.00    -0.283 N 
HETATM    2  C   UNL     1     -41.025 -46.522  12.366  1.00  0.00     0.202 A 
HETATM    3  N   UNL     1     -41.977 -45.824  11.793  1.00  0.00    -0.327 N 
ATOM      4  HN  UNL     1     -42.524 -45.055  12.181  1.00  0.00     0.169 HD
HETATM    5  C   UNL     1     -42.056 -46.384  10.542  1.00  0.00     0.204 A 
HETATM    6  C   UNL     1     -43.004 -45.944   9.560  1.00  0.00     0.138 C 
HETATM    7  N   UNL     1     -43.775 -45.584   8.763  1.00  0.00    -0.188 NA
HETATM    8  N   UNL     1     -41.177 -47.372  10.303  1.00  0.00    -0.273 N 
ATOM      9  HN  UNL     1     -41.027 -47.915   9.453  1.00  0.00     0.189 HD
ENDROOT
BRANCH   1  10
HETATM   10  C   UNL     1     -39.508 -48.436  11.727  1.00  0.00     0.183 C 
BRANCH  10  11
HETATM   11  C   UNL     1     -40.058 -49.859  11.616  1.00  0.00     0.156 C 
BRANCH  11  12
HETATM   12  C   UNL     1     -41.249 -50.085  12.564  1.00  0.00     0.163 C 
BRANCH  12  13
HETATM   13  N   UNL     1     -41.650 -51.482  12.610  1.00  0.00    -0.339 N 
HETATM   14  C   UNL     1     -40.829 -52.539  12.324  1.00  0.00     0.184 A 
HETATM   15  N   UNL     1     -41.433 -53.689  12.513  1.00  0.00    -0.350 N 
HETATM   16  C   UNL     1     -42.697 -53.364  12.936  1.00  0.00     0.060 A 
ATOM     17  HN  UNL     1     -41.045 -54.622  12.376  1.00  0.00     0.166 HD
HETATM   18  C   UNL     1     -43.753 -54.209  13.305  1.00  0.00     0.039 A 
HETATM   19  C   UNL     1     -42.874 -51.984  12.981  1.00  0.00     0.062 A 
HETATM   20  C   UNL     1     -44.981 -53.652  13.710  1.00  0.00    -0.054 A 
HETATM   21  C   UNL     1     -46.094 -54.580  14.117  1.00  0.00     0.049 C 
HETATM   22  C   UNL     1     -45.144 -52.249  13.734  1.00  0.00    -0.054 A 
HETATM   23  C   UNL     1     -44.084 -51.395  13.362  1.00  0.00     0.039 A 
HETATM   24  C   UNL     1     -46.449 -51.633  14.170  1.00  0.00     0.049 C 
ENDBRANCH  12  13
ENDBRANCH  11  12
BRANCH  11  25
HETATM   25  O   UNL     1     -40.454 -50.083  10.253  1.00  0.00    -0.392 OA
HETATM   26  H   UNL     1     -39.717 -50.453   9.738  1.00  0.00     0.210 HD
ENDBRANCH  11  25
ENDBRANCH  10  11
ENDBRANCH   1  10
TORSDOF 5
ENDMDL
MODEL 3
REMARK VINA RESULT:      -7.0      3.185      3.802
REMARK  5 active torsions:
REMARK  status: ('A' for Active; 'I' for Inactive)
REMARK    1  A    between atoms: N_8  and  C_9 
REMARK    2  A    between atoms: C_9  and  C_10 
REMARK    3  A    between atoms: C_10  and  O_11 
REMARK    4  A    between atoms: C_10  and  C_12 
REMARK    5  A    between atoms: C_12  and  N_13 
ROOT
HETATM    1  N   UNL     1     -39.735 -48.114  12.250  1.00  0.00    -0.283 N 
HETATM    2  C   UNL     1     -40.378 -47.333  13.160  1.00  0.00     0.202 A 
HETATM    3  N   UNL     1     -40.541 -46.127  12.669  1.00  0.00    -0.327 N 
ATOM      4  HN  UNL     1     -40.978 -45.316  13.107  1.00  0.00     0.169 HD
HETATM    5  C   UNL     1     -39.978 -46.226  11.421  1.00  0.00     0.204 A 
HETATM    6  C   UNL     1     -39.954 -45.129  10.498  1.00  0.00     0.138 C 
HETATM    7  N   UNL     1     -39.935 -44.235   9.750  1.00  0.00    -0.188 NA
HETATM    8  N   UNL     1     -39.446 -47.425  11.129  1.00  0.00    -0.273 N 
ATOM      9  HN  UNL     1     -38.957 -47.731  10.288  1.00  0.00     0.189 HD
ENDROOT
BRANCH   1  10
HETATM   10  C   UNL     1     -39.377 -49.517  12.381  1.00  0.00     0.183 C 
BRANCH  10  11
HETATM   11  C   UNL     1     -40.314 -50.407  11.563  1.00  0.00     0.156 C 
BRANCH  11  12
HETATM   12  C   UNL     1     -41.735 -50.431  12.151  1.00  0.00     0.163 C 
BRANCH  12  13
HETATM   13  N   UNL     1     -42.181 -51.784  12.443  1.00  0.00    -0.339 N 
HETATM   14  C   UNL     1     -41.433 -52.912  12.240  1.00  0.00     0.184 A 
HETATM   15  N   UNL     1     -42.055 -53.990  12.656  1.00  0.00    -0.350 N 
HETATM   16  C   UNL     1     -43.258 -53.543  13.144  1.00  0.00     0.060 A 
ATOM     17  HN  UNL     1     -41.718 -54.952  12.624  1.00  0.00     0.166 HD
HETATM   18  C   UNL     1     -44.301 -54.270  13.733  1.00  0.00     0.039 A 
HETATM   19  C   UNL     1     -43.378 -52.163  12.999  1.00  0.00     0.062 A 
HETATM   20  C   UNL     1     -45.459 -53.598  14.166  1.00  0.00    -0.054 A 
HETATM   21  C   UNL     1     -46.559 -54.399  14.812  1.00  0.00     0.049 C 
HETATM   22  C   UNL     1     -45.568 -52.200  13.996  1.00  0.00    -0.054 A 
HETATM   23  C   UNL     1     -44.521 -51.464  13.401  1.00  0.00     0.039 A 
HETATM   24  C   UNL     1     -46.799 -51.461  14.457  1.00  0.00     0.049 C 
ENDBRANCH  12  13
ENDBRANCH  11  12
BRANCH  11  25
HETATM   25  O   UNL     1     -40.337 -49.914  10.214  1.00  0.00    -0.392 OA
HETATM   26  H   UNL     1     -39.517 -50.151   9.748  1.00  0.00     0.210 HD
ENDBRANCH  11  25
ENDBRANCH  10  11
ENDBRANCH   1  10
TORSDOF 5
ENDMDL
MODEL 4
REMARK VINA RESULT:      -6.6      2.414      4.547
REMARK  5 active torsions:
REMARK  status: ('A' for Active; 'I' for Inactive)
REMARK    1  A    between atoms: N_8  and  C_9 
REMARK    2  A    between atoms: C_9  and  C_10 
REMARK    3  A    between atoms: C_10  and  O_11 
REMARK    4  A    between atoms: C_10  and  C_12 
REMARK    5  A    between atoms: C_12  and  N_13 
ROOT
HETATM    1  N   UNL     1     -41.253 -50.436  12.250  1.00  0.00    -0.283 N 
HETATM    2  C   UNL     1     -40.067 -50.082  11.685  1.00  0.00     0.202 A 
HETATM    3  N   UNL     1     -40.264 -49.134  10.800  1.00  0.00    -0.327 N 
ATOM      4  HN  UNL     1     -39.580 -48.665  10.206  1.00  0.00     0.169 HD
HETATM    5  C   UNL     1     -41.620 -48.928  10.871  1.00  0.00     0.204 A 
HETATM    6  C   UNL     1     -42.290 -47.937  10.079  1.00  0.00     0.138 C 
HETATM    7  N   UNL     1     -42.833 -47.132   9.434  1.00  0.00    -0.188 NA
HETATM    8  N   UNL     1     -42.274 -49.725  11.732  1.00  0.00    -0.273 N 
ATOM      9  HN  UNL     1     -43.271 -49.778  11.939  1.00  0.00     0.189 HD
ENDROOT
BRANCH   1  10
HETATM   10  C   UNL     1     -41.480 -51.429  13.286  1.00  0.00     0.183 C 
BRANCH  10  11
HETATM   11  C   UNL     1     -41.923 -52.765  12.688  1.00  0.00     0.156 C 
BRANCH  11  12
HETATM   12  C   UNL     1     -42.449 -53.727  13.767  1.00  0.00     0.163 C 
BRANCH  12  13
HETATM   13  N   UNL     1     -43.899 -53.680  13.877  1.00  0.00    -0.339 N 
HETATM   14  C   UNL     1     -44.757 -54.534  13.238  1.00  0.00     0.184 A 
HETATM   15  N   UNL     1     -46.006 -54.308  13.572  1.00  0.00    -0.350 N 
HETATM   16  C   UNL     1     -45.956 -53.263  14.460  1.00  0.00     0.060 A 
ATOM     17  HN  UNL     1     -46.835 -54.804  13.242  1.00  0.00     0.166 HD
HETATM   18  C   UNL     1     -47.002 -52.634  15.148  1.00  0.00     0.039 A 
HETATM   19  C   UNL     1     -44.647 -52.828  14.651  1.00  0.00     0.062 A 
HETATM   20  C   UNL     1     -46.717 -51.565  16.019  1.00  0.00    -0.054 A 
HETATM   21  C   UNL     1     -47.857 -50.917  16.761  1.00  0.00     0.049 C 
HETATM   22  C   UNL     1     -45.385 -51.130  16.188  1.00  0.00    -0.054 A 
HETATM   23  C   UNL     1     -44.329 -51.759  15.496  1.00  0.00     0.039 A 
HETATM   24  C   UNL     1     -45.059 -49.990  17.121  1.00  0.00     0.049 C 
ENDBRANCH  12  13
ENDBRANCH  11  12
BRANCH  11  25
HETATM   25  O   UNL     1     -42.942 -52.503  11.709  1.00  0.00    -0.392 OA
HETATM   26  H   UNL     1     -42.749 -51.684  11.223  1.00  0.00     0.210 HD
ENDBRANCH  11  25
ENDBRANCH  10  11
ENDBRANCH   1  10
TORSDOF 5
ENDMDL
MODEL 5
REMARK VINA RESULT:      -6.5      3.476      5.720
REMARK  5 active torsions:
REMARK  status: ('A' for Active; 'I' for Inactive)
REMARK    1  A    between atoms: N_8  and  C_9 
REMARK    2  A    between atoms: C_9  and  C_10 
REMARK    3  A    between atoms: C_10  and  O_11 
REMARK    4  A    between atoms: C_10  and  C_12 
REMARK    5  A    between atoms: C_12  and  N_13 
ROOT
HETATM    1  N   UNL     1     -38.627 -49.079  13.027  1.00  0.00    -0.283 N 
HETATM    2  C   UNL     1     -38.159 -50.316  13.347  1.00  0.00     0.202 A 
HETATM    3  N   UNL     1     -37.320 -50.223  14.353  1.00  0.00    -0.327 N 
ATOM      4  HN  UNL     1     -36.798 -50.967  14.816  1.00  0.00     0.169 HD
HETATM    5  C   UNL     1     -37.319 -48.878  14.626  1.00  0.00     0.204 A 
HETATM    6  C   UNL     1     -36.547 -48.310  15.693  1.00  0.00     0.138 C 
HETATM    7  N   UNL     1     -35.918 -47.851  16.561  1.00  0.00    -0.188 NA
HETATM    8  N   UNL     1     -38.090 -48.131  13.819  1.00  0.00    -0.273 N 
ATOM      9  HN  UNL     1     -38.231 -47.120  13.808  1.00  0.00     0.189 HD
ENDROOT
BRANCH   1  10
HETATM   10  C   UNL     1     -39.588 -48.736  11.992  1.00  0.00     0.183 C 
BRANCH  10  11
HETATM   11  C   UNL     1     -40.344 -49.974  11.505  1.00  0.00     0.156 C 
BRANCH  11  12
HETATM   12  C   UNL     1     -41.728 -50.093  12.167  1.00  0.00     0.163 C 
BRANCH  12  13
HETATM   13  N   UNL     1     -42.109 -51.479  12.385  1.00  0.00    -0.339 N 
HETATM   14  C   UNL     1     -41.313 -52.559  12.112  1.00  0.00     0.184 A 
HETATM   15  N   UNL     1     -41.881 -53.686  12.471  1.00  0.00    -0.350 N 
HETATM   16  C   UNL     1     -43.097 -53.322  12.995  1.00  0.00     0.060 A 
ATOM     17  HN  UNL     1     -41.501 -54.628  12.381  1.00  0.00     0.166 HD
HETATM   18  C   UNL     1     -44.099 -54.129  13.551  1.00  0.00     0.039 A 
HETATM   19  C   UNL     1     -43.281 -51.944  12.929  1.00  0.00     0.062 A 
HETATM   20  C   UNL     1     -45.282 -53.536  14.031  1.00  0.00    -0.054 A 
HETATM   21  C   UNL     1     -46.337 -54.422  14.640  1.00  0.00     0.049 C 
HETATM   22  C   UNL     1     -45.455 -52.137  13.942  1.00  0.00    -0.054 A 
HETATM   23  C   UNL     1     -44.450 -51.321  13.381  1.00  0.00     0.039 A 
HETATM   24  C   UNL     1     -46.713 -51.482  14.456  1.00  0.00     0.049 C 
ENDBRANCH  12  13
ENDBRANCH  11  12
BRANCH  11  25
HETATM   25  O   UNL     1     -40.478 -49.885  10.077  1.00  0.00    -0.392 OA
HETATM   26  H   UNL     1     -41.363 -49.565   9.834  1.00  0.00     0.210 HD
ENDBRANCH  11  25
ENDBRANCH  10  11
ENDBRANCH   1  10
TORSDOF 5
ENDMDL
MODEL 6
REMARK VINA RESULT:      -6.5      2.005      2.722
REMARK  5 active torsions:
REMARK  status: ('A' for Active; 'I' for Inactive)
REMARK    1  A    between atoms: N_8  and  C_9 
REMARK    2  A    between atoms: C_9  and  C_10 
REMARK    3  A    between atoms: C_10  and  O_11 
REMARK    4  A    between atoms: C_10  and  C_12 
REMARK    5  A    between atoms: C_12  and  N_13 
ROOT
HETATM    1  N   UNL     1     -43.273 -46.868  10.364  1.00  0.00    -0.283 N 
HETATM    2  C   UNL     1     -43.478 -45.805   9.540  1.00  0.00     0.202 A 
HETATM    3  N   UNL     1     -44.584 -45.983   8.856  1.00  0.00    -0.327 N 
ATOM      4  HN  UNL     1     -45.003 -45.373   8.155  1.00  0.00     0.169 HD
HETATM    5  C   UNL     1     -45.037 -47.194   9.319  1.00  0.00     0.204 A 
HETATM    6  C   UNL     1     -46.260 -47.785   8.858  1.00  0.00     0.138 C 
HETATM    7  N   UNL     1     -47.254 -48.264   8.482  1.00  0.00    -0.188 NA
HETATM    8  N   UNL     1     -44.248 -47.788  10.230  1.00  0.00    -0.273 N 
ATOM      9  HN  UNL     1     -44.357 -48.689  10.694  1.00  0.00     0.189 HD
ENDROOT
BRANCH   1  10
HETATM   10  C   UNL     1     -42.181 -47.063  11.304  1.00  0.00     0.183 C 
BRANCH  10  11
HETATM   11  C   UNL     1     -41.377 -48.320  10.967  1.00  0.00     0.156 C 
BRANCH  11  12
HETATM   12  C   UNL     1     -41.785 -49.512  11.851  1.00  0.00     0.163 C 
BRANCH  12  13
HETATM   13  N   UNL     1     -40.629 -50.229  12.365  1.00  0.00    -0.339 N 
HETATM   14  C   UNL     1     -39.342 -49.764  12.325  1.00  0.00     0.184 A 
HETATM   15  N   UNL     1     -38.510 -50.584  12.922  1.00  0.00    -0.350 N 
HETATM   16  C   UNL     1     -39.288 -51.626  13.363  1.00  0.00     0.060 A 
ATOM     17  HN  UNL     1     -37.502 -50.472  13.034  1.00  0.00     0.166 HD
HETATM   18  C   UNL     1     -38.915 -52.767  14.086  1.00  0.00     0.039 A 
HETATM   19  C   UNL     1     -40.621 -51.445  13.003  1.00  0.00     0.062 A 
HETATM   20  C   UNL     1     -39.892 -53.719  14.435  1.00  0.00    -0.054 A 
HETATM   21  C   UNL     1     -39.469 -54.928  15.226  1.00  0.00     0.049 C 
HETATM   22  C   UNL     1     -41.236 -53.524  14.048  1.00  0.00    -0.054 A 
HETATM   23  C   UNL     1     -41.616 -52.377  13.318  1.00  0.00     0.039 A 
HETATM   24  C   UNL     1     -42.297 -54.529  14.416  1.00  0.00     0.049 C 
ENDBRANCH  12  13
ENDBRANCH  11  12
BRANCH  11  25
HETATM   25  O   UNL     1     -41.587 -48.630   9.580  1.00  0.00    -0.392 OA
HETATM   26  H   UNL     1     -41.912 -47.849   9.099  1.00  0.00     0.210 HD
ENDBRANCH  11  25
ENDBRANCH  10  11
ENDBRANCH   1  10
TORSDOF 5
ENDMDL
MODEL 7
REMARK VINA RESULT:      -6.3      2.987      3.817
REMARK  5 active torsions:
REMARK  status: ('A' for Active; 'I' for Inactive)
REMARK    1  A    between atoms: N_8  and  C_9 
REMARK    2  A    between atoms: C_9  and  C_10 
REMARK    3  A    between atoms: C_10  and  O_11 
REMARK    4  A    between atoms: C_10  and  C_12 
REMARK    5  A    between atoms: C_12  and  N_13 
ROOT
HETATM    1  N   UNL     1     -41.458 -47.689  11.249  1.00  0.00    -0.283 N 
HETATM    2  C   UNL     1     -42.309 -46.913  11.975  1.00  0.00     0.202 A 
HETATM    3  N   UNL     1     -43.428 -46.744  11.310  1.00  0.00    -0.327 N 
ATOM      4  HN  UNL     1     -44.253 -46.209  11.580  1.00  0.00     0.169 HD
HETATM    5  C   UNL     1     -43.213 -47.465  10.162  1.00  0.00     0.204 A 
HETATM    6  C   UNL     1     -44.204 -47.586   9.133  1.00  0.00     0.138 C 
HETATM    7  N   UNL     1     -45.012 -47.684   8.297  1.00  0.00    -0.188 NA
HETATM    8  N   UNL     1     -42.004 -48.043  10.070  1.00  0.00    -0.273 N 
ATOM      9  HN  UNL     1     -41.607 -48.599   9.312  1.00  0.00     0.189 HD
ENDROOT
BRANCH   1  10
HETATM   10  C   UNL     1     -40.127 -48.135  11.624  1.00  0.00     0.183 C 
BRANCH  10  11
HETATM   11  C   UNL     1     -40.034 -49.661  11.630  1.00  0.00     0.156 C 
BRANCH  11  12
HETATM   12  C   UNL     1     -41.122 -50.295  12.514  1.00  0.00     0.163 C 
BRANCH  12  13
HETATM   13  N   UNL     1     -40.917 -51.725  12.688  1.00  0.00    -0.339 N 
HETATM   14  C   UNL     1     -41.320 -52.684  11.798  1.00  0.00     0.184 A 
HETATM   15  N   UNL     1     -40.944 -53.884  12.174  1.00  0.00    -0.350 N 
HETATM   16  C   UNL     1     -40.274 -53.696  13.356  1.00  0.00     0.060 A 
ATOM     17  HN  UNL     1     -41.113 -54.766  11.690  1.00  0.00     0.166 HD
HETATM   18  C   UNL     1     -39.641 -54.639  14.177  1.00  0.00     0.039 A 
HETATM   19  C   UNL     1     -40.264 -52.352  13.721  1.00  0.00     0.062 A 
HETATM   20  C   UNL     1     -39.009 -54.218  15.362  1.00  0.00    -0.054 A 
HETATM   21  C   UNL     1     -38.321 -55.249  16.218  1.00  0.00     0.049 C 
HETATM   22  C   UNL     1     -39.023 -52.852  15.720  1.00  0.00    -0.054 A 
HETATM   23  C   UNL     1     -39.660 -51.899  14.899  1.00  0.00     0.039 A 
HETATM   24  C   UNL     1     -38.346 -52.380  16.983  1.00  0.00     0.049 C 
ENDBRANCH  12  13
ENDBRANCH  11  12
BRANCH  11  25
HETATM   25  O   UNL     1     -40.156 -50.124  10.275  1.00  0.00    -0.392 OA
HETATM   26  H   UNL     1     -39.829 -51.036  10.193  1.00  0.00     0.210 HD
ENDBRANCH  11  25
ENDBRANCH  10  11
ENDBRANCH   1  10
TORSDOF 5
ENDMDL
MODEL 8
REMARK VINA RESULT:      -6.3      2.862      3.401
REMARK  5 active torsions:
REMARK  status: ('A' for Active; 'I' for Inactive)
REMARK    1  A    between atoms: N_8  and  C_9 
REMARK    2  A    between atoms: C_9  and  C_10 
REMARK    3  A    between atoms: C_10  and  O_11 
REMARK    4  A    between atoms: C_10  and  C_12 
REMARK    5  A    between atoms: C_12  and  N_13 
ROOT
HETATM    1  N   UNL     1     -40.391 -47.635  12.083  1.00  0.00    -0.283 N 
HETATM    2  C   UNL     1     -40.516 -46.810  11.007  1.00  0.00     0.202 A 
HETATM    3  N   UNL     1     -41.306 -45.807  11.311  1.00  0.00    -0.327 N 
ATOM      4  HN  UNL     1     -41.603 -45.029  10.721  1.00  0.00     0.169 HD
HETATM    5  C   UNL     1     -41.635 -46.062  12.619  1.00  0.00     0.204 A 
HETATM    6  C   UNL     1     -42.478 -45.190  13.385  1.00  0.00     0.138 C 
HETATM    7  N   UNL     1     -43.164 -44.480  14.005  1.00  0.00    -0.188 NA
HETATM    8  N   UNL     1     -41.114 -47.191  13.129  1.00  0.00    -0.273 N 
ATOM      9  HN  UNL     1     -41.234 -47.600  14.055  1.00  0.00     0.189 HD
ENDROOT
BRANCH   1  10
HETATM   10  C   UNL     1     -39.594 -48.846  12.181  1.00  0.00     0.183 C 
BRANCH  10  11
HETATM   11  C   UNL     1     -40.331 -50.045  11.581  1.00  0.00     0.156 C 
BRANCH  11  12
HETATM   12  C   UNL     1     -41.769 -50.156  12.114  1.00  0.00     0.163 C 
BRANCH  12  13
HETATM   13  N   UNL     1     -42.149 -51.537  12.369  1.00  0.00    -0.339 N 
HETATM   14  C   UNL     1     -41.357 -52.624  12.115  1.00  0.00     0.184 A 
HETATM   15  N   UNL     1     -41.923 -53.741  12.505  1.00  0.00    -0.350 N 
HETATM   16  C   UNL     1     -43.134 -53.364  13.030  1.00  0.00     0.060 A 
ATOM     17  HN  UNL     1     -41.545 -54.685  12.434  1.00  0.00     0.166 HD
HETATM   18  C   UNL     1     -44.133 -54.155  13.613  1.00  0.00     0.039 A 
HETATM   19  C   UNL     1     -43.318 -51.987  12.933  1.00  0.00     0.062 A 
HETATM   20  C   UNL     1     -45.311 -53.550  14.089  1.00  0.00    -0.054 A 
HETATM   21  C   UNL     1     -46.362 -54.420  14.727  1.00  0.00     0.049 C 
HETATM   22  C   UNL     1     -45.484 -52.154  13.969  1.00  0.00    -0.054 A 
HETATM   23  C   UNL     1     -44.482 -51.353  13.380  1.00  0.00     0.039 A 
HETATM   24  C   UNL     1     -46.736 -51.485  14.477  1.00  0.00     0.049 C 
ENDBRANCH  12  13
ENDBRANCH  11  12
BRANCH  11  25
HETATM   25  O   UNL     1     -40.336 -49.898  10.151  1.00  0.00    -0.392 OA
HETATM   26  H   UNL     1     -39.854 -49.096   9.887  1.00  0.00     0.210 HD
ENDBRANCH  11  25
ENDBRANCH  10  11
ENDBRANCH   1  10
TORSDOF 5
ENDMDL
MODEL 9
REMARK VINA RESULT:      -6.2      2.565      3.564
REMARK  5 active torsions:
REMARK  status: ('A' for Active; 'I' for Inactive)
REMARK    1  A    between atoms: N_8  and  C_9 
REMARK    2  A    between atoms: C_9  and  C_10 
REMARK    3  A    between atoms: C_10  and  O_11 
REMARK    4  A    between atoms: C_10  and  C_12 
REMARK    5  A    between atoms: C_12  and  N_13 
ROOT
HETATM    1  N   UNL     1     -40.415 -47.654  11.684  1.00  0.00    -0.283 N 
HETATM    2  C   UNL     1     -41.062 -46.980  12.674  1.00  0.00     0.202 A 
HETATM    3  N   UNL     1     -41.990 -46.212  12.151  1.00  0.00    -0.327 N 
ATOM      4  HN  UNL     1     -42.636 -45.581  12.627  1.00  0.00     0.169 HD
HETATM    5  C   UNL     1     -41.877 -46.468  10.807  1.00  0.00     0.204 A 
HETATM    6  C   UNL     1     -42.732 -45.855   9.832  1.00  0.00     0.138 C 
HETATM    7  N   UNL     1     -43.427 -45.355   9.042  1.00  0.00    -0.188 NA
HETATM    8  N   UNL     1     -40.903 -47.331  10.471  1.00  0.00    -0.273 N 
ATOM      9  HN  UNL     1     -40.612 -47.653   9.548  1.00  0.00     0.189 HD
ENDROOT
BRANCH   1  10
HETATM   10  C   UNL     1     -39.339 -48.619  11.827  1.00  0.00     0.183 C 
BRANCH  10  11
HETATM   11  C   UNL     1     -39.825 -50.040  11.533  1.00  0.00     0.156 C 
BRANCH  11  12
HETATM   12  C   UNL     1     -40.886 -50.500  12.548  1.00  0.00     0.163 C 
BRANCH  12  13
HETATM   13  N   UNL     1     -40.371 -51.521  13.447  1.00  0.00    -0.339 N 
HETATM   14  C   UNL     1     -39.108 -51.532  13.974  1.00  0.00     0.184 A 
HETATM   15  N   UNL     1     -38.937 -52.531  14.807  1.00  0.00    -0.350 N 
HETATM   16  C   UNL     1     -40.136 -53.198  14.818  1.00  0.00     0.060 A 
ATOM     17  HN  UNL     1     -38.094 -52.761  15.334  1.00  0.00     0.166 HD
HETATM   18  C   UNL     1     -40.516 -54.328  15.555  1.00  0.00     0.039 A 
HETATM   19  C   UNL     1     -41.050 -52.603  13.952  1.00  0.00     0.062 A 
HETATM   20  C   UNL     1     -41.814 -54.851  15.406  1.00  0.00    -0.054 A 
HETATM   21  C   UNL     1     -42.204 -56.056  16.222  1.00  0.00     0.049 C 
HETATM   22  C   UNL     1     -42.721 -54.242  14.512  1.00  0.00    -0.054 A 
HETATM   23  C   UNL     1     -42.343 -53.106  13.766  1.00  0.00     0.039 A 
HETATM   24  C   UNL     1     -44.118 -54.785  14.342  1.00  0.00     0.049 C 
ENDBRANCH  12  13
ENDBRANCH  11  12
BRANCH  11  25
HETATM   25  O   UNL     1     -40.362 -50.064  10.201  1.00  0.00    -0.392 OA
HETATM   26  H   UNL     1     -40.912 -50.855  10.066  1.00  0.00     0.210 HD
ENDBRANCH  11  25
ENDBRANCH  10  11
ENDBRANCH   1  10
TORSDOF 5
ENDMDL
