MODEL 1
REMARK VINA RESULT:      -6.2      0.000      0.000
REMARK  2 active torsions:
REMARK  status: ('A' for Active; 'I' for Inactive)
REMARK    1  A    between atoms: C_5  and  N_11 
REMARK       I    between atoms: N_11  and  C_12 
REMARK       I    between atoms: C_12  and  N_14 
REMARK    2  A    between atoms: N_14  and  C_15 
ROOT
HETATM    1  N   UNL     1     -42.273 -51.040  12.012  1.00  0.00    -0.338 N 
HETATM    2  C   UNL     1     -41.804 -49.739  12.078  1.00  0.00     0.322 C 
HETATM    3  O   UNL     1     -41.278 -49.290  13.089  1.00  0.00    -0.247 OA
HETATM    4  N   UNL     1     -41.940 -49.094  10.874  1.00  0.00    -0.288 N 
HETATM    5  H   UNL     1     -43.101 -51.186  11.450  1.00  0.00     0.164 HD
HETATM    6  H   UNL     1     -42.132 -49.633  10.050  1.00  0.00     0.172 HD
ENDROOT
BRANCH   1   7
HETATM    7  C   UNL     1     -42.084 -51.919  13.165  1.00  0.00     0.091 C 
HETATM    8  C   UNL     1     -40.771 -52.694  13.051  1.00  0.00     0.066 C 
HETATM    9  C   UNL     1     -40.548 -53.631  14.257  1.00  0.00     0.153 C 
HETATM   10  C   UNL     1     -40.124 -52.853  15.517  1.00  0.00     0.048 C 
HETATM   11  C   UNL     1     -39.378 -54.583  13.919  1.00  0.00     0.048 C 
HETATM   12  N   UNL     1     -41.728 -54.479  14.508  1.00  0.00     0.101 N 
HETATM   13  C   UNL     1     -43.053 -53.826  14.543  1.00  0.00     0.153 C 
HETATM   14  H   UNL     1     -41.753 -55.217  13.801  1.00  0.00     0.317 HD
HETATM   15  C   UNL     1     -43.250 -52.899  13.327  1.00  0.00     0.066 C 
HETATM   16  C   UNL     1     -43.303 -53.080  15.867  1.00  0.00     0.048 C 
HETATM   17  C   UNL     1     -44.103 -54.959  14.476  1.00  0.00     0.048 C 
ENDBRANCH   1   7
BRANCH   4  18
HETATM   18  C   UNL     1     -41.427 -47.836  10.705  1.00  0.00     0.168 A 
HETATM   19  N   UNL     1     -40.181 -47.428  10.654  1.00  0.00    -0.279 N 
HETATM   20  N   UNL     1     -40.091 -46.072  10.400  1.00  0.00    -0.303 N 
ATOM     21  HN  UNL     1     -39.375 -48.038  10.786  1.00  0.00     0.189 HD
HETATM   22  C   UNL     1     -41.280 -45.524  10.274  1.00  0.00     0.160 A 
ATOM     23  HN  UNL     1     -39.212 -45.560  10.321  1.00  0.00     0.186 HD
HETATM   24  S   UNL     1     -42.594 -46.605  10.503  1.00  0.00    -0.046 SA
ENDBRANCH   4  18
TORSDOF 2
ENDMDL
MODEL 2
REMARK VINA RESULT:      -6.2      3.329      6.835
REMARK  2 active torsions:
REMARK  status: ('A' for Active; 'I' for Inactive)
REMARK    1  A    between atoms: C_5  and  N_11 
REMARK       I    between atoms: N_11  and  C_12 
REMARK       I    between atoms: C_12  and  N_14 
REMARK    2  A    between atoms: N_14  and  C_15 
ROOT
HETATM    1  N   UNL     1     -42.180 -51.473  11.829  1.00  0.00    -0.338 N 
HETATM    2  C   UNL     1     -43.076 -51.889  12.798  1.00  0.00     0.322 C 
HETATM    3  O   UNL     1     -43.105 -51.386  13.914  1.00  0.00    -0.247 OA
HETATM    4  N   UNL     1     -43.933 -52.845  12.312  1.00  0.00    -0.288 N 
HETATM    5  H   UNL     1     -41.837 -52.188  11.204  1.00  0.00     0.164 HD
HETATM    6  H   UNL     1     -43.996 -52.987  11.321  1.00  0.00     0.172 HD
ENDROOT
BRANCH   1   7
HETATM    7  C   UNL     1     -41.279 -50.361  12.130  1.00  0.00     0.091 C 
HETATM    8  C   UNL     1     -41.727 -49.086  11.416  1.00  0.00     0.066 C 
HETATM    9  C   UNL     1     -40.791 -47.896  11.717  1.00  0.00     0.153 C 
HETATM   10  C   UNL     1     -41.018 -47.332  13.133  1.00  0.00     0.048 C 
HETATM   11  C   UNL     1     -41.131 -46.754  10.734  1.00  0.00     0.048 C 
HETATM   12  N   UNL     1     -39.378 -48.250  11.489  1.00  0.00     0.101 N 
HETATM   13  C   UNL     1     -38.880 -49.515  12.066  1.00  0.00     0.153 C 
HETATM   14  H   UNL     1     -39.207 -48.268  10.481  1.00  0.00     0.317 HD
HETATM   15  C   UNL     1     -39.831 -50.685  11.749  1.00  0.00     0.066 C 
HETATM   16  C   UNL     1     -38.610 -49.402  13.579  1.00  0.00     0.048 C 
HETATM   17  C   UNL     1     -37.513 -49.794  11.400  1.00  0.00     0.048 C 
ENDBRANCH   1   7
BRANCH   4  18
HETATM   18  C   UNL     1     -44.968 -53.299  13.085  1.00  0.00     0.168 A 
HETATM   19  N   UNL     1     -46.224 -52.924  13.125  1.00  0.00    -0.279 N 
HETATM   20  N   UNL     1     -46.965 -53.689  14.007  1.00  0.00    -0.303 N 
ATOM     21  HN  UNL     1     -46.610 -52.159  12.571  1.00  0.00     0.189 HD
HETATM   22  C   UNL     1     -46.224 -54.605  14.591  1.00  0.00     0.160 A 
ATOM     23  HN  UNL     1     -47.962 -53.560  14.182  1.00  0.00     0.186 HD
HETATM   24  S   UNL     1     -44.565 -54.572  14.150  1.00  0.00    -0.046 SA
ENDBRANCH   4  18
TORSDOF 2
ENDMDL
MODEL 3
REMARK VINA RESULT:      -6.0      1.776      2.361
REMARK  2 active torsions:
REMARK  status: ('A' for Active; 'I' for Inactive)
REMARK    1  A    between atoms: C_5  and  N_11 
REMARK       I    between atoms: N_11  and  C_12 
REMARK       I    between atoms: C_12  and  N_14 
REMARK    2  A    between atoms: N_14  and  C_15 
ROOT
HETATM    1  N   UNL     1     -43.071 -50.657  12.309  1.00  0.00    -0.338 N 
HETATM    2  C   UNL     1     -42.522 -49.387  12.289  1.00  0.00     0.322 C 
HETATM    3  O   UNL     1     -42.416 -48.710  13.304  1.00  0.00    -0.247 OA
HETATM    4  N   UNL     1     -42.065 -49.057  11.037  1.00  0.00    -0.288 N 
HETATM    5  H   UNL     1     -43.600 -50.926  11.491  1.00  0.00     0.164 HD
HETATM    6  H   UNL     1     -41.958 -49.780  10.349  1.00  0.00     0.172 HD
ENDROOT
BRANCH   1   7
HETATM    7  C   UNL     1     -43.486 -51.228  13.590  1.00  0.00     0.091 C 
HETATM    8  C   UNL     1     -43.145 -52.716  13.661  1.00  0.00     0.066 C 
HETATM    9  C   UNL     1     -43.574 -53.343  15.004  1.00  0.00     0.153 C 
HETATM   10  C   UNL     1     -42.627 -52.944  16.152  1.00  0.00     0.048 C 
HETATM   11  C   UNL     1     -43.476 -54.880  14.874  1.00  0.00     0.048 C 
HETATM   12  N   UNL     1     -44.980 -53.032  15.321  1.00  0.00     0.101 N 
HETATM   13  C   UNL     1     -45.423 -51.628  15.190  1.00  0.00     0.153 C 
HETATM   14  H   UNL     1     -45.582 -53.614  14.734  1.00  0.00     0.317 HD
HETATM   15  C   UNL     1     -44.984 -51.029  13.840  1.00  0.00     0.066 C 
HETATM   16  C   UNL     1     -44.960 -50.755  16.372  1.00  0.00     0.048 C 
HETATM   17  C   UNL     1     -46.968 -51.649  15.243  1.00  0.00     0.048 C 
ENDBRANCH   1   7
BRANCH   4  18
HETATM   18  C   UNL     1     -41.383 -47.887  10.839  1.00  0.00     0.168 A 
HETATM   19  N   UNL     1     -40.103 -47.623  10.949  1.00  0.00    -0.279 N 
HETATM   20  N   UNL     1     -39.811 -46.319  10.593  1.00  0.00    -0.303 N 
ATOM     21  HN  UNL     1     -39.405 -48.298  11.261  1.00  0.00     0.189 HD
HETATM   22  C   UNL     1     -40.893 -45.663  10.232  1.00  0.00     0.160 A 
ATOM     23  HN  UNL     1     -38.874 -45.916  10.607  1.00  0.00     0.186 HD
HETATM   24  S   UNL     1     -42.349 -46.567  10.346  1.00  0.00    -0.046 SA
ENDBRANCH   4  18
TORSDOF 2
ENDMDL
MODEL 4
REMARK VINA RESULT:      -6.0      2.227      3.427
REMARK  2 active torsions:
REMARK  status: ('A' for Active; 'I' for Inactive)
REMARK    1  A    between atoms: C_5  and  N_11 
REMARK       I    between atoms: N_11  and  C_12 
REMARK       I    between atoms: C_12  and  N_14 
REMARK    2  A    between atoms: N_14  and  C_15 
ROOT
HETATM    1  N   UNL     1     -42.085 -50.038  13.844  1.00  0.00    -0.338 N 
HETATM    2  C   UNL     1     -41.723 -49.256  12.761  1.00  0.00     0.322 C 
HETATM    3  O   UNL     1     -42.233 -49.400  11.657  1.00  0.00    -0.247 OA
HETATM    4  N   UNL     1     -40.813 -48.293  13.119  1.00  0.00    -0.288 N 
HETATM    5  H   UNL     1     -41.349 -50.258  14.500  1.00  0.00     0.164 HD
HETATM    6  H   UNL     1     -40.669 -48.093  14.092  1.00  0.00     0.172 HD
ENDROOT
BRANCH   1   7
HETATM    7  C   UNL     1     -43.148 -51.028  13.677  1.00  0.00     0.091 C 
HETATM    8  C   UNL     1     -44.401 -50.621  14.452  1.00  0.00     0.066 C 
HETATM    9  C   UNL     1     -45.539 -51.651  14.292  1.00  0.00     0.153 C 
HETATM   10  C   UNL     1     -46.211 -51.554  12.909  1.00  0.00     0.048 C 
HETATM   11  C   UNL     1     -46.635 -51.326  15.332  1.00  0.00     0.048 C 
HETATM   12  N   UNL     1     -45.072 -53.020  14.579  1.00  0.00     0.101 N 
HETATM   13  C   UNL     1     -43.816 -53.469  13.944  1.00  0.00     0.153 C 
HETATM   14  H   UNL     1     -44.974 -53.124  15.591  1.00  0.00     0.317 HD
HETATM   15  C   UNL     1     -42.698 -52.423  14.120  1.00  0.00     0.066 C 
HETATM   16  C   UNL     1     -44.010 -53.842  12.462  1.00  0.00     0.048 C 
HETATM   17  C   UNL     1     -43.397 -54.768  14.669  1.00  0.00     0.048 C 
ENDBRANCH   1   7
BRANCH   4  18
HETATM   18  C   UNL     1     -40.419 -47.345  12.212  1.00  0.00     0.168 A 
HETATM   19  N   UNL     1     -40.142 -47.458  10.936  1.00  0.00    -0.279 N 
HETATM   20  N   UNL     1     -39.846 -46.235  10.361  1.00  0.00    -0.303 N 
ATOM     21  HN  UNL     1     -40.143 -48.341  10.426  1.00  0.00     0.189 HD
HETATM   22  C   UNL     1     -39.915 -45.259  11.240  1.00  0.00     0.160 A 
ATOM     23  HN  UNL     1     -39.605 -46.106   9.378  1.00  0.00     0.186 HD
HETATM   24  S   UNL     1     -40.294 -45.761  12.838  1.00  0.00    -0.046 SA
ENDBRANCH   4  18
TORSDOF 2
ENDMDL
MODEL 5
REMARK VINA RESULT:      -5.7      2.940      7.385
REMARK  2 active torsions:
REMARK  status: ('A' for Active; 'I' for Inactive)
REMARK    1  A    between atoms: C_5  and  N_11 
REMARK       I    between atoms: N_11  and  C_12 
REMARK       I    between atoms: C_12  and  N_14 
REMARK    2  A    between atoms: N_14  and  C_15 
ROOT
HETATM    1  N   UNL     1     -42.280 -48.380  12.192  1.00  0.00    -0.338 N 
HETATM    2  C   UNL     1     -41.555 -49.552  12.063  1.00  0.00     0.322 C 
HETATM    3  O   UNL     1     -40.334 -49.554  11.979  1.00  0.00    -0.247 OA
HETATM    4  N   UNL     1     -42.370 -50.656  12.124  1.00  0.00    -0.288 N 
HETATM    5  H   UNL     1     -43.186 -48.365  11.743  1.00  0.00     0.164 HD
HETATM    6  H   UNL     1     -43.309 -50.552  12.461  1.00  0.00     0.172 HD
ENDROOT
BRANCH   1   7
HETATM    7  C   UNL     1     -41.561 -47.111  12.286  1.00  0.00     0.091 C 
HETATM    8  C   UNL     1     -41.329 -46.721  13.746  1.00  0.00     0.066 C 
HETATM    9  C   UNL     1     -40.571 -45.383  13.873  1.00  0.00     0.153 C 
HETATM   10  C   UNL     1     -39.073 -45.539  13.547  1.00  0.00     0.048 C 
HETATM   11  C   UNL     1     -40.650 -44.921  15.346  1.00  0.00     0.048 C 
HETATM   12  N   UNL     1     -41.201 -44.326  13.060  1.00  0.00     0.101 N 
HETATM   13  C   UNL     1     -41.545 -44.645  11.660  1.00  0.00     0.153 C 
HETATM   14  H   UNL     1     -42.050 -44.014  13.536  1.00  0.00     0.317 HD
HETATM   15  C   UNL     1     -42.303 -45.983  11.563  1.00  0.00     0.066 C 
HETATM   16  C   UNL     1     -40.314 -44.626  10.735  1.00  0.00     0.048 C 
HETATM   17  C   UNL     1     -42.477 -43.513  11.168  1.00  0.00     0.048 C 
ENDBRANCH   1   7
BRANCH   4  18
HETATM   18  C   UNL     1     -41.827 -51.913  12.132  1.00  0.00     0.168 A 
HETATM   19  N   UNL     1     -41.092 -52.524  11.236  1.00  0.00    -0.279 N 
HETATM   20  N   UNL     1     -40.688 -53.776  11.664  1.00  0.00    -0.303 N 
ATOM     21  HN  UNL     1     -40.846 -52.125  10.330  1.00  0.00     0.189 HD
HETATM   22  C   UNL     1     -41.145 -54.045  12.867  1.00  0.00     0.160 A 
ATOM     23  HN  UNL     1     -40.108 -54.411  11.115  1.00  0.00     0.186 HD
HETATM   24  S   UNL     1     -42.138 -52.819  13.546  1.00  0.00    -0.046 SA
ENDBRANCH   4  18
TORSDOF 2
ENDMDL
MODEL 6
REMARK VINA RESULT:      -5.7      3.177      4.314
REMARK  2 active torsions:
REMARK  status: ('A' for Active; 'I' for Inactive)
REMARK    1  A    between atoms: C_5  and  N_11 
REMARK       I    between atoms: N_11  and  C_12 
REMARK       I    between atoms: C_12  and  N_14 
REMARK    2  A    between atoms: N_14  and  C_15 
ROOT
HETATM    1  N   UNL     1     -42.460 -51.707  14.654  1.00  0.00    -0.338 N 
HETATM    2  C   UNL     1     -41.738 -51.555  13.483  1.00  0.00     0.322 C 
HETATM    3  O   UNL     1     -42.214 -51.828  12.388  1.00  0.00    -0.247 OA
HETATM    4  N   UNL     1     -40.503 -51.005  13.722  1.00  0.00    -0.288 N 
HETATM    5  H   UNL     1     -41.932 -51.985  15.469  1.00  0.00     0.164 HD
HETATM    6  H   UNL     1     -40.323 -50.576  14.610  1.00  0.00     0.172 HD
ENDROOT
BRANCH   1   7
HETATM    7  C   UNL     1     -43.851 -52.153  14.575  1.00  0.00     0.091 C 
HETATM    8  C   UNL     1     -43.928 -53.665  14.358  1.00  0.00     0.066 C 
HETATM    9  C   UNL     1     -45.386 -54.161  14.270  1.00  0.00     0.153 C 
HETATM   10  C   UNL     1     -46.064 -54.199  15.653  1.00  0.00     0.048 C 
HETATM   11  C   UNL     1     -45.370 -55.617  13.753  1.00  0.00     0.048 C 
HETATM   12  N   UNL     1     -46.168 -53.373  13.299  1.00  0.00     0.101 N 
HETATM   13  C   UNL     1     -46.080 -51.900  13.375  1.00  0.00     0.153 C 
HETATM   14  H   UNL     1     -45.898 -53.661  12.356  1.00  0.00     0.317 HD
HETATM   15  C   UNL     1     -44.615 -51.432  13.460  1.00  0.00     0.066 C 
HETATM   16  C   UNL     1     -46.924 -51.323  14.527  1.00  0.00     0.048 C 
HETATM   17  C   UNL     1     -46.699 -51.356  12.067  1.00  0.00     0.048 C 
ENDBRANCH   1   7
BRANCH   4  18
HETATM   18  C   UNL     1     -39.685 -50.669  12.677  1.00  0.00     0.168 A 
HETATM   19  N   UNL     1     -39.978 -50.359  11.436  1.00  0.00    -0.279 N 
HETATM   20  N   UNL     1     -38.854 -50.014  10.709  1.00  0.00    -0.303 N 
ATOM     21  HN  UNL     1     -40.923 -50.371  11.053  1.00  0.00     0.189 HD
HETATM   22  C   UNL     1     -37.764 -50.085  11.443  1.00  0.00     0.160 A 
ATOM     23  HN  UNL     1     -38.867 -49.740   9.727  1.00  0.00     0.186 HD
HETATM   24  S   UNL     1     -38.020 -50.622  13.055  1.00  0.00    -0.046 SA
ENDBRANCH   4  18
TORSDOF 2
ENDMDL
MODEL 7
REMARK VINA RESULT:      -5.5      6.869      8.560
REMARK  2 active torsions:
REMARK  status: ('A' for Active; 'I' for Inactive)
REMARK    1  A    between atoms: C_5  and  N_11 
REMARK       I    between atoms: N_11  and  C_12 
REMARK       I    between atoms: C_12  and  N_14 
REMARK    2  A    between atoms: N_14  and  C_15 
ROOT
HETATM    1  N   UNL     1     -42.975 -44.016  11.289  1.00  0.00    -0.338 N 
HETATM    2  C   UNL     1     -42.729 -44.943  10.292  1.00  0.00     0.322 C 
HETATM    3  O   UNL     1     -41.601 -45.355  10.053  1.00  0.00    -0.247 OA
HETATM    4  N   UNL     1     -43.894 -45.366   9.701  1.00  0.00    -0.288 N 
HETATM    5  H   UNL     1     -43.720 -43.356  11.109  1.00  0.00     0.164 HD
HETATM    6  H   UNL     1     -44.769 -45.170  10.150  1.00  0.00     0.172 HD
ENDROOT
BRANCH   1   7
HETATM    7  C   UNL     1     -41.861 -43.556  12.118  1.00  0.00     0.091 C 
HETATM    8  C   UNL     1     -41.507 -44.595  13.182  1.00  0.00     0.066 C 
HETATM    9  C   UNL     1     -40.334 -44.133  14.072  1.00  0.00     0.153 C 
HETATM   10  C   UNL     1     -38.983 -44.240  13.339  1.00  0.00     0.048 C 
HETATM   11  C   UNL     1     -40.247 -45.082  15.288  1.00  0.00     0.048 C 
HETATM   12  N   UNL     1     -40.561 -42.777  14.605  1.00  0.00     0.101 N 
HETATM   13  C   UNL     1     -40.996 -41.727  13.661  1.00  0.00     0.153 C 
HETATM   14  H   UNL     1     -41.250 -42.836  15.358  1.00  0.00     0.317 HD
HETATM   15  C   UNL     1     -42.170 -42.214  12.788  1.00  0.00     0.066 C 
HETATM   16  C   UNL     1     -39.835 -41.196  12.799  1.00  0.00     0.048 C 
HETATM   17  C   UNL     1     -41.480 -40.537  14.521  1.00  0.00     0.048 C 
ENDBRANCH   1   7
BRANCH   4  18
HETATM   18  C   UNL     1     -43.869 -46.371   8.771  1.00  0.00     0.168 A 
HETATM   19  N   UNL     1     -42.979 -46.650   7.849  1.00  0.00    -0.279 N 
HETATM   20  N   UNL     1     -43.300 -47.801   7.152  1.00  0.00    -0.303 N 
ATOM     21  HN  UNL     1     -42.150 -46.086   7.666  1.00  0.00     0.189 HD
HETATM   22  C   UNL     1     -44.422 -48.331   7.587  1.00  0.00     0.160 A 
ATOM     23  HN  UNL     1     -42.737 -48.190   6.396  1.00  0.00     0.186 HD
HETATM   24  S   UNL     1     -45.195 -47.445   8.839  1.00  0.00    -0.046 SA
ENDBRANCH   4  18
TORSDOF 2
ENDMDL
MODEL 8
REMARK VINA RESULT:      -5.5      5.552      7.123
REMARK  2 active torsions:
REMARK  status: ('A' for Active; 'I' for Inactive)
REMARK    1  A    between atoms: C_5  and  N_11 
REMARK       I    between atoms: N_11  and  C_12 
REMARK       I    between atoms: C_12  and  N_14 
REMARK    2  A    between atoms: N_14  and  C_15 
ROOT
HETATM    1  N   UNL     1     -43.352 -46.313  11.769  1.00  0.00    -0.338 N 
HETATM    2  C   UNL     1     -43.496 -46.819  10.489  1.00  0.00     0.322 C 
HETATM    3  O   UNL     1     -42.532 -47.035   9.765  1.00  0.00    -0.247 OA
HETATM    4  N   UNL     1     -44.809 -47.103  10.206  1.00  0.00    -0.288 N 
HETATM    5  H   UNL     1     -44.083 -45.692  12.087  1.00  0.00     0.164 HD
HETATM    6  H   UNL     1     -45.473 -47.141  10.957  1.00  0.00     0.172 HD
ENDROOT
BRANCH   1   7
HETATM    7  C   UNL     1     -42.005 -46.081  12.291  1.00  0.00     0.091 C 
HETATM    8  C   UNL     1     -41.790 -46.835  13.603  1.00  0.00     0.066 C 
HETATM    9  C   UNL     1     -40.375 -46.606  14.175  1.00  0.00     0.153 C 
HETATM   10  C   UNL     1     -39.307 -47.400  13.399  1.00  0.00     0.048 C 
HETATM   11  C   UNL     1     -40.348 -47.141  15.624  1.00  0.00     0.048 C 
HETATM   12  N   UNL     1     -40.046 -45.170  14.244  1.00  0.00     0.101 N 
HETATM   13  C   UNL     1     -40.309 -44.343  13.049  1.00  0.00     0.153 C 
HETATM   14  H   UNL     1     -40.550 -44.760  15.034  1.00  0.00     0.317 HD
HETATM   15  C   UNL     1     -41.728 -44.589  12.501  1.00  0.00     0.066 C 
HETATM   16  C   UNL     1     -39.241 -44.537  11.956  1.00  0.00     0.048 C 
HETATM   17  C   UNL     1     -40.204 -42.869  13.503  1.00  0.00     0.048 C 
ENDBRANCH   1   7
BRANCH   4  18
HETATM   18  C   UNL     1     -45.142 -47.721   9.031  1.00  0.00     0.168 A 
HETATM   19  N   UNL     1     -44.441 -47.894   7.936  1.00  0.00    -0.279 N 
HETATM   20  N   UNL     1     -45.129 -48.637   6.993  1.00  0.00    -0.303 N 
ATOM     21  HN  UNL     1     -43.501 -47.524   7.795  1.00  0.00     0.189 HD
HETATM   22  C   UNL     1     -46.320 -48.986   7.429  1.00  0.00     0.160 A 
ATOM     23  HN  UNL     1     -44.759 -48.883   6.075  1.00  0.00     0.186 HD
HETATM   24  S   UNL     1     -46.711 -48.396   8.994  1.00  0.00    -0.046 SA
ENDBRANCH   4  18
TORSDOF 2
ENDMDL
MODEL 9
REMARK VINA RESULT:      -5.3      2.127      2.765
REMARK  2 active torsions:
REMARK  status: ('A' for Active; 'I' for Inactive)
REMARK    1  A    between atoms: C_5  and  N_11 
REMARK       I    between atoms: N_11  and  C_12 
REMARK       I    between atoms: C_12  and  N_14 
REMARK    2  A    between atoms: N_14  and  C_15 
ROOT
HETATM    1  N   UNL     1     -42.141 -51.700  13.230  1.00  0.00    -0.338 N 
HETATM    2  C   UNL     1     -42.263 -50.483  12.582  1.00  0.00     0.322 C 
HETATM    3  O   UNL     1     -43.286 -49.813  12.646  1.00  0.00    -0.247 OA
HETATM    4  N   UNL     1     -41.092 -50.127  11.959  1.00  0.00    -0.288 N 
HETATM    5  H   UNL     1     -41.586 -52.401  12.760  1.00  0.00     0.164 HD
HETATM    6  H   UNL     1     -40.246 -50.613  12.193  1.00  0.00     0.172 HD
ENDROOT
BRANCH   1   7
HETATM    7  C   UNL     1     -43.249 -52.172  14.061  1.00  0.00     0.091 C 
HETATM    8  C   UNL     1     -42.770 -52.497  15.476  1.00  0.00     0.066 C 
HETATM    9  C   UNL     1     -43.921 -52.999  16.373  1.00  0.00     0.153 C 
HETATM   10  C   UNL     1     -44.846 -51.849  16.816  1.00  0.00     0.048 C 
HETATM   11  C   UNL     1     -43.306 -53.585  17.664  1.00  0.00     0.048 C 
HETATM   12  N   UNL     1     -44.675 -54.089  15.727  1.00  0.00     0.101 N 
HETATM   13  C   UNL     1     -45.099 -53.898  14.325  1.00  0.00     0.153 C 
HETATM   14  H   UNL     1     -44.117 -54.944  15.779  1.00  0.00     0.317 HD
HETATM   15  C   UNL     1     -43.931 -53.400  13.451  1.00  0.00     0.066 C 
HETATM   16  C   UNL     1     -46.326 -52.975  14.205  1.00  0.00     0.048 C 
HETATM   17  C   UNL     1     -45.546 -55.286  13.809  1.00  0.00     0.048 C 
ENDBRANCH   1   7
BRANCH   4  18
HETATM   18  C   UNL     1     -40.976 -48.901  11.361  1.00  0.00     0.168 A 
HETATM   19  N   UNL     1     -41.564 -48.419  10.293  1.00  0.00    -0.279 N 
HETATM   20  N   UNL     1     -41.218 -47.100  10.062  1.00  0.00    -0.303 N 
ATOM     21  HN  UNL     1     -42.202 -48.953   9.703  1.00  0.00     0.189 HD
HETATM   22  C   UNL     1     -40.379 -46.655  10.972  1.00  0.00     0.160 A 
ATOM     23  HN  UNL     1     -41.569 -46.543   9.283  1.00  0.00     0.186 HD
HETATM   24  S   UNL     1     -39.912 -47.818  12.146  1.00  0.00    -0.046 SA
ENDBRANCH   4  18
TORSDOF 2
ENDMDL
