MODEL 1
REMARK VINA RESULT:      -6.3      0.000      0.000
REMARK  5 active torsions:
REMARK  status: ('A' for Active; 'I' for Inactive)
REMARK    1  A    between atoms: N_8  and  C_9 
REMARK    2  A    between atoms: C_9  and  C_10 
REMARK    3  A    between atoms: C_10  and  O_11 
REMARK    4  A    between atoms: C_10  and  C_12 
REMARK    5  A    between atoms: C_12  and  N_13 
ROOT
HETATM    1  C   UNL     1     -46.400 -54.472  14.673  1.00  0.00     0.049 C 
HETATM    2  C   UNL     1     -45.358 -53.584  14.050  1.00  0.00    -0.054 A 
HETATM    3  C   UNL     1     -44.189 -54.171  13.524  1.00  0.00     0.039 A 
HETATM    4  C   UNL     1     -43.192 -53.355  12.972  1.00  0.00     0.060 A 
HETATM    5  N   UNL     1     -41.983 -53.701  12.420  1.00  0.00    -0.350 N 
ATOM      6  HN  UNL     1     -41.598 -54.639  12.310  1.00  0.00     0.166 HD
HETATM    7  C   UNL     1     -41.429 -52.565  12.063  1.00  0.00     0.184 A 
HETATM    8  N   UNL     1     -42.214 -51.496  12.391  1.00  0.00    -0.339 N 
HETATM    9  C   UNL     1     -43.377 -51.978  12.944  1.00  0.00     0.062 A 
HETATM   10  C   UNL     1     -44.534 -51.362  13.430  1.00  0.00     0.039 A 
HETATM   11  C   UNL     1     -45.528 -52.184  13.998  1.00  0.00    -0.054 A 
HETATM   12  C   UNL     1     -46.765 -51.529  14.554  1.00  0.00     0.049 C 
ENDROOT
BRANCH   8  13
HETATM   13  C   UNL     1     -41.873 -50.100  12.185  1.00  0.00     0.163 C 
BRANCH  13  14
HETATM   14  C   UNL     1     -40.477 -49.869  11.574  1.00  0.00     0.164 C 
BRANCH  14  15
HETATM   15  O   UNL     1     -40.509 -49.938  10.143  1.00  0.00    -0.392 OA
HETATM   16  H   UNL     1     -39.794 -50.532   9.850  1.00  0.00     0.210 HD
ENDBRANCH  14  15
BRANCH  14  17
HETATM   17  C   UNL     1     -39.783 -48.561  12.033  1.00  0.00     0.305 C 
BRANCH  17  18
HETATM   18  N   UNL     1     -40.642 -47.387  11.871  1.00  0.00     0.095 N 
HETATM   19  C   UNL     1     -41.001 -46.728  13.145  1.00  0.00     0.298 C 
HETATM   20  C   UNL     1     -42.056 -45.650  12.856  1.00  0.00     0.198 C 
HETATM   21  O   UNL     1     -41.544 -44.654  11.960  1.00  0.00    -0.388 OA
HETATM   22  C   UNL     1     -41.094 -45.257  10.736  1.00  0.00     0.198 C 
HETATM   23  C   UNL     1     -40.048 -46.356  10.995  1.00  0.00     0.298 C 
ENDBRANCH  17  18
ENDBRANCH  14  17
ENDBRANCH  13  14
ENDBRANCH   8  13
TORSDOF 5
ENDMDL
MODEL 2
REMARK VINA RESULT:      -6.3      2.133      3.019
REMARK  5 active torsions:
REMARK  status: ('A' for Active; 'I' for Inactive)
REMARK    1  A    between atoms: N_8  and  C_9 
REMARK    2  A    between atoms: C_9  and  C_10 
REMARK    3  A    between atoms: C_10  and  O_11 
REMARK    4  A    between atoms: C_10  and  C_12 
REMARK    5  A    between atoms: C_12  and  N_13 
ROOT
HETATM    1  C   UNL     1     -46.327 -54.458  14.702  1.00  0.00     0.049 C 
HETATM    2  C   UNL     1     -45.271 -53.594  14.069  1.00  0.00    -0.054 A 
HETATM    3  C   UNL     1     -44.101 -54.203  13.571  1.00  0.00     0.039 A 
HETATM    4  C   UNL     1     -43.091 -53.408  13.011  1.00  0.00     0.060 A 
HETATM    5  N   UNL     1     -41.879 -53.776  12.482  1.00  0.00    -0.350 N 
ATOM      6  HN  UNL     1     -41.500 -54.720  12.399  1.00  0.00     0.166 HD
HETATM    7  C   UNL     1     -41.312 -52.653  12.104  1.00  0.00     0.184 A 
HETATM    8  N   UNL     1     -42.092 -51.571  12.398  1.00  0.00    -0.339 N 
HETATM    9  C   UNL     1     -43.265 -52.031  12.949  1.00  0.00     0.062 A 
HETATM   10  C   UNL     1     -44.423 -51.394  13.405  1.00  0.00     0.039 A 
HETATM   11  C   UNL     1     -45.429 -52.194  13.982  1.00  0.00    -0.054 A 
HETATM   12  C   UNL     1     -46.667 -51.516  14.507  1.00  0.00     0.049 C 
ENDROOT
BRANCH   8  13
HETATM   13  C   UNL     1     -41.737 -50.183  12.162  1.00  0.00     0.163 C 
BRANCH  13  14
HETATM   14  C   UNL     1     -40.348 -49.980  11.525  1.00  0.00     0.164 C 
BRANCH  14  15
HETATM   15  O   UNL     1     -40.433 -49.877  10.098  1.00  0.00    -0.392 OA
HETATM   16  H   UNL     1     -39.935 -49.086   9.819  1.00  0.00     0.210 HD
ENDBRANCH  14  15
BRANCH  14  17
HETATM   17  C   UNL     1     -39.545 -48.787  12.103  1.00  0.00     0.305 C 
BRANCH  17  18
HETATM   18  N   UNL     1     -38.967 -49.085  13.414  1.00  0.00     0.095 N 
HETATM   19  C   UNL     1     -38.187 -50.341  13.451  1.00  0.00     0.298 C 
HETATM   20  C   UNL     1     -37.813 -50.640  14.910  1.00  0.00     0.198 C 
HETATM   21  O   UNL     1     -37.007 -49.589  15.462  1.00  0.00    -0.388 OA
HETATM   22  C   UNL     1     -37.684 -48.326  15.366  1.00  0.00     0.198 C 
HETATM   23  C   UNL     1     -38.089 -48.008  13.915  1.00  0.00     0.298 C 
ENDBRANCH  17  18
ENDBRANCH  14  17
ENDBRANCH  13  14
ENDBRANCH   8  13
TORSDOF 5
ENDMDL
MODEL 3
REMARK VINA RESULT:      -6.1      4.024      5.960
REMARK  5 active torsions:
REMARK  status: ('A' for Active; 'I' for Inactive)
REMARK    1  A    between atoms: N_8  and  C_9 
REMARK    2  A    between atoms: C_9  and  C_10 
REMARK    3  A    between atoms: C_10  and  O_11 
REMARK    4  A    between atoms: C_10  and  C_12 
REMARK    5  A    between atoms: C_12  and  N_13 
ROOT
HETATM    1  C   UNL     1     -47.542 -51.244  16.882  1.00  0.00     0.049 C 
HETATM    2  C   UNL     1     -46.469 -51.442  15.846  1.00  0.00    -0.054 A 
HETATM    3  C   UNL     1     -46.674 -52.394  14.828  1.00  0.00     0.039 A 
HETATM    4  C   UNL     1     -45.670 -52.617  13.875  1.00  0.00     0.060 A 
HETATM    5  N   UNL     1     -45.645 -53.490  12.815  1.00  0.00    -0.350 N 
ATOM      6  HN  UNL     1     -46.378 -54.140  12.531  1.00  0.00     0.166 HD
HETATM    7  C   UNL     1     -44.475 -53.309  12.247  1.00  0.00     0.184 A 
HETATM    8  N   UNL     1     -43.728 -52.379  12.914  1.00  0.00    -0.339 N 
HETATM    9  C   UNL     1     -44.489 -51.887  13.947  1.00  0.00     0.062 A 
HETATM   10  C   UNL     1     -44.262 -50.914  14.926  1.00  0.00     0.039 A 
HETATM   11  C   UNL     1     -45.267 -50.704  15.890  1.00  0.00    -0.054 A 
HETATM   12  C   UNL     1     -45.020 -49.682  16.969  1.00  0.00     0.049 C 
ENDROOT
BRANCH   8  13
HETATM   13  C   UNL     1     -42.371 -51.986  12.580  1.00  0.00     0.163 C 
BRANCH  13  14
HETATM   14  C   UNL     1     -41.306 -53.060  12.875  1.00  0.00     0.164 C 
BRANCH  14  15
HETATM   15  O   UNL     1     -40.646 -53.491  11.678  1.00  0.00    -0.392 OA
HETATM   16  H   UNL     1     -40.784 -52.812  10.992  1.00  0.00     0.210 HD
ENDBRANCH  14  15
BRANCH  14  17
HETATM   17  C   UNL     1     -40.262 -52.651  13.946  1.00  0.00     0.305 C 
BRANCH  17  18
HETATM   18  N   UNL     1     -40.074 -53.684  14.966  1.00  0.00     0.095 N 
HETATM   19  C   UNL     1     -41.248 -54.563  15.150  1.00  0.00     0.298 C 
HETATM   20  C   UNL     1     -41.001 -55.458  16.374  1.00  0.00     0.198 C 
HETATM   21  O   UNL     1     -39.842 -56.282  16.184  1.00  0.00    -0.388 OA
HETATM   22  C   UNL     1     -38.685 -55.476  15.909  1.00  0.00     0.198 C 
HETATM   23  C   UNL     1     -38.910 -54.553  14.697  1.00  0.00     0.298 C 
ENDBRANCH  17  18
ENDBRANCH  14  17
ENDBRANCH  13  14
ENDBRANCH   8  13
TORSDOF 5
ENDMDL
MODEL 4
REMARK VINA RESULT:      -5.9      2.872      3.648
REMARK  5 active torsions:
REMARK  status: ('A' for Active; 'I' for Inactive)
REMARK    1  A    between atoms: N_8  and  C_9 
REMARK    2  A    between atoms: C_9  and  C_10 
REMARK    3  A    between atoms: C_10  and  O_11 
REMARK    4  A    between atoms: C_10  and  C_12 
REMARK    5  A    between atoms: C_12  and  N_13 
ROOT
HETATM    1  C   UNL     1     -47.435 -51.285  16.862  1.00  0.00     0.049 C 
HETATM    2  C   UNL     1     -46.343 -51.429  15.837  1.00  0.00    -0.054 A 
HETATM    3  C   UNL     1     -46.502 -52.373  14.802  1.00  0.00     0.039 A 
HETATM    4  C   UNL     1     -45.479 -52.545  13.859  1.00  0.00     0.060 A 
HETATM    5  N   UNL     1     -45.410 -53.400  12.787  1.00  0.00    -0.350 N 
ATOM      6  HN  UNL     1     -46.117 -54.072  12.484  1.00  0.00     0.166 HD
HETATM    7  C   UNL     1     -44.241 -53.170  12.235  1.00  0.00     0.184 A 
HETATM    8  N   UNL     1     -43.536 -52.224  12.925  1.00  0.00    -0.339 N 
HETATM    9  C   UNL     1     -44.326 -51.774  13.956  1.00  0.00     0.062 A 
HETATM   10  C   UNL     1     -44.145 -50.809  14.951  1.00  0.00     0.039 A 
HETATM   11  C   UNL     1     -45.169 -50.649  15.906  1.00  0.00    -0.054 A 
HETATM   12  C   UNL     1     -44.971 -49.636  17.002  1.00  0.00     0.049 C 
ENDROOT
BRANCH   8  13
HETATM   13  C   UNL     1     -42.190 -51.778  12.614  1.00  0.00     0.163 C 
BRANCH  13  14
HETATM   14  C   UNL     1     -41.100 -52.848  12.820  1.00  0.00     0.164 C 
BRANCH  14  15
HETATM   15  O   UNL     1     -40.584 -53.322  11.570  1.00  0.00    -0.392 OA
HETATM   16  H   UNL     1     -41.185 -54.012  11.234  1.00  0.00     0.210 HD
ENDBRANCH  14  15
BRANCH  14  17
HETATM   17  C   UNL     1     -39.939 -52.410  13.750  1.00  0.00     0.305 C 
BRANCH  17  18
HETATM   18  N   UNL     1     -39.487 -51.046  13.476  1.00  0.00     0.095 N 
HETATM   19  C   UNL     1     -39.425 -50.184  14.676  1.00  0.00     0.298 C 
HETATM   20  C   UNL     1     -39.139 -48.743  14.227  1.00  0.00     0.198 C 
HETATM   21  O   UNL     1     -37.883 -48.656  13.541  1.00  0.00    -0.388 OA
HETATM   22  C   UNL     1     -37.857 -49.547  12.414  1.00  0.00     0.198 C 
HETATM   23  C   UNL     1     -38.159 -50.998  12.830  1.00  0.00     0.298 C 
ENDBRANCH  17  18
ENDBRANCH  14  17
ENDBRANCH  13  14
ENDBRANCH   8  13
TORSDOF 5
ENDMDL
MODEL 5
REMARK VINA RESULT:      -5.8      4.624      6.600
REMARK  5 active torsions:
REMARK  status: ('A' for Active; 'I' for Inactive)
REMARK    1  A    between atoms: N_8  and  C_9 
REMARK    2  A    between atoms: C_9  and  C_10 
REMARK    3  A    between atoms: C_10  and  O_11 
REMARK    4  A    between atoms: C_10  and  C_12 
REMARK    5  A    between atoms: C_12  and  N_13 
ROOT
HETATM    1  C   UNL     1     -39.186 -53.248  15.098  1.00  0.00     0.049 C 
HETATM    2  C   UNL     1     -40.582 -53.634  14.693  1.00  0.00    -0.054 A 
HETATM    3  C   UNL     1     -41.163 -53.009  13.571  1.00  0.00     0.039 A 
HETATM    4  C   UNL     1     -42.477 -53.331  13.201  1.00  0.00     0.060 A 
HETATM    5  N   UNL     1     -43.240 -52.847  12.168  1.00  0.00    -0.350 N 
ATOM      6  HN  UNL     1     -42.969 -52.154  11.469  1.00  0.00     0.166 HD
HETATM    7  C   UNL     1     -44.393 -53.468  12.270  1.00  0.00     0.184 A 
HETATM    8  N   UNL     1     -44.419 -54.309  13.346  1.00  0.00    -0.339 N 
HETATM    9  C   UNL     1     -43.182 -54.271  13.944  1.00  0.00     0.062 A 
HETATM   10  C   UNL     1     -42.629 -54.933  15.045  1.00  0.00     0.039 A 
HETATM   11  C   UNL     1     -41.314 -54.595  15.423  1.00  0.00    -0.054 A 
HETATM   12  C   UNL     1     -40.720 -55.277  16.627  1.00  0.00     0.049 C 
ENDROOT
BRANCH   8  13
HETATM   13  C   UNL     1     -45.558 -55.101  13.773  1.00  0.00     0.163 C 
BRANCH  13  14
HETATM   14  C   UNL     1     -46.436 -54.429  14.847  1.00  0.00     0.164 C 
BRANCH  14  15
HETATM   15  O   UNL     1     -45.904 -54.628  16.163  1.00  0.00    -0.392 OA
HETATM   16  H   UNL     1     -45.204 -53.966  16.313  1.00  0.00     0.210 HD
ENDBRANCH  14  15
BRANCH  14  17
HETATM   17  C   UNL     1     -46.711 -52.923  14.602  1.00  0.00     0.305 C 
BRANCH  17  18
HETATM   18  N   UNL     1     -46.159 -52.074  15.658  1.00  0.00     0.095 N 
HETATM   19  C   UNL     1     -45.135 -51.119  15.184  1.00  0.00     0.298 C 
HETATM   20  C   UNL     1     -44.497 -50.441  16.405  1.00  0.00     0.198 C 
HETATM   21  O   UNL     1     -45.476 -49.717  17.163  1.00  0.00    -0.388 OA
HETATM   22  C   UNL     1     -46.546 -50.585  17.572  1.00  0.00     0.198 C 
HETATM   23  C   UNL     1     -47.193 -51.294  16.369  1.00  0.00     0.298 C 
ENDBRANCH  17  18
ENDBRANCH  14  17
ENDBRANCH  13  14
ENDBRANCH   8  13
TORSDOF 5
ENDMDL
MODEL 6
REMARK VINA RESULT:      -5.8      2.630      7.338
REMARK  5 active torsions:
REMARK  status: ('A' for Active; 'I' for Inactive)
REMARK    1  A    between atoms: N_8  and  C_9 
REMARK    2  A    between atoms: C_9  and  C_10 
REMARK    3  A    between atoms: C_10  and  O_11 
REMARK    4  A    between atoms: C_10  and  C_12 
REMARK    5  A    between atoms: C_12  and  N_13 
ROOT
HETATM    1  C   UNL     1     -39.641 -44.615  13.648  1.00  0.00     0.049 C 
HETATM    2  C   UNL     1     -39.650 -46.081  13.312  1.00  0.00    -0.054 A 
HETATM    3  C   UNL     1     -40.219 -46.497  12.091  1.00  0.00     0.039 A 
HETATM    4  C   UNL     1     -40.267 -47.863  11.778  1.00  0.00     0.060 A 
HETATM    5  N   UNL     1     -40.777 -48.490  10.669  1.00  0.00    -0.350 N 
ATOM      6  HN  UNL     1     -41.216 -48.054   9.857  1.00  0.00     0.166 HD
HETATM    7  C   UNL     1     -40.580 -49.772  10.876  1.00  0.00     0.184 A 
HETATM    8  N   UNL     1     -39.994 -50.002  12.088  1.00  0.00    -0.339 N 
HETATM    9  C   UNL     1     -39.744 -48.785  12.677  1.00  0.00     0.062 A 
HETATM   10  C   UNL     1     -39.146 -48.410  13.883  1.00  0.00     0.039 A 
HETATM   11  C   UNL     1     -39.114 -47.037  14.201  1.00  0.00    -0.054 A 
HETATM   12  C   UNL     1     -38.502 -46.623  15.514  1.00  0.00     0.049 C 
ENDROOT
BRANCH   8  13
HETATM   13  C   UNL     1     -39.689 -51.308  12.646  1.00  0.00     0.163 C 
BRANCH  13  14
HETATM   14  C   UNL     1     -40.836 -52.332  12.533  1.00  0.00     0.164 C 
BRANCH  14  15
HETATM   15  O   UNL     1     -40.449 -53.473  11.757  1.00  0.00    -0.392 OA
HETATM   16  H   UNL     1     -39.736 -53.202  11.151  1.00  0.00     0.210 HD
ENDBRANCH  14  15
BRANCH  14  17
HETATM   17  C   UNL     1     -41.429 -52.783  13.893  1.00  0.00     0.305 C 
BRANCH  17  18
HETATM   18  N   UNL     1     -42.849 -53.126  13.797  1.00  0.00     0.095 N 
HETATM   19  C   UNL     1     -43.462 -52.777  12.497  1.00  0.00     0.298 C 
HETATM   20  C   UNL     1     -44.978 -52.996  12.599  1.00  0.00     0.198 C 
HETATM   21  O   UNL     1     -45.283 -54.366  12.891  1.00  0.00    -0.388 OA
HETATM   22  C   UNL     1     -44.634 -54.784  14.102  1.00  0.00     0.198 C 
HETATM   23  C   UNL     1     -43.112 -54.560  14.037  1.00  0.00     0.298 C 
ENDBRANCH  17  18
ENDBRANCH  14  17
ENDBRANCH  13  14
ENDBRANCH   8  13
TORSDOF 5
ENDMDL
MODEL 7
REMARK VINA RESULT:      -5.6      3.540      5.668
REMARK  5 active torsions:
REMARK  status: ('A' for Active; 'I' for Inactive)
REMARK    1  A    between atoms: N_8  and  C_9 
REMARK    2  A    between atoms: C_9  and  C_10 
REMARK    3  A    between atoms: C_10  and  O_11 
REMARK    4  A    between atoms: C_10  and  C_12 
REMARK    5  A    between atoms: C_12  and  N_13 
ROOT
HETATM    1  C   UNL     1     -39.033 -52.781  14.006  1.00  0.00     0.049 C 
HETATM    2  C   UNL     1     -39.715 -51.618  13.337  1.00  0.00    -0.054 A 
HETATM    3  C   UNL     1     -41.111 -51.481  13.466  1.00  0.00     0.039 A 
HETATM    4  C   UNL     1     -41.767 -50.424  12.820  1.00  0.00     0.060 A 
HETATM    5  N   UNL     1     -43.102 -50.105  12.796  1.00  0.00    -0.350 N 
ATOM      6  HN  UNL     1     -43.865 -50.595  13.264  1.00  0.00     0.166 HD
HETATM    7  C   UNL     1     -43.187 -49.033  12.042  1.00  0.00     0.184 A 
HETATM    8  N   UNL     1     -41.967 -48.665  11.549  1.00  0.00    -0.339 N 
HETATM    9  C   UNL     1     -41.025 -49.522  12.067  1.00  0.00     0.062 A 
HETATM   10  C   UNL     1     -39.635 -49.608  11.938  1.00  0.00     0.039 A 
HETATM   11  C   UNL     1     -38.982 -50.681  12.577  1.00  0.00    -0.054 A 
HETATM   12  C   UNL     1     -37.489 -50.804  12.419  1.00  0.00     0.049 C 
ENDROOT
BRANCH   8  13
HETATM   13  C   UNL     1     -41.719 -47.559  10.643  1.00  0.00     0.163 C 
BRANCH  13  14
HETATM   14  C   UNL     1     -42.934 -46.638  10.413  1.00  0.00     0.164 C 
BRANCH  14  15
HETATM   15  O   UNL     1     -42.816 -45.416  11.152  1.00  0.00    -0.392 OA
HETATM   16  H   UNL     1     -43.519 -45.398  11.827  1.00  0.00     0.210 HD
ENDBRANCH  14  15
BRANCH  14  17
HETATM   17  C   UNL     1     -43.240 -46.339   8.923  1.00  0.00     0.305 C 
BRANCH  17  18
HETATM   18  N   UNL     1     -44.462 -46.999   8.460  1.00  0.00     0.095 N 
HETATM   19  C   UNL     1     -44.216 -48.228   7.675  1.00  0.00     0.298 C 
HETATM   20  C   UNL     1     -45.551 -48.703   7.082  1.00  0.00     0.198 C 
HETATM   21  O   UNL     1     -46.496 -49.007   8.117  1.00  0.00    -0.388 OA
HETATM   22  C   UNL     1     -46.702 -47.867   8.968  1.00  0.00     0.198 C 
HETATM   23  C   UNL     1     -45.377 -47.356   9.563  1.00  0.00     0.298 C 
ENDBRANCH  17  18
ENDBRANCH  14  17
ENDBRANCH  13  14
ENDBRANCH   8  13
TORSDOF 5
ENDMDL
MODEL 8
REMARK VINA RESULT:      -5.4      3.120      4.857
REMARK  5 active torsions:
REMARK  status: ('A' for Active; 'I' for Inactive)
REMARK    1  A    between atoms: N_8  and  C_9 
REMARK    2  A    between atoms: C_9  and  C_10 
REMARK    3  A    between atoms: C_10  and  O_11 
REMARK    4  A    between atoms: C_10  and  C_12 
REMARK    5  A    between atoms: C_12  and  N_13 
ROOT
HETATM    1  C   UNL     1     -48.107 -50.969  16.942  1.00  0.00     0.049 C 
HETATM    2  C   UNL     1     -47.041 -51.692  16.165  1.00  0.00    -0.054 A 
HETATM    3  C   UNL     1     -46.918 -51.442  14.783  1.00  0.00     0.039 A 
HETATM    4  C   UNL     1     -45.953 -52.134  14.037  1.00  0.00     0.060 A 
HETATM    5  N   UNL     1     -45.665 -52.062  12.696  1.00  0.00    -0.350 N 
ATOM      6  HN  UNL     1     -46.115 -51.470  11.997  1.00  0.00     0.166 HD
HETATM    7  C   UNL     1     -44.686 -52.917  12.507  1.00  0.00     0.184 A 
HETATM    8  N   UNL     1     -44.352 -53.564  13.663  1.00  0.00    -0.339 N 
HETATM    9  C   UNL     1     -45.127 -53.050  14.676  1.00  0.00     0.062 A 
HETATM   10  C   UNL     1     -45.200 -53.303  16.049  1.00  0.00     0.039 A 
HETATM   11  C   UNL     1     -46.181 -52.618  16.793  1.00  0.00    -0.054 A 
HETATM   12  C   UNL     1     -46.291 -52.907  18.267  1.00  0.00     0.049 C 
ENDROOT
BRANCH   8  13
HETATM   13  C   UNL     1     -43.351 -54.607  13.790  1.00  0.00     0.163 C 
BRANCH  13  14
HETATM   14  C   UNL     1     -41.967 -54.110  14.254  1.00  0.00     0.164 C 
BRANCH  14  15
HETATM   15  O   UNL     1     -41.521 -54.807  15.424  1.00  0.00    -0.392 OA
HETATM   16  H   UNL     1     -42.283 -54.916  16.022  1.00  0.00     0.210 HD
ENDBRANCH  14  15
BRANCH  14  17
HETATM   17  C   UNL     1     -40.872 -54.144  13.158  1.00  0.00     0.305 C 
BRANCH  17  18
HETATM   18  N   UNL     1     -40.227 -52.844  12.970  1.00  0.00     0.095 N 
HETATM   19  C   UNL     1     -41.171 -51.707  12.942  1.00  0.00     0.298 C 
HETATM   20  C   UNL     1     -40.400 -50.442  12.539  1.00  0.00     0.198 C 
HETATM   21  O   UNL     1     -39.363 -50.147  13.485  1.00  0.00    -0.388 OA
HETATM   22  C   UNL     1     -38.465 -51.261  13.619  1.00  0.00     0.198 C 
HETATM   23  C   UNL     1     -39.214 -52.550  14.005  1.00  0.00     0.298 C 
ENDBRANCH  17  18
ENDBRANCH  14  17
ENDBRANCH  13  14
ENDBRANCH   8  13
TORSDOF 5
ENDMDL
MODEL 9
REMARK VINA RESULT:      -5.4      6.735     10.785
REMARK  5 active torsions:
REMARK  status: ('A' for Active; 'I' for Inactive)
REMARK    1  A    between atoms: N_8  and  C_9 
REMARK    2  A    between atoms: C_9  and  C_10 
REMARK    3  A    between atoms: C_10  and  O_11 
REMARK    4  A    between atoms: C_10  and  C_12 
REMARK    5  A    between atoms: C_12  and  N_13 
ROOT
HETATM    1  C   UNL     1     -46.340 -51.957  12.635  1.00  0.00     0.049 C 
HETATM    2  C   UNL     1     -46.366 -52.280  14.104  1.00  0.00    -0.054 A 
HETATM    3  C   UNL     1     -47.142 -51.478  14.964  1.00  0.00     0.039 A 
HETATM    4  C   UNL     1     -47.150 -51.743  16.341  1.00  0.00     0.060 A 
HETATM    5  N   UNL     1     -47.812 -51.097  17.355  1.00  0.00    -0.350 N 
ATOM      6  HN  UNL     1     -48.435 -50.292  17.273  1.00  0.00     0.166 HD
HETATM    7  C   UNL     1     -47.473 -51.735  18.451  1.00  0.00     0.184 A 
HETATM    8  N   UNL     1     -46.593 -52.748  18.193  1.00  0.00    -0.339 N 
HETATM    9  C   UNL     1     -46.395 -52.802  16.834  1.00  0.00     0.062 A 
HETATM   10  C   UNL     1     -45.636 -53.637  16.008  1.00  0.00     0.039 A 
HETATM   11  C   UNL     1     -45.619 -53.357  14.628  1.00  0.00    -0.054 A 
HETATM   12  C   UNL     1     -44.778 -54.229  13.732  1.00  0.00     0.049 C 
ENDROOT
BRANCH   8  13
HETATM   13  C   UNL     1     -45.981 -53.611  19.187  1.00  0.00     0.163 C 
BRANCH  13  14
HETATM   14  C   UNL     1     -46.489 -55.066  19.168  1.00  0.00     0.164 C 
BRANCH  14  15
HETATM   15  O   UNL     1     -45.431 -55.990  18.885  1.00  0.00    -0.392 OA
HETATM   16  H   UNL     1     -45.827 -56.808  18.532  1.00  0.00     0.210 HD
ENDBRANCH  14  15
BRANCH  14  17
HETATM   17  C   UNL     1     -47.251 -55.497  20.447  1.00  0.00     0.305 C 
BRANCH  17  18
HETATM   18  N   UNL     1     -48.523 -56.155  20.145  1.00  0.00     0.095 N 
HETATM   19  C   UNL     1     -48.477 -57.628  20.261  1.00  0.00     0.298 C 
HETATM   20  C   UNL     1     -49.797 -58.201  19.726  1.00  0.00     0.198 C 
HETATM   21  O   UNL     1     -50.914 -57.721  20.486  1.00  0.00    -0.388 OA
HETATM   22  C   UNL     1     -50.952 -56.286  20.482  1.00  0.00     0.198 C 
HETATM   23  C   UNL     1     -49.633 -55.681  20.997  1.00  0.00     0.298 C 
ENDBRANCH  17  18
ENDBRANCH  14  17
ENDBRANCH  13  14
ENDBRANCH   8  13
TORSDOF 5
ENDMDL
