MODEL 1
REMARK VINA RESULT:      -5.0      0.000      0.000
REMARK  5 active torsions:
REMARK  status: ('A' for Active; 'I' for Inactive)
REMARK    1  A    between atoms: O_2  and  C_3 
REMARK    2  A    between atoms: C_3  and  C_4 
REMARK    3  A    between atoms: C_4  and  N_5 
REMARK    4  A    between atoms: C_6  and  C_15 
REMARK    5  A    between atoms: C_15  and  O_17 
ROOT
HETATM    1  N   UNL     1     -42.659 -51.586  13.258  1.00  0.00    -0.331 N 
HETATM    2  C   UNL     1     -42.133 -52.833  12.923  1.00  0.00     0.113 A 
HETATM    3  N   UNL     1     -43.083 -53.746  12.872  1.00  0.00    -0.342 N 
ATOM      4  HN  UNL     1     -42.974 -54.728  12.619  1.00  0.00     0.167 HD
HETATM    5  C   UNL     1     -44.238 -53.118  13.224  1.00  0.00     0.060 A 
HETATM    6  C   UNL     1     -45.529 -53.659  13.337  1.00  0.00     0.032 A 
HETATM    7  C   UNL     1     -46.591 -52.837  13.730  1.00  0.00     0.002 A 
HETATM    8  C   UNL     1     -46.368 -51.499  14.019  1.00  0.00     0.002 A 
HETATM    9  C   UNL     1     -45.088 -50.949  13.921  1.00  0.00     0.032 A 
HETATM   10  C   UNL     1     -44.021 -51.766  13.505  1.00  0.00     0.062 A 
ENDROOT
BRANCH   1  11
HETATM   11  C   UNL     1     -41.891 -50.337  13.279  1.00  0.00     0.156 C 
BRANCH  11  12
HETATM   12  C   UNL     1     -41.728 -49.681  11.912  1.00  0.00     0.187 C 
BRANCH  12  13
HETATM   13  O   UNL     1     -40.630 -50.133  11.125  1.00  0.00    -0.394 OA
HETATM   14  C   UNL     1     -39.412 -49.728  11.769  1.00  0.00     0.201 C 
ENDBRANCH  12  13
ENDBRANCH  11  12
ENDBRANCH   1  11
BRANCH   2  15
HETATM   15  C   UNL     1     -40.680 -53.137  12.677  1.00  0.00     0.181 C 
HETATM   16  C   UNL     1     -40.229 -54.395  13.424  1.00  0.00     0.047 C 
BRANCH  15  17
HETATM   17  O   UNL     1     -40.503 -53.339  11.277  1.00  0.00    -0.388 OA
HETATM   18  H   UNL     1     -39.726 -52.813  11.018  1.00  0.00     0.210 HD
ENDBRANCH  15  17
ENDBRANCH   2  15
TORSDOF 5
ENDMDL
MODEL 2
REMARK VINA RESULT:      -4.9      2.593      4.843
REMARK  5 active torsions:
REMARK  status: ('A' for Active; 'I' for Inactive)
REMARK    1  A    between atoms: O_2  and  C_3 
REMARK    2  A    between atoms: C_3  and  C_4 
REMARK    3  A    between atoms: C_4  and  N_5 
REMARK    4  A    between atoms: C_6  and  C_15 
REMARK    5  A    between atoms: C_15  and  O_17 
ROOT
HETATM    1  N   UNL     1     -39.919 -50.319  12.817  1.00  0.00    -0.331 N 
HETATM    2  C   UNL     1     -40.850 -51.166  12.215  1.00  0.00     0.113 A 
HETATM    3  N   UNL     1     -41.581 -50.511  11.335  1.00  0.00    -0.342 N 
ATOM      4  HN  UNL     1     -42.308 -50.900  10.735  1.00  0.00     0.167 HD
HETATM    5  C   UNL     1     -41.175 -49.214  11.387  1.00  0.00     0.060 A 
HETATM    6  C   UNL     1     -41.655 -48.116  10.655  1.00  0.00     0.032 A 
HETATM    7  C   UNL     1     -41.103 -46.848  10.868  1.00  0.00     0.002 A 
HETATM    8  C   UNL     1     -40.098 -46.673  11.807  1.00  0.00     0.002 A 
HETATM    9  C   UNL     1     -39.616 -47.754  12.550  1.00  0.00     0.032 A 
HETATM   10  C   UNL     1     -40.152 -49.034  12.323  1.00  0.00     0.062 A 
ENDROOT
BRANCH   1  11
HETATM   11  C   UNL     1     -38.875 -50.757  13.748  1.00  0.00     0.156 C 
BRANCH  11  12
HETATM   12  C   UNL     1     -37.468 -50.749  13.159  1.00  0.00     0.187 C 
BRANCH  12  13
HETATM   13  O   UNL     1     -37.334 -51.288  11.846  1.00  0.00    -0.394 OA
HETATM   14  C   UNL     1     -37.078 -50.208  10.936  1.00  0.00     0.201 C 
ENDBRANCH  12  13
ENDBRANCH  11  12
ENDBRANCH   1  11
BRANCH   2  15
HETATM   15  C   UNL     1     -41.038 -52.626  12.526  1.00  0.00     0.181 C 
HETATM   16  C   UNL     1     -42.511 -52.968  12.769  1.00  0.00     0.047 C 
BRANCH  15  17
HETATM   17  O   UNL     1     -40.565 -53.379  11.412  1.00  0.00    -0.388 OA
HETATM   18  H   UNL     1     -40.684 -52.815  10.627  1.00  0.00     0.210 HD
ENDBRANCH  15  17
ENDBRANCH   2  15
TORSDOF 5
ENDMDL
MODEL 3
REMARK VINA RESULT:      -4.9      1.988      2.724
REMARK  5 active torsions:
REMARK  status: ('A' for Active; 'I' for Inactive)
REMARK    1  A    between atoms: O_2  and  C_3 
REMARK    2  A    between atoms: C_3  and  C_4 
REMARK    3  A    between atoms: C_4  and  N_5 
REMARK    4  A    between atoms: C_6  and  C_15 
REMARK    5  A    between atoms: C_15  and  O_17 
ROOT
HETATM    1  N   UNL     1     -42.661 -51.813  13.957  1.00  0.00    -0.331 N 
HETATM    2  C   UNL     1     -42.240 -52.590  12.879  1.00  0.00     0.113 A 
HETATM    3  N   UNL     1     -43.265 -52.962  12.138  1.00  0.00    -0.342 N 
ATOM      4  HN  UNL     1     -43.231 -53.506  11.277  1.00  0.00     0.167 HD
HETATM    5  C   UNL     1     -44.378 -52.476  12.751  1.00  0.00     0.060 A 
HETATM    6  C   UNL     1     -45.722 -52.613  12.365  1.00  0.00     0.032 A 
HETATM    7  C   UNL     1     -46.728 -52.041  13.149  1.00  0.00     0.002 A 
HETATM    8  C   UNL     1     -46.404 -51.354  14.309  1.00  0.00     0.002 A 
HETATM    9  C   UNL     1     -45.073 -51.216  14.711  1.00  0.00     0.032 A 
HETATM   10  C   UNL     1     -44.056 -51.771  13.914  1.00  0.00     0.062 A 
ENDROOT
BRANCH   1  11
HETATM   11  C   UNL     1     -41.763 -51.140  14.901  1.00  0.00     0.156 C 
BRANCH  11  12
HETATM   12  C   UNL     1     -41.734 -51.766  16.291  1.00  0.00     0.187 C 
BRANCH  12  13
HETATM   13  O   UNL     1     -41.987 -53.167  16.354  1.00  0.00    -0.394 OA
HETATM   14  C   UNL     1     -40.911 -53.792  17.070  1.00  0.00     0.201 C 
ENDBRANCH  12  13
ENDBRANCH  11  12
ENDBRANCH   1  11
BRANCH   2  15
HETATM   15  C   UNL     1     -40.819 -52.993  12.589  1.00  0.00     0.181 C 
HETATM   16  C   UNL     1     -40.418 -54.251  13.364  1.00  0.00     0.047 C 
BRANCH  15  17
HETATM   17  O   UNL     1     -40.712 -53.255  11.192  1.00  0.00    -0.388 OA
HETATM   18  H   UNL     1     -39.810 -52.998  10.931  1.00  0.00     0.210 HD
ENDBRANCH  15  17
ENDBRANCH   2  15
TORSDOF 5
ENDMDL
MODEL 4
REMARK VINA RESULT:      -4.7      1.790      2.294
REMARK  5 active torsions:
REMARK  status: ('A' for Active; 'I' for Inactive)
REMARK    1  A    between atoms: O_2  and  C_3 
REMARK    2  A    between atoms: C_3  and  C_4 
REMARK    3  A    between atoms: C_4  and  N_5 
REMARK    4  A    between atoms: C_6  and  C_15 
REMARK    5  A    between atoms: C_15  and  O_17 
ROOT
HETATM    1  N   UNL     1     -41.580 -53.197  12.908  1.00  0.00    -0.331 N 
HETATM    2  C   UNL     1     -40.822 -53.785  13.920  1.00  0.00     0.113 A 
HETATM    3  N   UNL     1     -41.574 -54.552  14.685  1.00  0.00    -0.342 N 
ATOM      4  HN  UNL     1     -41.265 -55.120  15.473  1.00  0.00     0.167 HD
HETATM    5  C   UNL     1     -42.845 -54.434  14.215  1.00  0.00     0.060 A 
HETATM    6  C   UNL     1     -44.018 -55.040  14.697  1.00  0.00     0.032 A 
HETATM    7  C   UNL     1     -45.240 -54.775  14.072  1.00  0.00     0.002 A 
HETATM    8  C   UNL     1     -45.299 -53.908  12.991  1.00  0.00     0.002 A 
HETATM    9  C   UNL     1     -44.143 -53.291  12.506  1.00  0.00     0.032 A 
HETATM   10  C   UNL     1     -42.908 -53.571  13.117  1.00  0.00     0.062 A 
ENDROOT
BRANCH   1  11
HETATM   11  C   UNL     1     -41.027 -52.387  11.817  1.00  0.00     0.156 C 
BRANCH  11  12
HETATM   12  C   UNL     1     -41.164 -50.882  12.024  1.00  0.00     0.187 C 
BRANCH  12  13
HETATM   13  O   UNL     1     -40.238 -50.285  12.927  1.00  0.00    -0.394 OA
HETATM   14  C   UNL     1     -39.435 -49.345  12.198  1.00  0.00     0.201 C 
ENDBRANCH  12  13
ENDBRANCH  11  12
ENDBRANCH   1  11
BRANCH   2  15
HETATM   15  C   UNL     1     -39.351 -53.572  14.153  1.00  0.00     0.181 C 
HETATM   16  C   UNL     1     -38.985 -53.718  15.633  1.00  0.00     0.047 C 
BRANCH  15  17
HETATM   17  O   UNL     1     -38.639 -54.551  13.400  1.00  0.00    -0.388 OA
HETATM   18  H   UNL     1     -37.709 -54.495  13.683  1.00  0.00     0.210 HD
ENDBRANCH  15  17
ENDBRANCH   2  15
TORSDOF 5
ENDMDL
MODEL 5
REMARK VINA RESULT:      -4.7      2.836      5.583
REMARK  5 active torsions:
REMARK  status: ('A' for Active; 'I' for Inactive)
REMARK    1  A    between atoms: O_2  and  C_3 
REMARK    2  A    between atoms: C_3  and  C_4 
REMARK    3  A    between atoms: C_4  and  N_5 
REMARK    4  A    between atoms: C_6  and  C_15 
REMARK    5  A    between atoms: C_15  and  O_17 
ROOT
HETATM    1  N   UNL     1     -43.574 -53.480  13.826  1.00  0.00    -0.331 N 
HETATM    2  C   UNL     1     -44.404 -52.640  13.085  1.00  0.00     0.113 A 
HETATM    3  N   UNL     1     -43.695 -51.764  12.401  1.00  0.00    -0.342 N 
ATOM      4  HN  UNL     1     -44.052 -51.060  11.755  1.00  0.00     0.167 HD
HETATM    5  C   UNL     1     -42.393 -51.985  12.727  1.00  0.00     0.060 A 
HETATM    6  C   UNL     1     -41.249 -51.305  12.277  1.00  0.00     0.032 A 
HETATM    7  C   UNL     1     -39.988 -51.685  12.748  1.00  0.00     0.002 A 
HETATM    8  C   UNL     1     -39.868 -52.718  13.665  1.00  0.00     0.002 A 
HETATM    9  C   UNL     1     -40.997 -53.399  14.129  1.00  0.00     0.032 A 
HETATM   10  C   UNL     1     -42.264 -53.034  13.641  1.00  0.00     0.062 A 
ENDROOT
BRANCH   1  11
HETATM   11  C   UNL     1     -44.037 -54.639  14.598  1.00  0.00     0.156 C 
BRANCH  11  12
HETATM   12  C   UNL     1     -44.178 -54.378  16.093  1.00  0.00     0.187 C 
BRANCH  12  13
HETATM   13  O   UNL     1     -45.482 -54.550  16.641  1.00  0.00    -0.394 OA
HETATM   14  C   UNL     1     -46.046 -53.253  16.888  1.00  0.00     0.201 C 
ENDBRANCH  12  13
ENDBRANCH  11  12
ENDBRANCH   1  11
BRANCH   2  15
HETATM   15  C   UNL     1     -45.908 -52.682  13.068  1.00  0.00     0.181 C 
HETATM   16  C   UNL     1     -46.516 -51.449  13.740  1.00  0.00     0.047 C 
BRANCH  15  17
HETATM   17  O   UNL     1     -46.332 -52.726  11.707  1.00  0.00    -0.388 OA
HETATM   18  H   UNL     1     -47.053 -52.076  11.622  1.00  0.00     0.210 HD
ENDBRANCH  15  17
ENDBRANCH   2  15
TORSDOF 5
ENDMDL
MODEL 6
REMARK VINA RESULT:      -4.5      4.489      7.225
REMARK  5 active torsions:
REMARK  status: ('A' for Active; 'I' for Inactive)
REMARK    1  A    between atoms: O_2  and  C_3 
REMARK    2  A    between atoms: C_3  and  C_4 
REMARK    3  A    between atoms: C_4  and  N_5 
REMARK    4  A    between atoms: C_6  and  C_15 
REMARK    5  A    between atoms: C_15  and  O_17 
ROOT
HETATM    1  N   UNL     1     -41.380 -47.608  11.298  1.00  0.00    -0.331 N 
HETATM    2  C   UNL     1     -41.974 -46.988  10.199  1.00  0.00     0.113 A 
HETATM    3  N   UNL     1     -41.537 -45.752  10.063  1.00  0.00    -0.342 N 
ATOM      4  HN  UNL     1     -41.785 -45.094   9.325  1.00  0.00     0.167 HD
HETATM    5  C   UNL     1     -40.689 -45.528  11.103  1.00  0.00     0.060 A 
HETATM    6  C   UNL     1     -39.977 -44.358  11.416  1.00  0.00     0.032 A 
HETATM    7  C   UNL     1     -39.158 -44.330  12.550  1.00  0.00     0.002 A 
HETATM    8  C   UNL     1     -39.062 -45.445  13.370  1.00  0.00     0.002 A 
HETATM    9  C   UNL     1     -39.772 -46.612  13.077  1.00  0.00     0.032 A 
HETATM   10  C   UNL     1     -40.578 -46.653  11.925  1.00  0.00     0.062 A 
ENDROOT
BRANCH   1  11
HETATM   11  C   UNL     1     -41.556 -49.019  11.654  1.00  0.00     0.156 C 
BRANCH  11  12
HETATM   12  C   UNL     1     -40.386 -49.914  11.257  1.00  0.00     0.187 C 
BRANCH  12  13
HETATM   13  O   UNL     1     -39.342 -50.045  12.218  1.00  0.00    -0.394 OA
HETATM   14  C   UNL     1     -38.092 -49.753  11.574  1.00  0.00     0.201 C 
ENDBRANCH  12  13
ENDBRANCH  11  12
ENDBRANCH   1  11
BRANCH   2  15
HETATM   15  C   UNL     1     -43.000 -47.608   9.289  1.00  0.00     0.181 C 
HETATM   16  C   UNL     1     -44.418 -47.456   9.847  1.00  0.00     0.047 C 
BRANCH  15  17
HETATM   17  O   UNL     1     -42.925 -46.950   8.027  1.00  0.00    -0.388 OA
HETATM   18  H   UNL     1     -42.793 -47.647   7.360  1.00  0.00     0.210 HD
ENDBRANCH  15  17
ENDBRANCH   2  15
TORSDOF 5
ENDMDL
MODEL 7
REMARK VINA RESULT:      -4.4      2.682      4.696
REMARK  5 active torsions:
REMARK  status: ('A' for Active; 'I' for Inactive)
REMARK    1  A    between atoms: O_2  and  C_3 
REMARK    2  A    between atoms: C_3  and  C_4 
REMARK    3  A    between atoms: C_4  and  N_5 
REMARK    4  A    between atoms: C_6  and  C_15 
REMARK    5  A    between atoms: C_15  and  O_17 
ROOT
HETATM    1  N   UNL     1     -42.591 -53.338  14.184  1.00  0.00    -0.331 N 
HETATM    2  C   UNL     1     -41.427 -53.330  13.416  1.00  0.00     0.113 A 
HETATM    3  N   UNL     1     -40.508 -54.111  13.947  1.00  0.00    -0.342 N 
ATOM      4  HN  UNL     1     -39.581 -54.309  13.569  1.00  0.00     0.167 HD
HETATM    5  C   UNL     1     -41.039 -54.602  15.099  1.00  0.00     0.060 A 
HETATM    6  C   UNL     1     -40.452 -55.468  16.036  1.00  0.00     0.032 A 
HETATM    7  C   UNL     1     -41.171 -55.847  17.174  1.00  0.00     0.002 A 
HETATM    8  C   UNL     1     -42.452 -55.360  17.384  1.00  0.00     0.002 A 
HETATM    9  C   UNL     1     -43.047 -54.490  16.466  1.00  0.00     0.032 A 
HETATM   10  C   UNL     1     -42.336 -54.124  15.310  1.00  0.00     0.062 A 
ENDROOT
BRANCH   1  11
HETATM   11  C   UNL     1     -43.843 -52.673  13.808  1.00  0.00     0.156 C 
BRANCH  11  12
HETATM   12  C   UNL     1     -44.638 -53.403  12.731  1.00  0.00     0.187 C 
BRANCH  12  13
HETATM   13  O   UNL     1     -44.983 -54.756  13.013  1.00  0.00    -0.394 OA
HETATM   14  C   UNL     1     -45.914 -54.770  14.106  1.00  0.00     0.201 C 
ENDBRANCH  12  13
ENDBRANCH  11  12
ENDBRANCH   1  11
BRANCH   2  15
HETATM   15  C   UNL     1     -41.207 -52.526  12.163  1.00  0.00     0.181 C 
HETATM   16  C   UNL     1     -40.307 -51.315  12.417  1.00  0.00     0.047 C 
BRANCH  15  17
HETATM   17  O   UNL     1     -40.585 -53.373  11.200  1.00  0.00    -0.388 OA
HETATM   18  H   UNL     1     -40.353 -52.806  10.443  1.00  0.00     0.210 HD
ENDBRANCH  15  17
ENDBRANCH   2  15
TORSDOF 5
ENDMDL
MODEL 8
REMARK VINA RESULT:      -4.4      5.888      7.204
REMARK  5 active torsions:
REMARK  status: ('A' for Active; 'I' for Inactive)
REMARK    1  A    between atoms: O_2  and  C_3 
REMARK    2  A    between atoms: C_3  and  C_4 
REMARK    3  A    between atoms: C_4  and  N_5 
REMARK    4  A    between atoms: C_6  and  C_15 
REMARK    5  A    between atoms: C_15  and  O_17 
ROOT
HETATM    1  N   UNL     1     -39.575 -47.316  13.076  1.00  0.00    -0.331 N 
HETATM    2  C   UNL     1     -39.898 -47.292  11.720  1.00  0.00     0.113 A 
HETATM    3  N   UNL     1     -39.433 -48.362  11.107  1.00  0.00    -0.342 N 
ATOM      4  HN  UNL     1     -39.558 -48.607  10.125  1.00  0.00     0.167 HD
HETATM    5  C   UNL     1     -38.752 -49.076  12.044  1.00  0.00     0.060 A 
HETATM    6  C   UNL     1     -38.059 -50.288  11.890  1.00  0.00     0.032 A 
HETATM    7  C   UNL     1     -37.408 -50.858  12.989  1.00  0.00     0.002 A 
HETATM    8  C   UNL     1     -37.434 -50.223  14.221  1.00  0.00     0.002 A 
HETATM    9  C   UNL     1     -38.112 -49.012  14.389  1.00  0.00     0.032 A 
HETATM   10  C   UNL     1     -38.786 -48.447  13.292  1.00  0.00     0.062 A 
ENDROOT
BRANCH   1  11
HETATM   11  C   UNL     1     -40.046 -46.338  14.062  1.00  0.00     0.156 C 
BRANCH  11  12
HETATM   12  C   UNL     1     -39.100 -45.161  14.277  1.00  0.00     0.187 C 
BRANCH  12  13
HETATM   13  O   UNL     1     -39.703 -43.939  14.694  1.00  0.00    -0.394 OA
HETATM   14  C   UNL     1     -40.143 -43.228  13.527  1.00  0.00     0.201 C 
ENDBRANCH  12  13
ENDBRANCH  11  12
ENDBRANCH   1  11
BRANCH   2  15
HETATM   15  C   UNL     1     -40.649 -46.195  11.015  1.00  0.00     0.181 C 
HETATM   16  C   UNL     1     -39.700 -45.192  10.354  1.00  0.00     0.047 C 
BRANCH  15  17
HETATM   17  O   UNL     1     -41.464 -46.794  10.010  1.00  0.00    -0.388 OA
HETATM   18  H   UNL     1     -41.506 -47.745  10.219  1.00  0.00     0.210 HD
ENDBRANCH  15  17
ENDBRANCH   2  15
TORSDOF 5
ENDMDL
MODEL 9
REMARK VINA RESULT:      -4.3      3.074      4.117
REMARK  5 active torsions:
REMARK  status: ('A' for Active; 'I' for Inactive)
REMARK    1  A    between atoms: O_2  and  C_3 
REMARK    2  A    between atoms: C_3  and  C_4 
REMARK    3  A    between atoms: C_4  and  N_5 
REMARK    4  A    between atoms: C_6  and  C_15 
REMARK    5  A    between atoms: C_15  and  O_17 
ROOT
HETATM    1  N   UNL     1     -44.966 -51.615  15.146  1.00  0.00    -0.331 N 
HETATM    2  C   UNL     1     -45.801 -52.491  14.454  1.00  0.00     0.113 A 
HETATM    3  N   UNL     1     -47.027 -52.455  14.938  1.00  0.00    -0.342 N 
ATOM      4  HN  UNL     1     -47.836 -52.971  14.593  1.00  0.00     0.167 HD
HETATM    5  C   UNL     1     -46.999 -51.592  15.990  1.00  0.00     0.060 A 
HETATM    6  C   UNL     1     -48.048 -51.221  16.847  1.00  0.00     0.032 A 
HETATM    7  C   UNL     1     -47.804 -50.317  17.887  1.00  0.00     0.002 A 
HETATM    8  C   UNL     1     -46.532 -49.801  18.080  1.00  0.00     0.002 A 
HETATM    9  C   UNL     1     -45.476 -50.168  17.241  1.00  0.00     0.032 A 
HETATM   10  C   UNL     1     -45.721 -51.059  16.181  1.00  0.00     0.062 A 
ENDROOT
BRANCH   1  11
HETATM   11  C   UNL     1     -43.576 -51.325  14.781  1.00  0.00     0.156 C 
BRANCH  11  12
HETATM   12  C   UNL     1     -43.407 -50.106  13.881  1.00  0.00     0.187 C 
BRANCH  12  13
HETATM   13  O   UNL     1     -42.842 -50.348  12.595  1.00  0.00    -0.394 OA
HETATM   14  C   UNL     1     -42.108 -51.580  12.645  1.00  0.00     0.201 C 
ENDBRANCH  12  13
ENDBRANCH  11  12
ENDBRANCH   1  11
BRANCH   2  15
HETATM   15  C   UNL     1     -45.385 -53.392  13.322  1.00  0.00     0.181 C 
HETATM   16  C   UNL     1     -45.440 -54.868  13.723  1.00  0.00     0.047 C 
BRANCH  15  17
HETATM   17  O   UNL     1     -46.278 -53.173  12.233  1.00  0.00    -0.388 OA
HETATM   18  H   UNL     1     -46.040 -52.310  11.850  1.00  0.00     0.210 HD
ENDBRANCH  15  17
ENDBRANCH   2  15
TORSDOF 5
ENDMDL
