MODEL 1
REMARK VINA RESULT:      -6.6      0.000      0.000
REMARK  5 active torsions:
REMARK  status: ('A' for Active; 'I' for Inactive)
REMARK    1  A    between atoms: C_2  and  C_3 
REMARK    2  A    between atoms: C_2  and  C_17 
REMARK    3  A    between atoms: C_3  and  N_4 
REMARK       I    between atoms: N_4  and  C_5 
REMARK       I    between atoms: C_5  and  N_7 
REMARK    4  A    between atoms: N_7  and  C_8 
REMARK    5  A    between atoms: C_17  and  N_18 
ROOT
HETATM    1  N   UNL     1     -42.120 -51.240  12.117  1.00  0.00    -0.342 N 
HETATM    2  C   UNL     1     -42.037 -52.577  12.357  1.00  0.00     0.321 C 
HETATM    3  O   UNL     1     -41.013 -53.237  12.197  1.00  0.00    -0.247 OA
HETATM    4  N   UNL     1     -43.210 -53.189  12.711  1.00  0.00    -0.295 N 
HETATM    5  H   UNL     1     -42.964 -50.802  12.482  1.00  0.00     0.164 HD
HETATM    6  H   UNL     1     -43.163 -54.197  12.707  1.00  0.00     0.172 HD
ENDROOT
BRANCH   1   7
HETATM    7  C   UNL     1     -41.036 -50.387  11.717  1.00  0.00     0.130 C 
BRANCH   7   8
HETATM    8  C   UNL     1     -40.892 -49.156  12.622  1.00  0.00     0.028 C 
HETATM    9  C   UNL     1     -41.883 -49.185  13.793  1.00  0.00     0.013 C 
BRANCH   8  10
HETATM   10  C   UNL     1     -41.089 -47.900  11.749  1.00  0.00     0.278 C 
BRANCH  10  11
HETATM   11  N   UNL     1     -42.433 -47.296  11.815  1.00  0.00     0.092 N 
HETATM   12  C   UNL     1     -43.332 -47.943  10.830  1.00  0.00     0.302 C 
HETATM   13  C   UNL     1     -43.041 -47.573   9.354  1.00  0.00     0.302 C 
HETATM   14  N   UNL     1     -42.975 -46.124   9.076  1.00  0.00     0.087 N 
HETATM   15  C   UNL     1     -44.311 -45.529   9.064  1.00  0.00     0.310 C 
HETATM   16  C   UNL     1     -42.110 -45.463  10.075  1.00  0.00     0.302 C 
HETATM   17  C   UNL     1     -42.419 -45.841  11.544  1.00  0.00     0.302 C 
ENDBRANCH  10  11
ENDBRANCH   8  10
ENDBRANCH   7   8
ENDBRANCH   1   7
BRANCH   4  18
HETATM   18  C   UNL     1     -44.426 -52.566  13.011  1.00  0.00     0.109 A 
HETATM   19  C   UNL     1     -44.670 -52.142  14.307  1.00  0.00     0.055 A 
HETATM   20  C   UNL     1     -45.919 -51.586  14.606  1.00  0.00    -0.057 A 
HETATM   21  C   UNL     1     -46.280 -51.193  16.005  1.00  0.00     0.048 C 
HETATM   22  C   UNL     1     -46.854 -51.429  13.579  1.00  0.00     0.031 A 
HETATM   23  C   UNL     1     -46.523 -51.845  12.299  1.00  0.00     0.007 A 
HETATM   24  C   UNL     1     -47.454 -51.684  11.139  1.00  0.00     0.068 C 
HETATM   25  N   UNL     1     -45.336 -52.418  12.021  1.00  0.00    -0.346 N 
ATOM     26  HN  UNL     1     -45.126 -52.737  11.076  1.00  0.00     0.167 HD
ENDBRANCH   4  18
TORSDOF 5
ENDMDL
MODEL 2
REMARK VINA RESULT:      -6.5      1.176      1.861
REMARK  5 active torsions:
REMARK  status: ('A' for Active; 'I' for Inactive)
REMARK    1  A    between atoms: C_2  and  C_3 
REMARK    2  A    between atoms: C_2  and  C_17 
REMARK    3  A    between atoms: C_3  and  N_4 
REMARK       I    between atoms: N_4  and  C_5 
REMARK       I    between atoms: C_5  and  N_7 
REMARK    4  A    between atoms: N_7  and  C_8 
REMARK    5  A    between atoms: C_17  and  N_18 
ROOT
HETATM    1  N   UNL     1     -42.118 -51.146  12.078  1.00  0.00    -0.342 N 
HETATM    2  C   UNL     1     -42.005 -52.482  12.315  1.00  0.00     0.321 C 
HETATM    3  O   UNL     1     -40.970 -53.120  12.142  1.00  0.00    -0.247 OA
HETATM    4  N   UNL     1     -43.161 -53.118  12.681  1.00  0.00    -0.295 N 
HETATM    5  H   UNL     1     -42.966 -50.726  12.453  1.00  0.00     0.164 HD
HETATM    6  H   UNL     1     -43.094 -54.124  12.674  1.00  0.00     0.172 HD
ENDROOT
BRANCH   1   7
HETATM    7  C   UNL     1     -41.055 -50.271  11.667  1.00  0.00     0.130 C 
BRANCH   7   8
HETATM    8  C   UNL     1     -41.101 -48.915  12.385  1.00  0.00     0.028 C 
HETATM    9  C   UNL     1     -41.612 -49.045  13.826  1.00  0.00     0.013 C 
BRANCH   8  10
HETATM   10  C   UNL     1     -41.992 -47.968  11.554  1.00  0.00     0.278 C 
BRANCH  10  11
HETATM   11  N   UNL     1     -41.267 -47.084  10.622  1.00  0.00     0.092 N 
HETATM   12  C   UNL     1     -40.045 -46.552  11.270  1.00  0.00     0.302 C 
HETATM   13  C   UNL     1     -40.309 -45.484  12.362  1.00  0.00     0.302 C 
HETATM   14  N   UNL     1     -41.167 -44.359  11.938  1.00  0.00     0.087 N 
HETATM   15  C   UNL     1     -40.434 -43.434  11.074  1.00  0.00     0.310 C 
HETATM   16  C   UNL     1     -42.371 -44.878  11.257  1.00  0.00     0.302 C 
HETATM   17  C   UNL     1     -42.086 -45.940  10.167  1.00  0.00     0.302 C 
ENDBRANCH  10  11
ENDBRANCH   8  10
ENDBRANCH   7   8
ENDBRANCH   1   7
BRANCH   4  18
HETATM   18  C   UNL     1     -44.387 -52.519  12.995  1.00  0.00     0.109 A 
HETATM   19  C   UNL     1     -44.618 -52.087  14.291  1.00  0.00     0.055 A 
HETATM   20  C   UNL     1     -45.874 -51.557  14.605  1.00  0.00    -0.057 A 
HETATM   21  C   UNL     1     -46.221 -51.158  16.006  1.00  0.00     0.048 C 
HETATM   22  C   UNL     1     -46.831 -51.433  13.592  1.00  0.00     0.031 A 
HETATM   23  C   UNL     1     -46.511 -51.854  12.312  1.00  0.00     0.007 A 
HETATM   24  C   UNL     1     -47.466 -51.728  11.166  1.00  0.00     0.068 C 
HETATM   25  N   UNL     1     -45.316 -52.403  12.019  1.00  0.00    -0.346 N 
ATOM     26  HN  UNL     1     -45.115 -52.728  11.074  1.00  0.00     0.167 HD
ENDBRANCH   4  18
TORSDOF 5
ENDMDL
MODEL 3
REMARK VINA RESULT:      -6.3      1.246      1.771
REMARK  5 active torsions:
REMARK  status: ('A' for Active; 'I' for Inactive)
REMARK    1  A    between atoms: C_2  and  C_3 
REMARK    2  A    between atoms: C_2  and  C_17 
REMARK    3  A    between atoms: C_3  and  N_4 
REMARK       I    between atoms: N_4  and  C_5 
REMARK       I    between atoms: C_5  and  N_7 
REMARK    4  A    between atoms: N_7  and  C_8 
REMARK    5  A    between atoms: C_17  and  N_18 
ROOT
HETATM    1  N   UNL     1     -42.048 -52.317  12.559  1.00  0.00    -0.342 N 
HETATM    2  C   UNL     1     -42.250 -53.608  12.942  1.00  0.00     0.321 C 
HETATM    3  O   UNL     1     -41.375 -54.470  12.923  1.00  0.00    -0.247 OA
HETATM    4  N   UNL     1     -43.538 -53.931  13.277  1.00  0.00    -0.295 N 
HETATM    5  H   UNL     1     -42.801 -51.682  12.817  1.00  0.00     0.164 HD
HETATM    6  H   UNL     1     -43.697 -54.921  13.380  1.00  0.00     0.172 HD
ENDROOT
BRANCH   1   7
HETATM    7  C   UNL     1     -40.795 -51.747  12.148  1.00  0.00     0.130 C 
BRANCH   7   8
HETATM    8  C   UNL     1     -40.653 -50.277  12.566  1.00  0.00     0.028 C 
HETATM    9  C   UNL     1     -40.782 -50.097  14.085  1.00  0.00     0.013 C 
BRANCH   8  10
HETATM   10  C   UNL     1     -41.724 -49.464  11.810  1.00  0.00     0.278 C 
BRANCH  10  11
HETATM   11  N   UNL     1     -41.197 -48.487  10.838  1.00  0.00     0.092 N 
HETATM   12  C   UNL     1     -40.298 -47.525  11.518  1.00  0.00     0.302 C 
HETATM   13  C   UNL     1     -41.022 -46.501  12.428  1.00  0.00     0.302 C 
HETATM   14  N   UNL     1     -42.126 -45.763  11.781  1.00  0.00     0.087 N 
HETATM   15  C   UNL     1     -41.612 -44.739  10.871  1.00  0.00     0.310 C 
HETATM   16  C   UNL     1     -43.008 -46.711  11.068  1.00  0.00     0.302 C 
HETATM   17  C   UNL     1     -42.267 -47.722  10.160  1.00  0.00     0.302 C 
ENDBRANCH  10  11
ENDBRANCH   8  10
ENDBRANCH   7   8
ENDBRANCH   1   7
BRANCH   4  18
HETATM   18  C   UNL     1     -44.615 -53.050  13.424  1.00  0.00     0.109 A 
HETATM   19  C   UNL     1     -44.870 -52.494  14.668  1.00  0.00     0.055 A 
HETATM   20  C   UNL     1     -45.992 -51.671  14.815  1.00  0.00    -0.057 A 
HETATM   21  C   UNL     1     -46.377 -51.115  16.151  1.00  0.00     0.048 C 
HETATM   22  C   UNL     1     -46.784 -51.397  13.696  1.00  0.00     0.031 A 
HETATM   23  C   UNL     1     -46.442 -51.962  12.477  1.00  0.00     0.007 A 
HETATM   24  C   UNL     1     -47.219 -51.694  11.226  1.00  0.00     0.068 C 
HETATM   25  N   UNL     1     -45.386 -52.787  12.345  1.00  0.00    -0.346 N 
ATOM     26  HN  UNL     1     -45.171 -53.209  11.442  1.00  0.00     0.167 HD
ENDBRANCH   4  18
TORSDOF 5
ENDMDL
MODEL 4
REMARK VINA RESULT:      -6.2      2.993      4.192
REMARK  5 active torsions:
REMARK  status: ('A' for Active; 'I' for Inactive)
REMARK    1  A    between atoms: C_2  and  C_3 
REMARK    2  A    between atoms: C_2  and  C_17 
REMARK    3  A    between atoms: C_3  and  N_4 
REMARK       I    between atoms: N_4  and  C_5 
REMARK       I    between atoms: C_5  and  N_7 
REMARK    4  A    between atoms: N_7  and  C_8 
REMARK    5  A    between atoms: C_17  and  N_18 
ROOT
HETATM    1  N   UNL     1     -42.818 -53.811  14.857  1.00  0.00    -0.342 N 
HETATM    2  C   UNL     1     -43.545 -54.944  15.060  1.00  0.00     0.321 C 
HETATM    3  O   UNL     1     -43.047 -56.035  15.327  1.00  0.00    -0.247 OA
HETATM    4  N   UNL     1     -44.894 -54.825  14.859  1.00  0.00    -0.295 N 
HETATM    5  H   UNL     1     -43.372 -52.956  14.844  1.00  0.00     0.164 HD
HETATM    6  H   UNL     1     -45.384 -55.707  14.838  1.00  0.00     0.172 HD
ENDROOT
BRANCH   1   7
HETATM    7  C   UNL     1     -41.392 -53.691  14.988  1.00  0.00     0.130 C 
BRANCH   7   8
HETATM    8  C   UNL     1     -40.649 -54.097  13.708  1.00  0.00     0.028 C 
HETATM    9  C   UNL     1     -39.264 -54.684  14.010  1.00  0.00     0.013 C 
BRANCH   8  10
HETATM   10  C   UNL     1     -40.548 -52.852  12.803  1.00  0.00     0.278 C 
BRANCH  10  11
HETATM   11  N   UNL     1     -40.480 -51.563  13.517  1.00  0.00     0.092 N 
HETATM   12  C   UNL     1     -41.325 -50.556  12.833  1.00  0.00     0.302 C 
HETATM   13  C   UNL     1     -40.755 -50.046  11.485  1.00  0.00     0.302 C 
HETATM   14  N   UNL     1     -39.362 -49.555  11.544  1.00  0.00     0.087 N 
HETATM   15  C   UNL     1     -39.294 -48.241  12.183  1.00  0.00     0.310 C 
HETATM   16  C   UNL     1     -38.518 -50.536  12.258  1.00  0.00     0.302 C 
HETATM   17  C   UNL     1     -39.103 -51.030  13.604  1.00  0.00     0.302 C 
ENDBRANCH  10  11
ENDBRANCH   8  10
ENDBRANCH   7   8
ENDBRANCH   1   7
BRANCH   4  18
HETATM   18  C   UNL     1     -45.610 -53.644  14.635  1.00  0.00     0.109 A 
HETATM   19  C   UNL     1     -46.035 -52.893  15.719  1.00  0.00     0.055 A 
HETATM   20  C   UNL     1     -46.811 -51.753  15.480  1.00  0.00    -0.057 A 
HETATM   21  C   UNL     1     -47.380 -50.950  16.610  1.00  0.00     0.048 C 
HETATM   22  C   UNL     1     -47.085 -51.383  14.160  1.00  0.00     0.031 A 
HETATM   23  C   UNL     1     -46.594 -52.167  13.128  1.00  0.00     0.007 A 
HETATM   24  C   UNL     1     -46.816 -51.824  11.688  1.00  0.00     0.068 C 
HETATM   25  N   UNL     1     -45.882 -53.287  13.360  1.00  0.00    -0.346 N 
ATOM     26  HN  UNL     1     -45.553 -53.858  12.582  1.00  0.00     0.167 HD
ENDBRANCH   4  18
TORSDOF 5
ENDMDL
MODEL 5
REMARK VINA RESULT:      -6.2      2.322      3.998
REMARK  5 active torsions:
REMARK  status: ('A' for Active; 'I' for Inactive)
REMARK    1  A    between atoms: C_2  and  C_3 
REMARK    2  A    between atoms: C_2  and  C_17 
REMARK    3  A    between atoms: C_3  and  N_4 
REMARK       I    between atoms: N_4  and  C_5 
REMARK       I    between atoms: C_5  and  N_7 
REMARK    4  A    between atoms: N_7  and  C_8 
REMARK    5  A    between atoms: C_17  and  N_18 
ROOT
HETATM    1  N   UNL     1     -41.918 -51.148  11.910  1.00  0.00    -0.342 N 
HETATM    2  C   UNL     1     -41.774 -52.474  12.183  1.00  0.00     0.321 C 
HETATM    3  O   UNL     1     -40.738 -53.102  11.983  1.00  0.00    -0.247 OA
HETATM    4  N   UNL     1     -42.902 -53.114  12.622  1.00  0.00    -0.295 N 
HETATM    5  H   UNL     1     -42.756 -50.728  12.311  1.00  0.00     0.164 HD
HETATM    6  H   UNL     1     -42.820 -54.119  12.643  1.00  0.00     0.172 HD
ENDROOT
BRANCH   1   7
HETATM    7  C   UNL     1     -40.890 -50.271  11.424  1.00  0.00     0.130 C 
BRANCH   7   8
HETATM    8  C   UNL     1     -41.133 -48.807  11.814  1.00  0.00     0.028 C 
HETATM    9  C   UNL     1     -41.530 -47.949  10.605  1.00  0.00     0.013 C 
BRANCH   8  10
HETATM   10  C   UNL     1     -39.850 -48.275  12.485  1.00  0.00     0.278 C 
BRANCH  10  11
HETATM   11  N   UNL     1     -39.289 -49.142  13.538  1.00  0.00     0.092 N 
HETATM   12  C   UNL     1     -39.992 -48.906  14.821  1.00  0.00     0.302 C 
HETATM   13  C   UNL     1     -39.653 -47.555  15.501  1.00  0.00     0.302 C 
HETATM   14  N   UNL     1     -38.210 -47.292  15.679  1.00  0.00     0.087 N 
HETATM   15  C   UNL     1     -37.660 -48.092  16.773  1.00  0.00     0.310 C 
HETATM   16  C   UNL     1     -37.495 -47.561  14.415  1.00  0.00     0.302 C 
HETATM   17  C   UNL     1     -37.843 -48.917  13.754  1.00  0.00     0.302 C 
ENDBRANCH  10  11
ENDBRANCH   8  10
ENDBRANCH   7   8
ENDBRANCH   1   7
BRANCH   4  18
HETATM   18  C   UNL     1     -44.122 -52.524  12.972  1.00  0.00     0.109 A 
HETATM   19  C   UNL     1     -44.292 -52.031  14.256  1.00  0.00     0.055 A 
HETATM   20  C   UNL     1     -45.541 -51.509  14.612  1.00  0.00    -0.057 A 
HETATM   21  C   UNL     1     -45.819 -51.046  16.009  1.00  0.00     0.048 C 
HETATM   22  C   UNL     1     -46.552 -51.454  13.649  1.00  0.00     0.031 A 
HETATM   23  C   UNL     1     -46.294 -51.934  12.375  1.00  0.00     0.007 A 
HETATM   24  C   UNL     1     -47.311 -51.883  11.279  1.00  0.00     0.068 C 
HETATM   25  N   UNL     1     -45.105 -52.474  12.045  1.00  0.00    -0.346 N 
ATOM     26  HN  UNL     1     -44.948 -52.842  11.107  1.00  0.00     0.167 HD
ENDBRANCH   4  18
TORSDOF 5
ENDMDL
MODEL 6
REMARK VINA RESULT:      -6.2      2.126      6.484
REMARK  5 active torsions:
REMARK  status: ('A' for Active; 'I' for Inactive)
REMARK    1  A    between atoms: C_2  and  C_3 
REMARK    2  A    between atoms: C_2  and  C_17 
REMARK    3  A    between atoms: C_3  and  N_4 
REMARK       I    between atoms: N_4  and  C_5 
REMARK       I    between atoms: C_5  and  N_7 
REMARK    4  A    between atoms: N_7  and  C_8 
REMARK    5  A    between atoms: C_17  and  N_18 
ROOT
HETATM    1  N   UNL     1     -40.626 -51.122  11.822  1.00  0.00    -0.342 N 
HETATM    2  C   UNL     1     -39.472 -50.431  11.613  1.00  0.00     0.321 C 
HETATM    3  O   UNL     1     -38.356 -50.944  11.634  1.00  0.00    -0.247 OA
HETATM    4  N   UNL     1     -39.613 -49.077  11.462  1.00  0.00    -0.295 N 
HETATM    5  H   UNL     1     -41.471 -50.608  11.578  1.00  0.00     0.164 HD
HETATM    6  H   UNL     1     -38.742 -48.570  11.490  1.00  0.00     0.172 HD
ENDROOT
BRANCH   1   7
HETATM    7  C   UNL     1     -40.733 -52.540  12.025  1.00  0.00     0.130 C 
BRANCH   7   8
HETATM    8  C   UNL     1     -40.912 -52.910  13.504  1.00  0.00     0.028 C 
HETATM    9  C   UNL     1     -39.696 -53.663  14.060  1.00  0.00     0.013 C 
BRANCH   8  10
HETATM   10  C   UNL     1     -42.200 -53.751  13.630  1.00  0.00     0.278 C 
BRANCH  10  11
HETATM   11  N   UNL     1     -43.440 -53.060  13.228  1.00  0.00     0.092 N 
HETATM   12  C   UNL     1     -43.971 -52.266  14.361  1.00  0.00     0.302 C 
HETATM   13  C   UNL     1     -44.596 -53.110  15.501  1.00  0.00     0.302 C 
HETATM   14  N   UNL     1     -45.618 -54.084  15.066  1.00  0.00     0.087 N 
HETATM   15  C   UNL     1     -46.877 -53.415  14.739  1.00  0.00     0.310 C 
HETATM   16  C   UNL     1     -45.112 -54.856  13.912  1.00  0.00     0.302 C 
HETATM   17  C   UNL     1     -44.496 -53.995  12.782  1.00  0.00     0.302 C 
ENDBRANCH  10  11
ENDBRANCH   8  10
ENDBRANCH   7   8
ENDBRANCH   1   7
BRANCH   4  18
HETATM   18  C   UNL     1     -40.811 -48.365  11.335  1.00  0.00     0.109 A 
HETATM   19  C   UNL     1     -41.322 -47.695  12.435  1.00  0.00     0.055 A 
HETATM   20  C   UNL     1     -42.557 -47.049  12.311  1.00  0.00    -0.057 A 
HETATM   21  C   UNL     1     -43.209 -46.387  13.486  1.00  0.00     0.048 C 
HETATM   22  C   UNL     1     -43.204 -47.055  11.072  1.00  0.00     0.031 A 
HETATM   23  C   UNL     1     -42.611 -47.717  10.008  1.00  0.00     0.007 A 
HETATM   24  C   UNL     1     -43.222 -47.745   8.642  1.00  0.00     0.068 C 
HETATM   25  N   UNL     1     -41.443 -48.374  10.139  1.00  0.00    -0.346 N 
ATOM     26  HN  UNL     1     -41.040 -48.873   9.347  1.00  0.00     0.167 HD
ENDBRANCH   4  18
TORSDOF 5
ENDMDL
MODEL 7
REMARK VINA RESULT:      -6.1      2.500      4.386
REMARK  5 active torsions:
REMARK  status: ('A' for Active; 'I' for Inactive)
REMARK    1  A    between atoms: C_2  and  C_3 
REMARK    2  A    between atoms: C_2  and  C_17 
REMARK    3  A    between atoms: C_3  and  N_4 
REMARK       I    between atoms: N_4  and  C_5 
REMARK       I    between atoms: C_5  and  N_7 
REMARK    4  A    between atoms: N_7  and  C_8 
REMARK    5  A    between atoms: C_17  and  N_18 
ROOT
HETATM    1  N   UNL     1     -42.710 -53.801  15.146  1.00  0.00    -0.342 N 
HETATM    2  C   UNL     1     -43.418 -54.960  15.229  1.00  0.00     0.321 C 
HETATM    3  O   UNL     1     -42.916 -56.048  15.504  1.00  0.00    -0.247 OA
HETATM    4  N   UNL     1     -44.743 -54.871  14.896  1.00  0.00    -0.295 N 
HETATM    5  H   UNL     1     -43.287 -52.961  15.108  1.00  0.00     0.164 HD
HETATM    6  H   UNL     1     -45.200 -55.764  14.790  1.00  0.00     0.172 HD
ENDROOT
BRANCH   1   7
HETATM    7  C   UNL     1     -41.310 -53.646  15.426  1.00  0.00     0.130 C 
BRANCH   7   8
HETATM    8  C   UNL     1     -40.455 -53.617  14.152  1.00  0.00     0.028 C 
HETATM    9  C   UNL     1     -39.270 -54.587  14.233  1.00  0.00     0.013 C 
BRANCH   8  10
HETATM   10  C   UNL     1     -39.981 -52.165  13.933  1.00  0.00     0.278 C 
BRANCH  10  11
HETATM   11  N   UNL     1     -39.958 -51.720  12.526  1.00  0.00     0.092 N 
HETATM   12  C   UNL     1     -39.318 -50.387  12.424  1.00  0.00     0.302 C 
HETATM   13  C   UNL     1     -40.177 -49.218  12.969  1.00  0.00     0.302 C 
HETATM   14  N   UNL     1     -41.548 -49.144  12.423  1.00  0.00     0.087 N 
HETATM   15  C   UNL     1     -41.542 -48.631  11.053  1.00  0.00     0.310 C 
HETATM   16  C   UNL     1     -42.182 -50.478  12.486  1.00  0.00     0.302 C 
HETATM   17  C   UNL     1     -41.310 -51.631  11.933  1.00  0.00     0.302 C 
ENDBRANCH  10  11
ENDBRANCH   8  10
ENDBRANCH   7   8
ENDBRANCH   1   7
BRANCH   4  18
HETATM   18  C   UNL     1     -45.470 -53.701  14.644  1.00  0.00     0.109 A 
HETATM   19  C   UNL     1     -45.789 -53.369  13.338  1.00  0.00     0.055 A 
HETATM   20  C   UNL     1     -46.452 -52.160  13.098  1.00  0.00    -0.057 A 
HETATM   21  C   UNL     1     -46.743 -51.697  11.703  1.00  0.00     0.048 C 
HETATM   22  C   UNL     1     -46.816 -51.359  14.184  1.00  0.00     0.031 A 
HETATM   23  C   UNL     1     -46.494 -51.778  15.465  1.00  0.00     0.007 A 
HETATM   24  C   UNL     1     -46.874 -50.995  16.682  1.00  0.00     0.068 C 
HETATM   25  N   UNL     1     -45.818 -52.921  15.692  1.00  0.00    -0.346 N 
ATOM     26  HN  UNL     1     -45.572 -53.194  16.643  1.00  0.00     0.167 HD
ENDBRANCH   4  18
TORSDOF 5
ENDMDL
MODEL 8
REMARK VINA RESULT:      -5.9      1.310      2.349
REMARK  5 active torsions:
REMARK  status: ('A' for Active; 'I' for Inactive)
REMARK    1  A    between atoms: C_2  and  C_3 
REMARK    2  A    between atoms: C_2  and  C_17 
REMARK    3  A    between atoms: C_3  and  N_4 
REMARK       I    between atoms: N_4  and  C_5 
REMARK       I    between atoms: C_5  and  N_7 
REMARK    4  A    between atoms: N_7  and  C_8 
REMARK    5  A    between atoms: C_17  and  N_18 
ROOT
HETATM    1  N   UNL     1     -41.951 -51.344  13.390  1.00  0.00    -0.342 N 
HETATM    2  C   UNL     1     -41.910 -52.695  13.549  1.00  0.00     0.321 C 
HETATM    3  O   UNL     1     -40.869 -53.347  13.578  1.00  0.00    -0.247 OA
HETATM    4  N   UNL     1     -43.126 -53.324  13.585  1.00  0.00    -0.295 N 
HETATM    5  H   UNL     1     -42.860 -50.928  13.585  1.00  0.00     0.164 HD
HETATM    6  H   UNL     1     -43.069 -54.328  13.521  1.00  0.00     0.172 HD
ENDROOT
BRANCH   1   7
HETATM    7  C   UNL     1     -40.814 -50.471  13.305  1.00  0.00     0.130 C 
BRANCH   7   8
HETATM    8  C   UNL     1     -40.262 -50.362  11.877  1.00  0.00     0.028 C 
HETATM    9  C   UNL     1     -38.740 -50.165  11.862  1.00  0.00     0.013 C 
BRANCH   8  10
HETATM   10  C   UNL     1     -40.988 -49.194  11.177  1.00  0.00     0.278 C 
BRANCH  10  11
HETATM   11  N   UNL     1     -41.416 -48.099  12.067  1.00  0.00     0.092 N 
HETATM   12  C   UNL     1     -42.771 -47.635  11.689  1.00  0.00     0.302 C 
HETATM   13  C   UNL     1     -42.830 -46.826  10.368  1.00  0.00     0.302 C 
HETATM   14  N   UNL     1     -41.887 -45.692  10.289  1.00  0.00     0.087 N 
HETATM   15  C   UNL     1     -42.342 -44.571  11.110  1.00  0.00     0.310 C 
HETATM   16  C   UNL     1     -40.538 -46.136  10.700  1.00  0.00     0.302 C 
HETATM   17  C   UNL     1     -40.500 -46.937  12.024  1.00  0.00     0.302 C 
ENDBRANCH  10  11
ENDBRANCH   8  10
ENDBRANCH   7   8
ENDBRANCH   1   7
BRANCH   4  18
HETATM   18  C   UNL     1     -44.385 -52.716  13.645  1.00  0.00     0.109 A 
HETATM   19  C   UNL     1     -45.151 -52.629  12.493  1.00  0.00     0.055 A 
HETATM   20  C   UNL     1     -46.375 -51.955  12.554  1.00  0.00    -0.057 A 
HETATM   21  C   UNL     1     -47.207 -51.743  11.326  1.00  0.00     0.048 C 
HETATM   22  C   UNL     1     -46.808 -51.442  13.780  1.00  0.00     0.031 A 
HETATM   23  C   UNL     1     -46.002 -51.602  14.896  1.00  0.00     0.007 A 
HETATM   24  C   UNL     1     -46.405 -51.110  16.251  1.00  0.00     0.068 C 
HETATM   25  N   UNL     1     -44.804 -52.214  14.828  1.00  0.00    -0.346 N 
ATOM     26  HN  UNL     1     -44.219 -52.297  15.660  1.00  0.00     0.167 HD
ENDBRANCH   4  18
TORSDOF 5
ENDMDL
MODEL 9
REMARK VINA RESULT:      -5.7      2.613      7.031
REMARK  5 active torsions:
REMARK  status: ('A' for Active; 'I' for Inactive)
REMARK    1  A    between atoms: C_2  and  C_3 
REMARK    2  A    between atoms: C_2  and  C_17 
REMARK    3  A    between atoms: C_3  and  N_4 
REMARK       I    between atoms: N_4  and  C_5 
REMARK       I    between atoms: C_5  and  N_7 
REMARK    4  A    between atoms: N_7  and  C_8 
REMARK    5  A    between atoms: C_17  and  N_18 
ROOT
HETATM    1  N   UNL     1     -39.286 -51.297  13.260  1.00  0.00    -0.342 N 
HETATM    2  C   UNL     1     -38.087 -50.992  12.693  1.00  0.00     0.321 C 
HETATM    3  O   UNL     1     -37.158 -51.789  12.591  1.00  0.00    -0.247 OA
HETATM    4  N   UNL     1     -37.928 -49.687  12.310  1.00  0.00    -0.295 N 
HETATM    5  H   UNL     1     -40.015 -50.605  13.093  1.00  0.00     0.164 HD
HETATM    6  H   UNL     1     -36.981 -49.445  12.063  1.00  0.00     0.172 HD
ENDROOT
BRANCH   1   7
HETATM    7  C   UNL     1     -39.680 -52.587  13.755  1.00  0.00     0.130 C 
BRANCH   7   8
HETATM    8  C   UNL     1     -40.708 -53.276  12.847  1.00  0.00     0.028 C 
HETATM    9  C   UNL     1     -41.141 -52.374  11.683  1.00  0.00     0.013 C 
BRANCH   8  10
HETATM   10  C   UNL     1     -41.912 -53.686  13.720  1.00  0.00     0.278 C 
BRANCH  10  11
HETATM   11  N   UNL     1     -43.190 -53.040  13.367  1.00  0.00     0.092 N 
HETATM   12  C   UNL     1     -43.722 -52.293  14.532  1.00  0.00     0.302 C 
HETATM   13  C   UNL     1     -44.280 -53.187  15.668  1.00  0.00     0.302 C 
HETATM   14  N   UNL     1     -45.272 -54.194  15.239  1.00  0.00     0.087 N 
HETATM   15  C   UNL     1     -46.566 -53.572  14.960  1.00  0.00     0.310 C 
HETATM   16  C   UNL     1     -44.767 -54.919  14.054  1.00  0.00     0.302 C 
HETATM   17  C   UNL     1     -44.218 -54.008  12.928  1.00  0.00     0.302 C 
ENDBRANCH  10  11
ENDBRANCH   8  10
ENDBRANCH   7   8
ENDBRANCH   1   7
BRANCH   4  18
HETATM   18  C   UNL     1     -38.913 -48.692  12.287  1.00  0.00     0.109 A 
HETATM   19  C   UNL     1     -38.880 -47.684  13.237  1.00  0.00     0.055 A 
HETATM   20  C   UNL     1     -39.911 -46.738  13.245  1.00  0.00    -0.057 A 
HETATM   21  C   UNL     1     -39.986 -45.679  14.302  1.00  0.00     0.048 C 
HETATM   22  C   UNL     1     -40.906 -46.811  12.265  1.00  0.00     0.031 A 
HETATM   23  C   UNL     1     -40.850 -47.829  11.326  1.00  0.00     0.007 A 
HETATM   24  C   UNL     1     -41.857 -47.959  10.227  1.00  0.00     0.068 C 
HETATM   25  N   UNL     1     -39.880 -48.763  11.345  1.00  0.00    -0.346 N 
ATOM     26  HN  UNL     1     -39.875 -49.515  10.656  1.00  0.00     0.167 HD
ENDBRANCH   4  18
TORSDOF 5
ENDMDL
