MODEL 1
REMARK VINA RESULT:      -5.7      0.000      0.000
REMARK  4 active torsions:
REMARK  status: ('A' for Active; 'I' for Inactive)
REMARK       I    between atoms: C_2  and  N_3 
REMARK       I    between atoms: C_2  and  N_12 
REMARK    1  A    between atoms: N_3  and  C_4 
REMARK    2  A    between atoms: C_4  and  C_5 
REMARK    3  A    between atoms: C_5  and  N_6 
REMARK    4  A    between atoms: N_12  and  C_13 
ROOT
HETATM    1  O   UNL     1     -40.519 -53.002  11.882  1.00  0.00    -0.247 OA
HETATM    2  C   UNL     1     -41.060 -51.899  11.814  1.00  0.00     0.322 C 
HETATM    3  N   UNL     1     -42.379 -51.694  12.075  1.00  0.00    -0.341 N 
HETATM    4  N   UNL     1     -40.338 -50.835  11.372  1.00  0.00    -0.289 N 
HETATM    5  H   UNL     1     -42.658 -50.728  12.238  1.00  0.00     0.164 HD
HETATM    6  H   UNL     1     -39.407 -51.042  11.047  1.00  0.00     0.172 HD
ENDROOT
BRANCH   3   7
HETATM    7  C   UNL     1     -43.276 -52.762  12.471  1.00  0.00     0.154 C 
BRANCH   7   8
HETATM    8  C   UNL     1     -43.655 -52.654  13.961  1.00  0.00     0.292 C 
BRANCH   8   9
HETATM    9  N   UNL     1     -44.900 -53.355  14.332  1.00  0.00     0.090 N 
HETATM   10  C   UNL     1     -46.052 -53.012  13.485  1.00  0.00     0.272 C 
HETATM   11  C   UNL     1     -46.578 -51.589  13.695  1.00  0.00     0.030 C 
HETATM   12  C   UNL     1     -46.916 -51.345  15.163  1.00  0.00     0.003 C 
HETATM   13  C   UNL     1     -45.750 -51.729  16.066  1.00  0.00     0.030 C 
HETATM   14  C   UNL     1     -45.239 -53.139  15.751  1.00  0.00     0.272 C 
ENDBRANCH   8   9
ENDBRANCH   7   8
ENDBRANCH   3   7
BRANCH   4  15
HETATM   15  C   UNL     1     -40.795 -49.556  11.254  1.00  0.00     0.152 A 
HETATM   16  N   UNL     1     -41.349 -48.987  10.211  1.00  0.00    -0.346 N 
HETATM   17  C   UNL     1     -41.645 -47.674  10.525  1.00  0.00     0.097 A 
ATOM     18  HN  UNL     1     -41.532 -49.440   9.315  1.00  0.00     0.167 HD
HETATM   19  C   UNL     1     -41.266 -47.264  11.786  1.00  0.00     0.070 A 
HETATM   20  S   UNL     1     -40.596 -48.590  12.644  1.00  0.00    -0.064 SA
ENDBRANCH   4  15
TORSDOF 4
ENDMDL
MODEL 2
REMARK VINA RESULT:      -5.7      1.933      2.301
REMARK  4 active torsions:
REMARK  status: ('A' for Active; 'I' for Inactive)
REMARK       I    between atoms: C_2  and  N_3 
REMARK       I    between atoms: C_2  and  N_12 
REMARK    1  A    between atoms: N_3  and  C_4 
REMARK    2  A    between atoms: C_4  and  C_5 
REMARK    3  A    between atoms: C_5  and  N_6 
REMARK    4  A    between atoms: N_12  and  C_13 
ROOT
HETATM    1  O   UNL     1     -39.929 -49.594  12.035  1.00  0.00    -0.247 OA
HETATM    2  C   UNL     1     -40.984 -49.257  11.500  1.00  0.00     0.322 C 
HETATM    3  N   UNL     1     -42.161 -49.915  11.683  1.00  0.00    -0.341 N 
HETATM    4  N   UNL     1     -40.975 -48.232  10.607  1.00  0.00    -0.289 N 
HETATM    5  H   UNL     1     -43.002 -49.412  11.407  1.00  0.00     0.164 HD
HETATM    6  H   UNL     1     -40.067 -47.859  10.378  1.00  0.00     0.172 HD
ENDROOT
BRANCH   3   7
HETATM    7  C   UNL     1     -42.285 -51.075  12.542  1.00  0.00     0.154 C 
BRANCH   7   8
HETATM    8  C   UNL     1     -43.403 -50.885  13.586  1.00  0.00     0.292 C 
BRANCH   8   9
HETATM    9  N   UNL     1     -44.097 -52.127  13.979  1.00  0.00     0.090 N 
HETATM   10  C   UNL     1     -45.234 -52.476  13.113  1.00  0.00     0.272 C 
HETATM   11  C   UNL     1     -46.439 -51.543  13.263  1.00  0.00     0.030 C 
HETATM   12  C   UNL     1     -46.893 -51.469  14.718  1.00  0.00     0.003 C 
HETATM   13  C   UNL     1     -45.723 -51.147  15.642  1.00  0.00     0.030 C 
HETATM   14  C   UNL     1     -44.535 -52.080  15.386  1.00  0.00     0.272 C 
ENDBRANCH   8   9
ENDBRANCH   7   8
ENDBRANCH   3   7
BRANCH   4  15
HETATM   15  C   UNL     1     -42.061 -47.741   9.945  1.00  0.00     0.152 A 
HETATM   16  N   UNL     1     -42.650 -48.231   8.881  1.00  0.00    -0.346 N 
HETATM   17  C   UNL     1     -43.704 -47.405   8.536  1.00  0.00     0.097 A 
ATOM     18  HN  UNL     1     -42.376 -49.081   8.388  1.00  0.00     0.167 HD
HETATM   19  C   UNL     1     -43.862 -46.282   9.322  1.00  0.00     0.070 A 
HETATM   20  S   UNL     1     -42.708 -46.303  10.592  1.00  0.00    -0.064 SA
ENDBRANCH   4  15
TORSDOF 4
ENDMDL
MODEL 3
REMARK VINA RESULT:      -5.3      2.191      2.788
REMARK  4 active torsions:
REMARK  status: ('A' for Active; 'I' for Inactive)
REMARK       I    between atoms: C_2  and  N_3 
REMARK       I    between atoms: C_2  and  N_12 
REMARK    1  A    between atoms: N_3  and  C_4 
REMARK    2  A    between atoms: C_4  and  C_5 
REMARK    3  A    between atoms: C_5  and  N_6 
REMARK    4  A    between atoms: N_12  and  C_13 
ROOT
HETATM    1  O   UNL     1     -40.182 -50.958  11.771  1.00  0.00    -0.247 OA
HETATM    2  C   UNL     1     -40.993 -50.041  11.654  1.00  0.00     0.322 C 
HETATM    3  N   UNL     1     -42.050 -49.863  12.493  1.00  0.00    -0.341 N 
HETATM    4  N   UNL     1     -40.896 -49.203  10.587  1.00  0.00    -0.289 N 
HETATM    5  H   UNL     1     -42.497 -48.949  12.462  1.00  0.00     0.164 HD
HETATM    6  H   UNL     1     -40.196 -49.445   9.904  1.00  0.00     0.172 HD
ENDROOT
BRANCH   3   7
HETATM    7  C   UNL     1     -42.315 -50.738  13.617  1.00  0.00     0.154 C 
BRANCH   7   8
HETATM    8  C   UNL     1     -43.502 -51.680  13.329  1.00  0.00     0.292 C 
BRANCH   8   9
HETATM    9  N   UNL     1     -43.131 -52.959  12.693  1.00  0.00     0.090 N 
HETATM   10  C   UNL     1     -44.245 -53.915  12.583  1.00  0.00     0.272 C 
HETATM   11  C   UNL     1     -44.694 -54.504  13.923  1.00  0.00     0.030 C 
HETATM   12  C   UNL     1     -43.521 -55.149  14.655  1.00  0.00     0.003 C 
HETATM   13  C   UNL     1     -42.339 -54.191  14.749  1.00  0.00     0.030 C 
HETATM   14  C   UNL     1     -41.992 -53.594  13.381  1.00  0.00     0.272 C 
ENDBRANCH   8   9
ENDBRANCH   7   8
ENDBRANCH   3   7
BRANCH   4  15
HETATM   15  C   UNL     1     -41.711 -48.141  10.331  1.00  0.00     0.152 A 
HETATM   16  N   UNL     1     -42.859 -48.136   9.698  1.00  0.00    -0.346 N 
HETATM   17  C   UNL     1     -43.335 -46.839   9.651  1.00  0.00     0.097 A 
ATOM     18  HN  UNL     1     -43.325 -48.955   9.306  1.00  0.00     0.167 HD
HETATM   19  C   UNL     1     -42.513 -45.882  10.210  1.00  0.00     0.070 A 
HETATM   20  S   UNL     1     -41.136 -46.641  10.899  1.00  0.00    -0.064 SA
ENDBRANCH   4  15
TORSDOF 4
ENDMDL
MODEL 4
REMARK VINA RESULT:      -5.3      2.502      3.307
REMARK  4 active torsions:
REMARK  status: ('A' for Active; 'I' for Inactive)
REMARK       I    between atoms: C_2  and  N_3 
REMARK       I    between atoms: C_2  and  N_12 
REMARK    1  A    between atoms: N_3  and  C_4 
REMARK    2  A    between atoms: C_4  and  C_5 
REMARK    3  A    between atoms: C_5  and  N_6 
REMARK    4  A    between atoms: N_12  and  C_13 
ROOT
HETATM    1  O   UNL     1     -44.929 -54.596  12.584  1.00  0.00    -0.247 OA
HETATM    2  C   UNL     1     -44.198 -53.608  12.566  1.00  0.00     0.322 C 
HETATM    3  N   UNL     1     -44.663 -52.330  12.592  1.00  0.00    -0.341 N 
HETATM    4  N   UNL     1     -42.856 -53.780  12.425  1.00  0.00    -0.289 N 
HETATM    5  H   UNL     1     -43.983 -51.610  12.830  1.00  0.00     0.164 HD
HETATM    6  H   UNL     1     -42.552 -54.727  12.261  1.00  0.00     0.172 HD
ENDROOT
BRANCH   3   7
HETATM    7  C   UNL     1     -46.076 -52.011  12.654  1.00  0.00     0.154 C 
BRANCH   7   8
HETATM    8  C   UNL     1     -46.442 -51.337  13.991  1.00  0.00     0.292 C 
BRANCH   8   9
HETATM    9  N   UNL     1     -46.143 -52.146  15.189  1.00  0.00     0.090 N 
HETATM   10  C   UNL     1     -47.299 -52.349  16.076  1.00  0.00     0.272 C 
HETATM   11  C   UNL     1     -47.743 -51.086  16.819  1.00  0.00     0.030 C 
HETATM   12  C   UNL     1     -46.584 -50.479  17.602  1.00  0.00     0.003 C 
HETATM   13  C   UNL     1     -45.358 -50.293  16.714  1.00  0.00     0.030 C 
HETATM   14  C   UNL     1     -45.017 -51.581  15.955  1.00  0.00     0.272 C 
ENDBRANCH   8   9
ENDBRANCH   7   8
ENDBRANCH   3   7
BRANCH   4  15
HETATM   15  C   UNL     1     -41.923 -52.787  12.400  1.00  0.00     0.152 A 
HETATM   16  N   UNL     1     -41.373 -52.220  11.354  1.00  0.00    -0.346 N 
HETATM   17  C   UNL     1     -40.466 -51.271  11.788  1.00  0.00     0.097 A 
ATOM     18  HN  UNL     1     -41.580 -52.441  10.380  1.00  0.00     0.167 HD
HETATM   19  C   UNL     1     -40.316 -51.172  13.156  1.00  0.00     0.070 A 
HETATM   20  S   UNL     1     -41.412 -52.241  13.931  1.00  0.00    -0.064 SA
ENDBRANCH   4  15
TORSDOF 4
ENDMDL
MODEL 5
REMARK VINA RESULT:      -5.1      3.315      4.166
REMARK  4 active torsions:
REMARK  status: ('A' for Active; 'I' for Inactive)
REMARK       I    between atoms: C_2  and  N_3 
REMARK       I    between atoms: C_2  and  N_12 
REMARK    1  A    between atoms: N_3  and  C_4 
REMARK    2  A    between atoms: C_4  and  C_5 
REMARK    3  A    between atoms: C_5  and  N_6 
REMARK    4  A    between atoms: N_12  and  C_13 
ROOT
HETATM    1  O   UNL     1     -45.513 -53.082  11.921  1.00  0.00    -0.247 OA
HETATM    2  C   UNL     1     -44.498 -53.448  12.511  1.00  0.00     0.322 C 
HETATM    3  N   UNL     1     -44.506 -54.350  13.530  1.00  0.00    -0.341 N 
HETATM    4  N   UNL     1     -43.307 -52.867  12.203  1.00  0.00    -0.289 N 
HETATM    5  H   UNL     1     -43.607 -54.765  13.768  1.00  0.00     0.164 HD
HETATM    6  H   UNL     1     -43.352 -52.100  11.551  1.00  0.00     0.172 HD
ENDROOT
BRANCH   3   7
HETATM    7  C   UNL     1     -45.721 -54.977  14.012  1.00  0.00     0.154 C 
BRANCH   7   8
HETATM    8  C   UNL     1     -46.435 -54.092  15.053  1.00  0.00     0.292 C 
BRANCH   8   9
HETATM    9  N   UNL     1     -45.659 -52.919  15.499  1.00  0.00     0.090 N 
HETATM   10  C   UNL     1     -45.239 -52.981  16.907  1.00  0.00     0.272 C 
HETATM   11  C   UNL     1     -46.387 -52.827  17.908  1.00  0.00     0.030 C 
HETATM   12  C   UNL     1     -47.164 -51.540  17.650  1.00  0.00     0.003 C 
HETATM   13  C   UNL     1     -47.580 -51.432  16.187  1.00  0.00     0.030 C 
HETATM   14  C   UNL     1     -46.389 -51.662  15.250  1.00  0.00     0.272 C 
ENDBRANCH   8   9
ENDBRANCH   7   8
ENDBRANCH   3   7
BRANCH   4  15
HETATM   15  C   UNL     1     -42.102 -53.174  12.761  1.00  0.00     0.152 A 
HETATM   16  N   UNL     1     -41.335 -54.207  12.513  1.00  0.00    -0.346 N 
HETATM   17  C   UNL     1     -40.213 -54.131  13.316  1.00  0.00     0.097 A 
ATOM     18  HN  UNL     1     -41.534 -54.946  11.838  1.00  0.00     0.167 HD
HETATM   19  C   UNL     1     -40.177 -53.063  14.189  1.00  0.00     0.070 A 
HETATM   20  S   UNL     1     -41.552 -52.068  13.936  1.00  0.00    -0.064 SA
ENDBRANCH   4  15
TORSDOF 4
ENDMDL
MODEL 6
REMARK VINA RESULT:      -4.7      2.013      6.251
REMARK  4 active torsions:
REMARK  status: ('A' for Active; 'I' for Inactive)
REMARK       I    between atoms: C_2  and  N_3 
REMARK       I    between atoms: C_2  and  N_12 
REMARK    1  A    between atoms: N_3  and  C_4 
REMARK    2  A    between atoms: C_4  and  C_5 
REMARK    3  A    between atoms: C_5  and  N_6 
REMARK    4  A    between atoms: N_12  and  C_13 
ROOT
HETATM    1  O   UNL     1     -39.484 -51.923  12.461  1.00  0.00    -0.247 OA
HETATM    2  C   UNL     1     -40.705 -51.818  12.363  1.00  0.00     0.322 C 
HETATM    3  N   UNL     1     -41.320 -50.801  11.700  1.00  0.00    -0.341 N 
HETATM    4  N   UNL     1     -41.501 -52.706  13.017  1.00  0.00    -0.289 N 
HETATM    5  H   UNL     1     -42.299 -50.948  11.464  1.00  0.00     0.164 HD
HETATM    6  H   UNL     1     -41.024 -53.359  13.618  1.00  0.00     0.172 HD
ENDROOT
BRANCH   3   7
HETATM    7  C   UNL     1     -40.586 -49.743  11.034  1.00  0.00     0.154 C 
BRANCH   7   8
HETATM    8  C   UNL     1     -41.461 -48.488  10.840  1.00  0.00     0.292 C 
BRANCH   8   9
HETATM    9  N   UNL     1     -41.389 -47.512  11.945  1.00  0.00     0.090 N 
HETATM   10  C   UNL     1     -42.474 -46.518  11.934  1.00  0.00     0.272 C 
HETATM   11  C   UNL     1     -42.378 -45.504  10.792  1.00  0.00     0.030 C 
HETATM   12  C   UNL     1     -41.025 -44.800  10.799  1.00  0.00     0.003 C 
HETATM   13  C   UNL     1     -39.882 -45.809  10.848  1.00  0.00     0.030 C 
HETATM   14  C   UNL     1     -40.083 -46.827  11.976  1.00  0.00     0.272 C 
ENDBRANCH   8   9
ENDBRANCH   7   8
ENDBRANCH   3   7
BRANCH   4  15
HETATM   15  C   UNL     1     -42.863 -52.724  12.993  1.00  0.00     0.152 A 
HETATM   16  N   UNL     1     -43.651 -53.175  12.047  1.00  0.00    -0.346 N 
HETATM   17  C   UNL     1     -44.964 -52.981  12.432  1.00  0.00     0.097 A 
ATOM     18  HN  UNL     1     -43.345 -53.600  11.172  1.00  0.00     0.167 HD
HETATM   19  C   UNL     1     -45.142 -52.344  13.643  1.00  0.00     0.070 A 
HETATM   20  S   UNL     1     -43.614 -52.057  14.370  1.00  0.00    -0.064 SA
ENDBRANCH   4  15
TORSDOF 4
ENDMDL
MODEL 7
REMARK VINA RESULT:      -4.6      2.519      6.628
REMARK  4 active torsions:
REMARK  status: ('A' for Active; 'I' for Inactive)
REMARK       I    between atoms: C_2  and  N_3 
REMARK       I    between atoms: C_2  and  N_12 
REMARK    1  A    between atoms: N_3  and  C_4 
REMARK    2  A    between atoms: C_4  and  C_5 
REMARK    3  A    between atoms: C_5  and  N_6 
REMARK    4  A    between atoms: N_12  and  C_13 
ROOT
HETATM    1  O   UNL     1     -40.097 -49.544  10.785  1.00  0.00    -0.247 OA
HETATM    2  C   UNL     1     -41.073 -50.112  11.274  1.00  0.00     0.322 C 
HETATM    3  N   UNL     1     -42.271 -49.499  11.481  1.00  0.00    -0.341 N 
HETATM    4  N   UNL     1     -40.942 -51.390  11.717  1.00  0.00    -0.289 N 
HETATM    5  H   UNL     1     -43.065 -50.114  11.645  1.00  0.00     0.164 HD
HETATM    6  H   UNL     1     -40.009 -51.770  11.687  1.00  0.00     0.172 HD
ENDROOT
BRANCH   3   7
HETATM    7  C   UNL     1     -42.513 -48.113  11.133  1.00  0.00     0.154 C 
BRANCH   7   8
HETATM    8  C   UNL     1     -42.095 -47.165  12.274  1.00  0.00     0.292 C 
BRANCH   8   9
HETATM    9  N   UNL     1     -42.189 -45.729  11.947  1.00  0.00     0.090 N 
HETATM   10  C   UNL     1     -41.547 -45.364  10.674  1.00  0.00     0.272 C 
HETATM   11  C   UNL     1     -40.018 -45.441  10.704  1.00  0.00     0.030 C 
HETATM   12  C   UNL     1     -39.452 -44.593  11.838  1.00  0.00     0.003 C 
HETATM   13  C   UNL     1     -40.128 -44.925  13.164  1.00  0.00     0.030 C 
HETATM   14  C   UNL     1     -41.655 -44.891  13.036  1.00  0.00     0.272 C 
ENDBRANCH   8   9
ENDBRANCH   7   8
ENDBRANCH   3   7
BRANCH   4  15
HETATM   15  C   UNL     1     -41.932 -52.148  12.269  1.00  0.00     0.152 A 
HETATM   16  N   UNL     1     -42.867 -52.831  11.654  1.00  0.00    -0.346 N 
HETATM   17  C   UNL     1     -43.669 -53.439  12.601  1.00  0.00     0.097 A 
ATOM     18  HN  UNL     1     -42.984 -52.901  10.642  1.00  0.00     0.167 HD
HETATM   19  C   UNL     1     -43.350 -53.167  13.915  1.00  0.00     0.070 A 
HETATM   20  S   UNL     1     -41.943 -52.186  13.972  1.00  0.00    -0.064 SA
ENDBRANCH   4  15
TORSDOF 4
ENDMDL
MODEL 8
REMARK VINA RESULT:      -4.4      3.084      6.510
REMARK  4 active torsions:
REMARK  status: ('A' for Active; 'I' for Inactive)
REMARK       I    between atoms: C_2  and  N_3 
REMARK       I    between atoms: C_2  and  N_12 
REMARK    1  A    between atoms: N_3  and  C_4 
REMARK    2  A    between atoms: C_4  and  C_5 
REMARK    3  A    between atoms: C_5  and  N_6 
REMARK    4  A    between atoms: N_12  and  C_13 
ROOT
HETATM    1  O   UNL     1     -41.007 -51.896  11.456  1.00  0.00    -0.247 OA
HETATM    2  C   UNL     1     -41.792 -52.416  12.247  1.00  0.00     0.322 C 
HETATM    3  N   UNL     1     -41.413 -52.945  13.442  1.00  0.00    -0.341 N 
HETATM    4  N   UNL     1     -43.096 -52.558  11.889  1.00  0.00    -0.289 N 
HETATM    5  H   UNL     1     -42.159 -53.111  14.115  1.00  0.00     0.164 HD
HETATM    6  H   UNL     1     -43.321 -52.293  10.943  1.00  0.00     0.172 HD
ENDROOT
BRANCH   3   7
HETATM    7  C   UNL     1     -40.038 -52.935  13.903  1.00  0.00     0.154 C 
BRANCH   7   8
HETATM    8  C   UNL     1     -39.689 -51.605  14.600  1.00  0.00     0.292 C 
BRANCH   8   9
HETATM    9  N   UNL     1     -38.249 -51.281  14.620  1.00  0.00     0.090 N 
HETATM   10  C   UNL     1     -37.912 -50.116  15.454  1.00  0.00     0.272 C 
HETATM   11  C   UNL     1     -38.388 -48.780  14.879  1.00  0.00     0.030 C 
HETATM   12  C   UNL     1     -37.863 -48.578  13.461  1.00  0.00     0.003 C 
HETATM   13  C   UNL     1     -38.167 -49.789  12.585  1.00  0.00     0.030 C 
HETATM   14  C   UNL     1     -37.719 -51.092  13.258  1.00  0.00     0.272 C 
ENDBRANCH   8   9
ENDBRANCH   7   8
ENDBRANCH   3   7
BRANCH   4  15
HETATM   15  C   UNL     1     -44.080 -53.102  12.659  1.00  0.00     0.152 A 
HETATM   16  N   UNL     1     -44.390 -54.368  12.803  1.00  0.00    -0.346 N 
HETATM   17  C   UNL     1     -45.464 -54.468  13.667  1.00  0.00     0.097 A 
ATOM     18  HN  UNL     1     -43.915 -55.150  12.352  1.00  0.00     0.167 HD
HETATM   19  C   UNL     1     -45.975 -53.270  14.123  1.00  0.00     0.070 A 
HETATM   20  S   UNL     1     -45.023 -51.974  13.522  1.00  0.00    -0.064 SA
ENDBRANCH   4  15
TORSDOF 4
ENDMDL
MODEL 9
REMARK VINA RESULT:      -4.4      1.913      2.131
REMARK  4 active torsions:
REMARK  status: ('A' for Active; 'I' for Inactive)
REMARK       I    between atoms: C_2  and  N_3 
REMARK       I    between atoms: C_2  and  N_12 
REMARK    1  A    between atoms: N_3  and  C_4 
REMARK    2  A    between atoms: C_4  and  C_5 
REMARK    3  A    between atoms: C_5  and  N_6 
REMARK    4  A    between atoms: N_12  and  C_13 
ROOT
HETATM    1  O   UNL     1     -39.189 -53.022  13.337  1.00  0.00    -0.247 OA
HETATM    2  C   UNL     1     -39.664 -51.890  13.418  1.00  0.00     0.322 C 
HETATM    3  N   UNL     1     -40.998 -51.642  13.517  1.00  0.00    -0.341 N 
HETATM    4  N   UNL     1     -38.836 -50.816  13.316  1.00  0.00    -0.289 N 
HETATM    5  H   UNL     1     -41.257 -50.709  13.832  1.00  0.00     0.164 HD
HETATM    6  H   UNL     1     -37.875 -51.025  13.096  1.00  0.00     0.172 HD
ENDROOT
BRANCH   3   7
HETATM    7  C   UNL     1     -41.992 -52.697  13.549  1.00  0.00     0.154 C 
BRANCH   7   8
HETATM    8  C   UNL     1     -43.364 -52.191  13.061  1.00  0.00     0.292 C 
BRANCH   8   9
HETATM    9  N   UNL     1     -44.500 -53.069  13.401  1.00  0.00     0.090 N 
HETATM   10  C   UNL     1     -45.708 -52.819  12.600  1.00  0.00     0.272 C 
HETATM   11  C   UNL     1     -46.404 -51.494  12.920  1.00  0.00     0.030 C 
HETATM   12  C   UNL     1     -46.733 -51.396  14.407  1.00  0.00     0.003 C 
HETATM   13  C   UNL     1     -45.504 -51.689  15.261  1.00  0.00     0.030 C 
HETATM   14  C   UNL     1     -44.827 -52.997  14.837  1.00  0.00     0.272 C 
ENDBRANCH   8   9
ENDBRANCH   7   8
ENDBRANCH   3   7
BRANCH   4  15
HETATM   15  C   UNL     1     -39.212 -49.509  13.396  1.00  0.00     0.152 A 
HETATM   16  N   UNL     1     -39.371 -48.777  14.473  1.00  0.00    -0.346 N 
HETATM   17  C   UNL     1     -39.776 -47.511  14.094  1.00  0.00     0.097 A 
ATOM     18  HN  UNL     1     -39.220 -49.090  15.432  1.00  0.00     0.167 HD
HETATM   19  C   UNL     1     -39.959 -47.325  12.739  1.00  0.00     0.070 A 
HETATM   20  S   UNL     1     -39.525 -48.757  11.899  1.00  0.00    -0.064 SA
ENDBRANCH   4  15
TORSDOF 4
ENDMDL
