MODEL 1
REMARK VINA RESULT:      -6.8      0.000      0.000
REMARK  6 active torsions:
REMARK  status: ('A' for Active; 'I' for Inactive)
REMARK    1  A    between atoms: C_2  and  C_4 
REMARK    2  A    between atoms: C_4  and  C_5 
REMARK    3  A    between atoms: C_8  and  C_11 
REMARK    4  A    between atoms: C_11  and  O_12 
REMARK    5  A    between atoms: C_11  and  C_13 
REMARK    6  A    between atoms: C_13  and  N_14 
ROOT
HETATM    1  N   UNL     1     -44.196 -53.586  13.194  1.00  0.00    -0.253 N 
HETATM    2  N   UNL     1     -43.131 -53.040  12.532  1.00  0.00    -0.300 N 
ATOM      3  HN  UNL     1     -43.277 -52.410  11.744  1.00  0.00     0.187 HD
HETATM    4  C   UNL     1     -41.933 -53.339  12.928  1.00  0.00     0.029 A 
HETATM    5  C   UNL     1     -40.796 -52.684  12.175  1.00  0.00     0.070 C 
HETATM    6  C   UNL     1     -41.622 -54.259  14.058  1.00  0.00    -0.012 A 
HETATM    7  C   UNL     1     -40.204 -54.605  14.409  1.00  0.00     0.052 C 
HETATM    8  C   UNL     1     -42.689 -54.742  14.714  1.00  0.00     0.121 A 
HETATM    9  C   UNL     1     -42.540 -55.644  15.809  1.00  0.00     0.105 C 
HETATM   10  N   UNL     1     -42.344 -56.381  16.685  1.00  0.00    -0.191 NA
HETATM   11  C   UNL     1     -44.072 -54.373  14.331  1.00  0.00     0.283 A 
HETATM   12  O   UNL     1     -45.032 -54.770  14.992  1.00  0.00    -0.265 OA
ENDROOT
BRANCH   1  13
HETATM   13  C   UNL     1     -45.523 -53.194  12.723  1.00  0.00     0.189 C 
BRANCH  13  14
HETATM   14  C   UNL     1     -45.929 -51.749  13.076  1.00  0.00     0.171 C 
BRANCH  14  15
HETATM   15  C   UNL     1     -46.155 -51.434  14.546  1.00  0.00    -0.028 A 
HETATM   16  C   UNL     1     -45.115 -50.826  15.267  1.00  0.00     0.010 A 
HETATM   17  C   UNL     1     -45.286 -50.434  16.594  1.00  0.00     0.007 A 
HETATM   18  C   UNL     1     -46.510 -50.638  17.241  1.00  0.00    -0.058 A 
HETATM   19  C   UNL     1     -47.520 -51.328  16.558  1.00  0.00     0.007 A 
HETATM   20  C   UNL     1     -47.343 -51.729  15.228  1.00  0.00     0.010 A 
BRANCH  18  21
HETATM   21  C   UNL     1     -46.751 -50.069  18.622  1.00  0.00     0.042 C 
BRANCH  21  22
HETATM   22  C   UNL     1     -48.222 -49.650  18.858  1.00  0.00    -0.019 C 
HETATM   23  C   UNL     1     -48.769 -50.196  20.181  1.00  0.00     0.010 C 
HETATM   24  C   UNL     1     -48.361 -48.125  18.828  1.00  0.00     0.010 C 
ENDBRANCH  21  22
ENDBRANCH  18  21
ENDBRANCH  14  15
BRANCH  14  25
HETATM   25  O   UNL     1     -44.928 -50.858  12.567  1.00  0.00    -0.389 OA
HETATM   26  H   UNL     1     -45.218 -49.952  12.773  1.00  0.00     0.210 HD
ENDBRANCH  14  25
ENDBRANCH  13  14
ENDBRANCH   1  13
TORSDOF 6
ENDMDL
MODEL 2
REMARK VINA RESULT:      -6.7      3.607      6.487
REMARK  6 active torsions:
REMARK  status: ('A' for Active; 'I' for Inactive)
REMARK    1  A    between atoms: C_2  and  C_4 
REMARK    2  A    between atoms: C_4  and  C_5 
REMARK    3  A    between atoms: C_8  and  C_11 
REMARK    4  A    between atoms: C_11  and  O_12 
REMARK    5  A    between atoms: C_11  and  C_13 
REMARK    6  A    between atoms: C_13  and  N_14 
ROOT
HETATM    1  N   UNL     1     -39.270 -51.801  14.265  1.00  0.00    -0.253 N 
HETATM    2  N   UNL     1     -40.270 -50.935  14.608  1.00  0.00    -0.300 N 
ATOM      3  HN  UNL     1     -40.891 -51.141  15.391  1.00  0.00     0.187 HD
HETATM    4  C   UNL     1     -40.413 -49.846  13.919  1.00  0.00     0.029 A 
HETATM    5  C   UNL     1     -41.519 -48.913  14.363  1.00  0.00     0.070 C 
HETATM    6  C   UNL     1     -39.566 -49.466  12.754  1.00  0.00    -0.012 A 
HETATM    7  C   UNL     1     -39.843 -48.216  11.969  1.00  0.00     0.052 C 
HETATM    8  C   UNL     1     -38.567 -50.316  12.471  1.00  0.00     0.121 A 
HETATM    9  C   UNL     1     -37.685 -50.085  11.373  1.00  0.00     0.105 C 
HETATM   10  N   UNL     1     -37.012 -49.838  10.460  1.00  0.00    -0.191 NA
HETATM   11  C   UNL     1     -38.333 -51.539  13.274  1.00  0.00     0.283 A 
HETATM   12  O   UNL     1     -37.366 -52.265  13.042  1.00  0.00    -0.265 OA
ENDROOT
BRANCH   1  13
HETATM   13  C   UNL     1     -39.138 -53.000  15.091  1.00  0.00     0.189 C 
BRANCH  13  14
HETATM   14  C   UNL     1     -39.797 -54.263  14.502  1.00  0.00     0.171 C 
BRANCH  14  15
HETATM   15  C   UNL     1     -41.270 -54.168  14.138  1.00  0.00    -0.028 A 
HETATM   16  C   UNL     1     -42.221 -54.579  15.087  1.00  0.00     0.010 A 
HETATM   17  C   UNL     1     -43.587 -54.439  14.850  1.00  0.00     0.007 A 
HETATM   18  C   UNL     1     -44.046 -53.880  13.653  1.00  0.00    -0.058 A 
HETATM   19  C   UNL     1     -43.107 -53.556  12.664  1.00  0.00     0.007 A 
HETATM   20  C   UNL     1     -41.735 -53.705  12.901  1.00  0.00     0.010 A 
BRANCH  18  21
HETATM   21  C   UNL     1     -45.516 -53.578  13.461  1.00  0.00     0.042 C 
BRANCH  21  22
HETATM   22  C   UNL     1     -45.807 -52.068  13.280  1.00  0.00    -0.019 C 
HETATM   23  C   UNL     1     -46.693 -51.797  12.060  1.00  0.00     0.010 C 
HETATM   24  C   UNL     1     -46.463 -51.490  14.538  1.00  0.00     0.010 C 
ENDBRANCH  21  22
ENDBRANCH  18  21
ENDBRANCH  14  15
BRANCH  14  25
HETATM   25  O   UNL     1     -39.063 -54.655  13.333  1.00  0.00    -0.389 OA
HETATM   26  H   UNL     1     -39.246 -53.993  12.643  1.00  0.00     0.210 HD
ENDBRANCH  14  25
ENDBRANCH  13  14
ENDBRANCH   1  13
TORSDOF 6
ENDMDL
MODEL 3
REMARK VINA RESULT:      -6.3      5.940      8.548
REMARK  6 active torsions:
REMARK  status: ('A' for Active; 'I' for Inactive)
REMARK    1  A    between atoms: C_2  and  C_4 
REMARK    2  A    between atoms: C_4  and  C_5 
REMARK    3  A    between atoms: C_8  and  C_11 
REMARK    4  A    between atoms: C_11  and  O_12 
REMARK    5  A    between atoms: C_11  and  C_13 
REMARK    6  A    between atoms: C_13  and  N_14 
ROOT
HETATM    1  N   UNL     1     -41.101 -46.730  11.279  1.00  0.00    -0.253 N 
HETATM    2  N   UNL     1     -40.179 -46.825  12.284  1.00  0.00    -0.300 N 
ATOM      3  HN  UNL     1     -39.839 -47.736  12.593  1.00  0.00     0.187 HD
HETATM    4  C   UNL     1     -39.745 -45.735  12.836  1.00  0.00     0.029 A 
HETATM    5  C   UNL     1     -38.706 -45.901  13.923  1.00  0.00     0.070 C 
HETATM    6  C   UNL     1     -40.192 -44.363  12.462  1.00  0.00    -0.012 A 
HETATM    7  C   UNL     1     -39.689 -43.156  13.199  1.00  0.00     0.052 C 
HETATM    8  C   UNL     1     -41.064 -44.303  11.443  1.00  0.00     0.121 A 
HETATM    9  C   UNL     1     -41.587 -43.057  10.988  1.00  0.00     0.105 C 
HETATM   10  N   UNL     1     -41.977 -42.008  10.676  1.00  0.00    -0.191 NA
HETATM   11  C   UNL     1     -41.534 -45.523  10.746  1.00  0.00     0.283 A 
HETATM   12  O   UNL     1     -42.276 -45.439   9.768  1.00  0.00    -0.265 OA
ENDROOT
BRANCH   1  13
HETATM   13  C   UNL     1     -41.535 -47.988  10.676  1.00  0.00     0.189 C 
BRANCH  13  14
HETATM   14  C   UNL     1     -40.910 -49.251  11.302  1.00  0.00     0.171 C 
BRANCH  14  15
HETATM   15  C   UNL     1     -41.844 -50.185  12.053  1.00  0.00    -0.028 A 
HETATM   16  C   UNL     1     -41.579 -51.565  12.021  1.00  0.00     0.010 A 
HETATM   17  C   UNL     1     -42.346 -52.466  12.757  1.00  0.00     0.007 A 
HETATM   18  C   UNL     1     -43.405 -52.014  13.551  1.00  0.00    -0.058 A 
HETATM   19  C   UNL     1     -43.735 -50.653  13.513  1.00  0.00     0.007 A 
HETATM   20  C   UNL     1     -42.968 -49.749  12.767  1.00  0.00     0.010 A 
BRANCH  18  21
HETATM   21  C   UNL     1     -44.133 -52.967  14.473  1.00  0.00     0.042 C 
BRANCH  21  22
HETATM   22  C   UNL     1     -43.968 -54.451  14.067  1.00  0.00    -0.019 C 
HETATM   23  C   UNL     1     -43.180 -55.248  15.113  1.00  0.00     0.010 C 
HETATM   24  C   UNL     1     -45.333 -55.104  13.837  1.00  0.00     0.010 C 
ENDBRANCH  21  22
ENDBRANCH  18  21
ENDBRANCH  14  15
BRANCH  14  25
HETATM   25  O   UNL     1     -40.255 -49.996  10.266  1.00  0.00    -0.389 OA
HETATM   26  H   UNL     1     -40.766 -50.813  10.133  1.00  0.00     0.210 HD
ENDBRANCH  14  25
ENDBRANCH  13  14
ENDBRANCH   1  13
TORSDOF 6
ENDMDL
MODEL 4
REMARK VINA RESULT:      -6.3      3.967      6.994
REMARK  6 active torsions:
REMARK  status: ('A' for Active; 'I' for Inactive)
REMARK    1  A    between atoms: C_2  and  C_4 
REMARK    2  A    between atoms: C_4  and  C_5 
REMARK    3  A    between atoms: C_8  and  C_11 
REMARK    4  A    between atoms: C_11  and  O_12 
REMARK    5  A    between atoms: C_11  and  C_13 
REMARK    6  A    between atoms: C_13  and  N_14 
ROOT
HETATM    1  N   UNL     1     -42.063 -53.001  12.594  1.00  0.00    -0.253 N 
HETATM    2  N   UNL     1     -43.307 -52.625  12.170  1.00  0.00    -0.300 N 
ATOM      3  HN  UNL     1     -43.416 -51.967  11.399  1.00  0.00     0.187 HD
HETATM    4  C   UNL     1     -44.344 -53.123  12.767  1.00  0.00     0.029 A 
HETATM    5  C   UNL     1     -45.694 -52.692  12.236  1.00  0.00     0.070 C 
HETATM    6  C   UNL     1     -44.284 -54.079  13.909  1.00  0.00    -0.012 A 
HETATM    7  C   UNL     1     -45.535 -54.556  14.588  1.00  0.00     0.052 C 
HETATM    8  C   UNL     1     -43.049 -54.461  14.271  1.00  0.00     0.121 A 
HETATM    9  C   UNL     1     -42.841 -55.362  15.357  1.00  0.00     0.105 C 
HETATM   10  N   UNL     1     -42.746 -56.091  16.256  1.00  0.00    -0.191 NA
HETATM   11  C   UNL     1     -41.842 -53.962  13.571  1.00  0.00     0.283 A 
HETATM   12  O   UNL     1     -40.725 -54.382  13.874  1.00  0.00    -0.265 OA
ENDROOT
BRANCH   1  13
HETATM   13  C   UNL     1     -40.930 -52.429  11.869  1.00  0.00     0.189 C 
BRANCH  13  14
HETATM   14  C   UNL     1     -40.855 -50.890  11.903  1.00  0.00     0.171 C 
BRANCH  14  15
HETATM   15  C   UNL     1     -39.805 -50.269  12.810  1.00  0.00    -0.028 A 
HETATM   16  C   UNL     1     -38.653 -49.721  12.223  1.00  0.00     0.010 A 
HETATM   17  C   UNL     1     -37.694 -49.061  12.989  1.00  0.00     0.007 A 
HETATM   18  C   UNL     1     -37.858 -48.929  14.372  1.00  0.00    -0.058 A 
HETATM   19  C   UNL     1     -38.957 -49.555  14.977  1.00  0.00     0.007 A 
HETATM   20  C   UNL     1     -39.916 -50.224  14.206  1.00  0.00     0.010 A 
BRANCH  18  21
HETATM   21  C   UNL     1     -36.905 -48.077  15.180  1.00  0.00     0.042 C 
BRANCH  21  22
HETATM   22  C   UNL     1     -36.446 -48.756  16.492  1.00  0.00    -0.019 C 
HETATM   23  C   UNL     1     -35.535 -49.959  16.228  1.00  0.00     0.010 C 
HETATM   24  C   UNL     1     -35.729 -47.751  17.399  1.00  0.00     0.010 C 
ENDBRANCH  21  22
ENDBRANCH  18  21
ENDBRANCH  14  15
BRANCH  14  25
HETATM   25  O   UNL     1     -40.642 -50.415  10.567  1.00  0.00    -0.389 OA
HETATM   26  H   UNL     1     -40.061 -49.636  10.628  1.00  0.00     0.210 HD
ENDBRANCH  14  25
ENDBRANCH  13  14
ENDBRANCH   1  13
TORSDOF 6
ENDMDL
MODEL 5
REMARK VINA RESULT:      -6.3      5.202      7.170
REMARK  6 active torsions:
REMARK  status: ('A' for Active; 'I' for Inactive)
REMARK    1  A    between atoms: C_2  and  C_4 
REMARK    2  A    between atoms: C_4  and  C_5 
REMARK    3  A    between atoms: C_8  and  C_11 
REMARK    4  A    between atoms: C_11  and  O_12 
REMARK    5  A    between atoms: C_11  and  C_13 
REMARK    6  A    between atoms: C_13  and  N_14 
ROOT
HETATM    1  N   UNL     1     -39.227 -48.316  12.303  1.00  0.00    -0.253 N 
HETATM    2  N   UNL     1     -39.590 -47.500  11.268  1.00  0.00    -0.300 N 
ATOM      3  HN  UNL     1     -39.675 -47.868  10.320  1.00  0.00     0.187 HD
HETATM    4  C   UNL     1     -39.823 -46.248  11.515  1.00  0.00     0.029 A 
HETATM    5  C   UNL     1     -40.248 -45.400  10.336  1.00  0.00     0.070 C 
HETATM    6  C   UNL     1     -39.711 -45.618  12.860  1.00  0.00    -0.012 A 
HETATM    7  C   UNL     1     -39.935 -44.145  13.048  1.00  0.00     0.052 C 
HETATM    8  C   UNL     1     -39.396 -46.456  13.861  1.00  0.00     0.121 A 
HETATM    9  C   UNL     1     -39.243 -45.987  15.200  1.00  0.00     0.105 C 
HETATM   10  N   UNL     1     -39.126 -45.535  16.263  1.00  0.00    -0.191 NA
HETATM   11  C   UNL     1     -39.184 -47.904  13.628  1.00  0.00     0.283 A 
HETATM   12  O   UNL     1     -38.968 -48.664  14.571  1.00  0.00    -0.265 OA
ENDROOT
BRANCH   1  13
HETATM   13  C   UNL     1     -39.001 -49.721  11.971  1.00  0.00     0.189 C 
BRANCH  13  14
HETATM   14  C   UNL     1     -40.229 -50.449  11.388  1.00  0.00     0.171 C 
BRANCH  14  15
HETATM   15  C   UNL     1     -41.486 -50.478  12.242  1.00  0.00    -0.028 A 
HETATM   16  C   UNL     1     -41.764 -51.638  12.984  1.00  0.00     0.010 A 
HETATM   17  C   UNL     1     -42.854 -51.698  13.852  1.00  0.00     0.007 A 
HETATM   18  C   UNL     1     -43.700 -50.595  14.005  1.00  0.00    -0.058 A 
HETATM   19  C   UNL     1     -43.483 -49.469  13.199  1.00  0.00     0.007 A 
HETATM   20  C   UNL     1     -42.393 -49.414  12.321  1.00  0.00     0.010 A 
BRANCH  18  21
HETATM   21  C   UNL     1     -44.782 -50.599  15.063  1.00  0.00     0.042 C 
BRANCH  21  22
HETATM   22  C   UNL     1     -45.900 -51.633  14.783  1.00  0.00    -0.019 C 
HETATM   23  C   UNL     1     -47.049 -51.521  15.790  1.00  0.00     0.010 C 
HETATM   24  C   UNL     1     -46.440 -51.474  13.359  1.00  0.00     0.010 C 
ENDBRANCH  21  22
ENDBRANCH  18  21
ENDBRANCH  14  15
BRANCH  14  25
HETATM   25  O   UNL     1     -40.550 -49.856  10.123  1.00  0.00    -0.389 OA
HETATM   26  H   UNL     1     -39.744 -49.419   9.797  1.00  0.00     0.210 HD
ENDBRANCH  14  25
ENDBRANCH  13  14
ENDBRANCH   1  13
TORSDOF 6
ENDMDL
MODEL 6
REMARK VINA RESULT:      -6.2      3.634      6.119
REMARK  6 active torsions:
REMARK  status: ('A' for Active; 'I' for Inactive)
REMARK    1  A    between atoms: C_2  and  C_4 
REMARK    2  A    between atoms: C_4  and  C_5 
REMARK    3  A    between atoms: C_8  and  C_11 
REMARK    4  A    between atoms: C_11  and  O_12 
REMARK    5  A    between atoms: C_11  and  C_13 
REMARK    6  A    between atoms: C_13  and  N_14 
ROOT
HETATM    1  N   UNL     1     -39.286 -51.808  14.546  1.00  0.00    -0.253 N 
HETATM    2  N   UNL     1     -38.383 -51.647  13.533  1.00  0.00    -0.300 N 
ATOM      3  HN  UNL     1     -37.679 -52.362  13.345  1.00  0.00     0.187 HD
HETATM    4  C   UNL     1     -38.439 -50.569  12.816  1.00  0.00     0.029 A 
HETATM    5  C   UNL     1     -37.432 -50.459  11.691  1.00  0.00     0.070 C 
HETATM    6  C   UNL     1     -39.420 -49.466  13.023  1.00  0.00    -0.012 A 
HETATM    7  C   UNL     1     -39.374 -48.220  12.188  1.00  0.00     0.052 C 
HETATM    8  C   UNL     1     -40.320 -49.676  13.997  1.00  0.00     0.121 A 
HETATM    9  C   UNL     1     -41.310 -48.700  14.314  1.00  0.00     0.105 C 
HETATM   10  N   UNL     1     -42.082 -47.858  14.523  1.00  0.00    -0.191 NA
HETATM   11  C   UNL     1     -40.327 -50.924  14.796  1.00  0.00     0.283 A 
HETATM   12  O   UNL     1     -41.206 -51.126  15.634  1.00  0.00    -0.265 OA
ENDROOT
BRANCH   1  13
HETATM   13  C   UNL     1     -39.193 -53.054  15.306  1.00  0.00     0.189 C 
BRANCH  13  14
HETATM   14  C   UNL     1     -39.738 -54.296  14.573  1.00  0.00     0.171 C 
BRANCH  14  15
HETATM   15  C   UNL     1     -41.221 -54.307  14.239  1.00  0.00    -0.028 A 
HETATM   16  C   UNL     1     -42.116 -54.835  15.184  1.00  0.00     0.010 A 
HETATM   17  C   UNL     1     -43.494 -54.797  14.977  1.00  0.00     0.007 A 
HETATM   18  C   UNL     1     -44.021 -54.225  13.814  1.00  0.00    -0.058 A 
HETATM   19  C   UNL     1     -43.132 -53.782  12.825  1.00  0.00     0.007 A 
HETATM   20  C   UNL     1     -41.747 -53.829  13.032  1.00  0.00     0.010 A 
BRANCH  18  21
HETATM   21  C   UNL     1     -45.514 -54.036  13.661  1.00  0.00     0.042 C 
BRANCH  21  22
HETATM   22  C   UNL     1     -45.981 -52.598  13.991  1.00  0.00    -0.019 C 
HETATM   23  C   UNL     1     -44.933 -51.826  14.799  1.00  0.00     0.010 C 
HETATM   24  C   UNL     1     -46.318 -51.831  12.709  1.00  0.00     0.010 C 
ENDBRANCH  21  22
ENDBRANCH  18  21
ENDBRANCH  14  15
BRANCH  14  25
HETATM   25  O   UNL     1     -38.996 -54.468  13.358  1.00  0.00    -0.389 OA
HETATM   26  H   UNL     1     -38.075 -54.662  13.608  1.00  0.00     0.210 HD
ENDBRANCH  14  25
ENDBRANCH  13  14
ENDBRANCH   1  13
TORSDOF 6
ENDMDL
MODEL 7
REMARK VINA RESULT:      -6.0      4.080      6.027
REMARK  6 active torsions:
REMARK  status: ('A' for Active; 'I' for Inactive)
REMARK    1  A    between atoms: C_2  and  C_4 
REMARK    2  A    between atoms: C_4  and  C_5 
REMARK    3  A    between atoms: C_8  and  C_11 
REMARK    4  A    between atoms: C_11  and  O_12 
REMARK    5  A    between atoms: C_11  and  C_13 
REMARK    6  A    between atoms: C_13  and  N_14 
ROOT
HETATM    1  N   UNL     1     -39.101 -51.206  13.952  1.00  0.00    -0.253 N 
HETATM    2  N   UNL     1     -39.340 -52.152  14.909  1.00  0.00    -0.300 N 
ATOM      3  HN  UNL     1     -39.988 -52.920  14.731  1.00  0.00     0.187 HD
HETATM    4  C   UNL     1     -38.726 -52.055  16.047  1.00  0.00     0.029 A 
HETATM    5  C   UNL     1     -39.009 -53.146  17.056  1.00  0.00     0.070 C 
HETATM    6  C   UNL     1     -37.774 -50.965  16.402  1.00  0.00    -0.012 A 
HETATM    7  C   UNL     1     -37.156 -50.890  17.769  1.00  0.00     0.052 C 
HETATM    8  C   UNL     1     -37.528 -50.078  15.425  1.00  0.00     0.121 A 
HETATM    9  C   UNL     1     -36.648 -48.974  15.630  1.00  0.00     0.105 C 
HETATM   10  N   UNL     1     -35.927 -48.096  15.870  1.00  0.00    -0.191 NA
HETATM   11  C   UNL     1     -38.163 -50.192  14.091  1.00  0.00     0.283 A 
HETATM   12  O   UNL     1     -37.867 -49.410  13.188  1.00  0.00    -0.265 OA
ENDROOT
BRANCH   1  13
HETATM   13  C   UNL     1     -39.800 -51.379  12.680  1.00  0.00     0.189 C 
BRANCH  13  14
HETATM   14  C   UNL     1     -40.817 -52.538  12.658  1.00  0.00     0.171 C 
BRANCH  14  15
HETATM   15  C   UNL     1     -42.288 -52.169  12.759  1.00  0.00    -0.028 A 
HETATM   16  C   UNL     1     -43.246 -53.167  12.516  1.00  0.00     0.010 A 
HETATM   17  C   UNL     1     -44.608 -52.917  12.675  1.00  0.00     0.007 A 
HETATM   18  C   UNL     1     -45.054 -51.656  13.086  1.00  0.00    -0.058 A 
HETATM   19  C   UNL     1     -44.112 -50.630  13.238  1.00  0.00     0.007 A 
HETATM   20  C   UNL     1     -42.744 -50.882  13.070  1.00  0.00     0.010 A 
BRANCH  18  21
HETATM   21  C   UNL     1     -46.513 -51.429  13.416  1.00  0.00     0.042 C 
BRANCH  21  22
HETATM   22  C   UNL     1     -46.870 -51.795  14.877  1.00  0.00    -0.019 C 
HETATM   23  C   UNL     1     -46.837 -53.308  15.113  1.00  0.00     0.010 C 
HETATM   24  C   UNL     1     -45.923 -51.096  15.856  1.00  0.00     0.010 C 
ENDBRANCH  21  22
ENDBRANCH  18  21
ENDBRANCH  14  15
BRANCH  14  25
HETATM   25  O   UNL     1     -40.618 -53.294  11.455  1.00  0.00    -0.389 OA
HETATM   26  H   UNL     1     -41.027 -54.167  11.593  1.00  0.00     0.210 HD
ENDBRANCH  14  25
ENDBRANCH  13  14
ENDBRANCH   1  13
TORSDOF 6
ENDMDL
MODEL 8
REMARK VINA RESULT:      -5.9      3.071      7.094
REMARK  6 active torsions:
REMARK  status: ('A' for Active; 'I' for Inactive)
REMARK    1  A    between atoms: C_2  and  C_4 
REMARK    2  A    between atoms: C_4  and  C_5 
REMARK    3  A    between atoms: C_8  and  C_11 
REMARK    4  A    between atoms: C_11  and  O_12 
REMARK    5  A    between atoms: C_11  and  C_13 
REMARK    6  A    between atoms: C_13  and  N_14 
ROOT
HETATM    1  N   UNL     1     -42.801 -50.659  13.073  1.00  0.00    -0.253 N 
HETATM    2  N   UNL     1     -43.777 -51.443  12.523  1.00  0.00    -0.300 N 
ATOM      3  HN  UNL     1     -43.670 -51.824  11.583  1.00  0.00     0.187 HD
HETATM    4  C   UNL     1     -44.841 -51.692  13.221  1.00  0.00     0.029 A 
HETATM    5  C   UNL     1     -45.874 -52.587  12.571  1.00  0.00     0.070 C 
HETATM    6  C   UNL     1     -45.093 -51.170  14.594  1.00  0.00    -0.012 A 
HETATM    7  C   UNL     1     -46.383 -51.453  15.306  1.00  0.00     0.052 C 
HETATM    8  C   UNL     1     -44.096 -50.441  15.121  1.00  0.00     0.121 A 
HETATM    9  C   UNL     1     -44.205 -49.867  16.422  1.00  0.00     0.105 C 
HETATM   10  N   UNL     1     -44.367 -49.424  17.483  1.00  0.00    -0.191 NA
HETATM   11  C   UNL     1     -42.839 -50.188  14.378  1.00  0.00     0.283 A 
HETATM   12  O   UNL     1     -41.910 -49.579  14.909  1.00  0.00    -0.265 OA
ENDROOT
BRANCH   1  13
HETATM   13  C   UNL     1     -41.613 -50.432  12.252  1.00  0.00     0.189 C 
BRANCH  13  14
HETATM   14  C   UNL     1     -40.785 -51.698  11.957  1.00  0.00     0.171 C 
BRANCH  14  15
HETATM   15  C   UNL     1     -40.333 -52.524  13.150  1.00  0.00    -0.028 A 
HETATM   16  C   UNL     1     -39.362 -51.983  14.009  1.00  0.00     0.010 A 
HETATM   17  C   UNL     1     -38.967 -52.650  15.167  1.00  0.00     0.007 A 
HETATM   18  C   UNL     1     -39.535 -53.884  15.504  1.00  0.00    -0.058 A 
HETATM   19  C   UNL     1     -40.434 -54.473  14.604  1.00  0.00     0.007 A 
HETATM   20  C   UNL     1     -40.823 -53.804  13.437  1.00  0.00     0.010 A 
BRANCH  18  21
HETATM   21  C   UNL     1     -39.229 -54.530  16.837  1.00  0.00     0.042 C 
BRANCH  21  22
HETATM   22  C   UNL     1     -38.521 -55.900  16.700  1.00  0.00    -0.019 C 
HETATM   23  C   UNL     1     -37.095 -55.866  17.260  1.00  0.00     0.010 C 
HETATM   24  C   UNL     1     -39.328 -56.998  17.397  1.00  0.00     0.010 C 
ENDBRANCH  21  22
ENDBRANCH  18  21
ENDBRANCH  14  15
BRANCH  14  25
HETATM   25  O   UNL     1     -41.543 -52.542  11.079  1.00  0.00    -0.389 OA
HETATM   26  H   UNL     1     -42.429 -52.149  10.996  1.00  0.00     0.210 HD
ENDBRANCH  14  25
ENDBRANCH  13  14
ENDBRANCH   1  13
TORSDOF 6
ENDMDL
MODEL 9
REMARK VINA RESULT:      -5.9      5.293      7.098
REMARK  6 active torsions:
REMARK  status: ('A' for Active; 'I' for Inactive)
REMARK    1  A    between atoms: C_2  and  C_4 
REMARK    2  A    between atoms: C_4  and  C_5 
REMARK    3  A    between atoms: C_8  and  C_11 
REMARK    4  A    between atoms: C_11  and  O_12 
REMARK    5  A    between atoms: C_11  and  C_13 
REMARK    6  A    between atoms: C_13  and  N_14 
ROOT
HETATM    1  N   UNL     1     -40.454 -51.955  12.957  1.00  0.00    -0.253 N 
HETATM    2  N   UNL     1     -41.802 -51.981  12.728  1.00  0.00    -0.300 N 
ATOM      3  HN  UNL     1     -42.243 -51.274  12.139  1.00  0.00     0.187 HD
HETATM    4  C   UNL     1     -42.508 -52.921  13.275  1.00  0.00     0.029 A 
HETATM    5  C   UNL     1     -43.989 -52.915  12.964  1.00  0.00     0.070 C 
HETATM    6  C   UNL     1     -41.956 -53.986  14.160  1.00  0.00    -0.012 A 
HETATM    7  C   UNL     1     -42.854 -54.999  14.807  1.00  0.00     0.052 C 
HETATM    8  C   UNL     1     -40.624 -53.958  14.327  1.00  0.00     0.121 A 
HETATM    9  C   UNL     1     -39.961 -54.909  15.158  1.00  0.00     0.105 C 
HETATM   10  N   UNL     1     -39.490 -55.709  15.856  1.00  0.00    -0.191 NA
HETATM   11  C   UNL     1     -39.777 -52.936  13.667  1.00  0.00     0.283 A 
HETATM   12  O   UNL     1     -38.551 -52.974  13.777  1.00  0.00    -0.265 OA
ENDROOT
BRANCH   1  13
HETATM   13  C   UNL     1     -39.705 -50.889  12.295  1.00  0.00     0.189 C 
BRANCH  13  14
HETATM   14  C   UNL     1     -40.576 -49.856  11.552  1.00  0.00     0.171 C 
BRANCH  14  15
HETATM   15  C   UNL     1     -40.379 -48.395  11.918  1.00  0.00    -0.028 A 
HETATM   16  C   UNL     1     -39.651 -48.088  13.080  1.00  0.00     0.010 A 
HETATM   17  C   UNL     1     -39.362 -46.769  13.426  1.00  0.00     0.007 A 
HETATM   18  C   UNL     1     -39.792 -45.712  12.616  1.00  0.00    -0.058 A 
HETATM   19  C   UNL     1     -40.598 -46.005  11.507  1.00  0.00     0.007 A 
HETATM   20  C   UNL     1     -40.894 -47.331  11.166  1.00  0.00     0.010 A 
BRANCH  18  21
HETATM   21  C   UNL     1     -39.342 -44.296  12.900  1.00  0.00     0.042 C 
BRANCH  21  22
HETATM   22  C   UNL     1     -40.517 -43.293  12.994  1.00  0.00    -0.019 C 
HETATM   23  C   UNL     1     -40.584 -42.616  14.367  1.00  0.00     0.010 C 
HETATM   24  C   UNL     1     -40.411 -42.231  11.896  1.00  0.00     0.010 C 
ENDBRANCH  21  22
ENDBRANCH  18  21
ENDBRANCH  14  15
BRANCH  14  25
HETATM   25  O   UNL     1     -40.357 -50.007  10.143  1.00  0.00    -0.389 OA
HETATM   26  H   UNL     1     -41.139 -49.644   9.690  1.00  0.00     0.210 HD
ENDBRANCH  14  25
ENDBRANCH  13  14
ENDBRANCH   1  13
TORSDOF 6
ENDMDL
