MODEL 1
REMARK VINA RESULT:      -5.0      0.000      0.000
REMARK  4 active torsions:
REMARK  status: ('A' for Active; 'I' for Inactive)
REMARK       I    between atoms: C_2  and  N_3 
REMARK    1  A    between atoms: C_2  and  C_13 
REMARK    2  A    between atoms: N_3  and  C_4 
REMARK    3  A    between atoms: C_4  and  C_5 
REMARK    4  A    between atoms: C_5  and  C_6 
ROOT
HETATM    1  C   UNL     1     -41.297 -52.143  11.792  1.00  0.00     0.128 C 
ENDROOT
BRANCH   1   2
HETATM    2  N   UNL     1     -40.064 -51.384  11.653  1.00  0.00    -0.360 N 
HETATM    3  C   UNL     1     -40.040 -50.011  11.673  1.00  0.00     0.221 C 
HETATM    4  O   UNL     1     -41.036 -49.303  11.744  1.00  0.00    -0.273 OA
HETATM    5  H   UNL     1     -39.190 -51.894  11.633  1.00  0.00     0.162 HD
BRANCH   3   6
HETATM    6  C   UNL     1     -38.670 -49.428  11.593  1.00  0.00     0.078 A 
HETATM    7  C   UNL     1     -37.446 -50.289  11.807  1.00  0.00     0.015 A 
HETATM    8  C   UNL     1     -37.838 -49.279  12.846  1.00  0.00     0.015 A 
ENDBRANCH   3   6
ENDBRANCH   1   2
BRANCH   1   9
HETATM    9  C   UNL     1     -41.105 -53.376  12.671  1.00  0.00     0.076 C 
BRANCH   9  10
HETATM   10  C   UNL     1     -42.409 -53.900  13.214  1.00  0.00     0.010 A 
HETATM   11  C   UNL     1     -42.450 -54.560  14.440  1.00  0.00     0.025 A 
HETATM   12  C   UNL     1     -43.663 -55.078  14.886  1.00  0.00     0.003 A 
HETATM   13  C   UNL     1     -44.800 -54.921  14.103  1.00  0.00     0.017 A 
HETATM   14  C   UNL     1     -44.677 -54.236  12.907  1.00  0.00     0.088 A 
HETATM   15  N   UNL     1     -43.514 -53.719  12.449  1.00  0.00    -0.369 N 
ATOM     16  HN  UNL     1     -43.470 -53.213  11.564  1.00  0.00     0.165 HD
ENDBRANCH   9  10
ENDBRANCH   1   9
TORSDOF 4
ENDMDL
MODEL 2
REMARK VINA RESULT:      -4.9      3.985      4.651
REMARK  4 active torsions:
REMARK  status: ('A' for Active; 'I' for Inactive)
REMARK       I    between atoms: C_2  and  N_3 
REMARK    1  A    between atoms: C_2  and  C_13 
REMARK    2  A    between atoms: N_3  and  C_4 
REMARK    3  A    between atoms: C_4  and  C_5 
REMARK    4  A    between atoms: C_5  and  C_6 
ROOT
HETATM    1  C   UNL     1     -42.589 -49.226  12.628  1.00  0.00     0.128 C 
ENDROOT
BRANCH   1   2
HETATM    2  N   UNL     1     -42.821 -48.955  11.218  1.00  0.00    -0.360 N 
HETATM    3  C   UNL     1     -42.962 -47.679  10.729  1.00  0.00     0.221 C 
HETATM    4  O   UNL     1     -42.969 -46.669  11.423  1.00  0.00    -0.273 OA
HETATM    5  H   UNL     1     -42.786 -49.731  10.571  1.00  0.00     0.162 HD
BRANCH   3   6
HETATM    6  C   UNL     1     -43.116 -47.612   9.248  1.00  0.00     0.078 A 
HETATM    7  C   UNL     1     -43.527 -46.327   8.567  1.00  0.00     0.015 A 
HETATM    8  C   UNL     1     -44.492 -47.475   8.637  1.00  0.00     0.015 A 
ENDBRANCH   3   6
ENDBRANCH   1   2
BRANCH   1   9
HETATM    9  C   UNL     1     -42.832 -50.695  12.968  1.00  0.00     0.076 C 
BRANCH   9  10
HETATM   10  C   UNL     1     -44.216 -50.935  13.511  1.00  0.00     0.010 A 
HETATM   11  C   UNL     1     -44.468 -50.822  14.876  1.00  0.00     0.025 A 
HETATM   12  C   UNL     1     -45.747 -51.103  15.351  1.00  0.00     0.003 A 
HETATM   13  C   UNL     1     -46.738 -51.482  14.454  1.00  0.00     0.017 A 
HETATM   14  C   UNL     1     -46.409 -51.550  13.111  1.00  0.00     0.088 A 
HETATM   15  N   UNL     1     -45.178 -51.281  12.620  1.00  0.00    -0.369 N 
ATOM     16  HN  UNL     1     -44.981 -51.336  11.622  1.00  0.00     0.165 HD
ENDBRANCH   9  10
ENDBRANCH   1   9
TORSDOF 4
ENDMDL
MODEL 3
REMARK VINA RESULT:      -4.9      2.411      6.295
REMARK  4 active torsions:
REMARK  status: ('A' for Active; 'I' for Inactive)
REMARK       I    between atoms: C_2  and  N_3 
REMARK    1  A    between atoms: C_2  and  C_13 
REMARK    2  A    between atoms: N_3  and  C_4 
REMARK    3  A    between atoms: C_4  and  C_5 
REMARK    4  A    between atoms: C_5  and  C_6 
ROOT
HETATM    1  C   UNL     1     -42.182 -52.604  12.213  1.00  0.00     0.128 C 
ENDROOT
BRANCH   1   2
HETATM    2  N   UNL     1     -43.560 -52.187  12.418  1.00  0.00    -0.360 N 
HETATM    3  C   UNL     1     -44.594 -53.088  12.511  1.00  0.00     0.221 C 
HETATM    4  O   UNL     1     -44.471 -54.298  12.372  1.00  0.00    -0.273 OA
HETATM    5  H   UNL     1     -43.742 -51.207  12.587  1.00  0.00     0.162 HD
BRANCH   3   6
HETATM    6  C   UNL     1     -45.916 -52.462  12.798  1.00  0.00     0.078 A 
HETATM    7  C   UNL     1     -46.052 -51.374  13.837  1.00  0.00     0.015 A 
HETATM    8  C   UNL     1     -46.614 -52.738  14.110  1.00  0.00     0.015 A 
ENDBRANCH   3   6
ENDBRANCH   1   2
BRANCH   1   9
HETATM    9  C   UNL     1     -41.288 -52.193  13.381  1.00  0.00     0.076 C 
BRANCH   9  10
HETATM   10  C   UNL     1     -40.021 -51.521  12.922  1.00  0.00     0.010 A 
HETATM   11  C   UNL     1     -38.831 -51.702  13.624  1.00  0.00     0.025 A 
HETATM   12  C   UNL     1     -37.691 -51.022  13.203  1.00  0.00     0.003 A 
HETATM   13  C   UNL     1     -37.766 -50.188  12.094  1.00  0.00     0.017 A 
HETATM   14  C   UNL     1     -38.982 -50.079  11.442  1.00  0.00     0.088 A 
HETATM   15  N   UNL     1     -40.105 -50.728  11.826  1.00  0.00    -0.369 N 
ATOM     16  HN  UNL     1     -40.979 -50.625  11.311  1.00  0.00     0.165 HD
ENDBRANCH   9  10
ENDBRANCH   1   9
TORSDOF 4
ENDMDL
MODEL 4
REMARK VINA RESULT:      -4.9      5.812      8.619
REMARK  4 active torsions:
REMARK  status: ('A' for Active; 'I' for Inactive)
REMARK       I    between atoms: C_2  and  N_3 
REMARK    1  A    between atoms: C_2  and  C_13 
REMARK    2  A    between atoms: N_3  and  C_4 
REMARK    3  A    between atoms: C_4  and  C_5 
REMARK    4  A    between atoms: C_5  and  C_6 
ROOT
HETATM    1  C   UNL     1     -43.142 -48.115  11.377  1.00  0.00     0.128 C 
ENDROOT
BRANCH   1   2
HETATM    2  N   UNL     1     -44.295 -47.827  10.538  1.00  0.00    -0.360 N 
HETATM    3  C   UNL     1     -44.181 -47.576   9.193  1.00  0.00     0.221 C 
HETATM    4  O   UNL     1     -43.117 -47.508   8.590  1.00  0.00    -0.273 OA
HETATM    5  H   UNL     1     -45.216 -47.906  10.950  1.00  0.00     0.162 HD
BRANCH   3   6
HETATM    6  C   UNL     1     -45.487 -47.380   8.501  1.00  0.00     0.078 A 
HETATM    7  C   UNL     1     -46.780 -47.330   9.282  1.00  0.00     0.015 A 
HETATM    8  C   UNL     1     -46.476 -48.519   8.418  1.00  0.00     0.015 A 
ENDBRANCH   3   6
ENDBRANCH   1   2
BRANCH   1   9
HETATM    9  C   UNL     1     -42.934 -47.038  12.440  1.00  0.00     0.076 C 
BRANCH   9  10
HETATM   10  C   UNL     1     -42.163 -45.856  11.914  1.00  0.00     0.010 A 
HETATM   11  C   UNL     1     -40.918 -46.034  11.315  1.00  0.00     0.025 A 
HETATM   12  C   UNL     1     -40.209 -44.914  10.889  1.00  0.00     0.003 A 
HETATM   13  C   UNL     1     -40.761 -43.651  11.064  1.00  0.00     0.017 A 
HETATM   14  C   UNL     1     -42.012 -43.563  11.651  1.00  0.00     0.088 A 
HETATM   15  N   UNL     1     -42.725 -44.632  12.073  1.00  0.00    -0.369 N 
ATOM     16  HN  UNL     1     -43.648 -44.523  12.493  1.00  0.00     0.165 HD
ENDBRANCH   9  10
ENDBRANCH   1   9
TORSDOF 4
ENDMDL
MODEL 5
REMARK VINA RESULT:      -4.8      3.170      6.572
REMARK  4 active torsions:
REMARK  status: ('A' for Active; 'I' for Inactive)
REMARK       I    between atoms: C_2  and  N_3 
REMARK    1  A    between atoms: C_2  and  C_13 
REMARK    2  A    between atoms: N_3  and  C_4 
REMARK    3  A    between atoms: C_4  and  C_5 
REMARK    4  A    between atoms: C_5  and  C_6 
ROOT
HETATM    1  C   UNL     1     -42.517 -52.058  12.402  1.00  0.00     0.128 C 
ENDROOT
BRANCH   1   2
HETATM    2  N   UNL     1     -43.940 -51.892  12.653  1.00  0.00    -0.360 N 
HETATM    3  C   UNL     1     -44.820 -52.946  12.616  1.00  0.00     0.221 C 
HETATM    4  O   UNL     1     -44.514 -54.092  12.313  1.00  0.00    -0.273 OA
HETATM    5  H   UNL     1     -44.269 -50.983  12.954  1.00  0.00     0.162 HD
BRANCH   3   6
HETATM    6  C   UNL     1     -46.220 -52.578  12.977  1.00  0.00     0.078 A 
HETATM    7  C   UNL     1     -46.506 -51.398  13.876  1.00  0.00     0.015 A 
HETATM    8  C   UNL     1     -46.717 -52.793  14.388  1.00  0.00     0.015 A 
ENDBRANCH   3   6
ENDBRANCH   1   2
BRANCH   1   9
HETATM    9  C   UNL     1     -41.700 -50.919  13.010  1.00  0.00     0.076 C 
BRANCH   9  10
HETATM   10  C   UNL     1     -42.092 -49.575  12.454  1.00  0.00     0.010 A 
HETATM   11  C   UNL     1     -42.659 -48.607  13.280  1.00  0.00     0.025 A 
HETATM   12  C   UNL     1     -43.058 -47.395  12.722  1.00  0.00     0.003 A 
HETATM   13  C   UNL     1     -42.876 -47.179  11.362  1.00  0.00     0.017 A 
HETATM   14  C   UNL     1     -42.287 -48.185  10.616  1.00  0.00     0.088 A 
HETATM   15  N   UNL     1     -41.887 -49.371  11.130  1.00  0.00    -0.369 N 
ATOM     16  HN  UNL     1     -41.449 -50.082  10.545  1.00  0.00     0.165 HD
ENDBRANCH   9  10
ENDBRANCH   1   9
TORSDOF 4
ENDMDL
MODEL 6
REMARK VINA RESULT:      -4.8      3.912      6.332
REMARK  4 active torsions:
REMARK  status: ('A' for Active; 'I' for Inactive)
REMARK       I    between atoms: C_2  and  N_3 
REMARK    1  A    between atoms: C_2  and  C_13 
REMARK    2  A    between atoms: N_3  and  C_4 
REMARK    3  A    between atoms: C_4  and  C_5 
REMARK    4  A    between atoms: C_5  and  C_6 
ROOT
HETATM    1  C   UNL     1     -43.927 -54.607  13.826  1.00  0.00     0.128 C 
ENDROOT
BRANCH   1   2
HETATM    2  N   UNL     1     -45.087 -53.731  13.891  1.00  0.00    -0.360 N 
HETATM    3  C   UNL     1     -45.974 -53.763  14.939  1.00  0.00     0.221 C 
HETATM    4  O   UNL     1     -45.916 -54.556  15.870  1.00  0.00    -0.273 OA
HETATM    5  H   UNL     1     -45.184 -53.016  13.182  1.00  0.00     0.162 HD
BRANCH   3   6
HETATM    6  C   UNL     1     -47.049 -52.735  14.852  1.00  0.00     0.078 A 
HETATM    7  C   UNL     1     -46.772 -51.367  14.272  1.00  0.00     0.015 A 
HETATM    8  C   UNL     1     -47.004 -51.517  15.747  1.00  0.00     0.015 A 
ENDBRANCH   3   6
ENDBRANCH   1   2
BRANCH   1   9
HETATM    9  C   UNL     1     -42.693 -53.873  13.307  1.00  0.00     0.076 C 
BRANCH   9  10
HETATM   10  C   UNL     1     -41.432 -54.307  14.008  1.00  0.00     0.010 A 
HETATM   11  C   UNL     1     -41.463 -54.686  15.348  1.00  0.00     0.025 A 
HETATM   12  C   UNL     1     -40.271 -55.030  15.979  1.00  0.00     0.003 A 
HETATM   13  C   UNL     1     -39.084 -54.992  15.258  1.00  0.00     0.017 A 
HETATM   14  C   UNL     1     -39.143 -54.623  13.925  1.00  0.00     0.088 A 
HETATM   15  N   UNL     1     -40.285 -54.286  13.285  1.00  0.00    -0.369 N 
ATOM     16  HN  UNL     1     -40.285 -54.028  12.298  1.00  0.00     0.165 HD
ENDBRANCH   9  10
ENDBRANCH   1   9
TORSDOF 4
ENDMDL
MODEL 7
REMARK VINA RESULT:      -4.8      3.443      5.616
REMARK  4 active torsions:
REMARK  status: ('A' for Active; 'I' for Inactive)
REMARK       I    between atoms: C_2  and  N_3 
REMARK    1  A    between atoms: C_2  and  C_13 
REMARK    2  A    between atoms: N_3  and  C_4 
REMARK    3  A    between atoms: C_4  and  C_5 
REMARK    4  A    between atoms: C_5  and  C_6 
ROOT
HETATM    1  C   UNL     1     -44.107 -54.851  14.499  1.00  0.00     0.128 C 
ENDROOT
BRANCH   1   2
HETATM    2  N   UNL     1     -44.767 -53.569  14.304  1.00  0.00    -0.360 N 
HETATM    3  C   UNL     1     -44.566 -52.803  13.182  1.00  0.00     0.221 C 
HETATM    4  O   UNL     1     -43.782 -53.083  12.285  1.00  0.00    -0.273 OA
HETATM    5  H   UNL     1     -45.465 -53.284  14.979  1.00  0.00     0.162 HD
BRANCH   3   6
HETATM    6  C   UNL     1     -45.393 -51.563  13.140  1.00  0.00     0.078 A 
HETATM    7  C   UNL     1     -46.676 -51.458  13.931  1.00  0.00     0.015 A 
HETATM    8  C   UNL     1     -46.730 -51.570  12.436  1.00  0.00     0.015 A 
ENDBRANCH   3   6
ENDBRANCH   1   2
BRANCH   1   9
HETATM    9  C   UNL     1     -43.098 -54.797  15.644  1.00  0.00     0.076 C 
BRANCH   9  10
HETATM   10  C   UNL     1     -41.676 -54.739  15.151  1.00  0.00     0.010 A 
HETATM   11  C   UNL     1     -40.625 -55.131  15.976  1.00  0.00     0.025 A 
HETATM   12  C   UNL     1     -39.319 -55.014  15.507  1.00  0.00     0.003 A 
HETATM   13  C   UNL     1     -39.098 -54.516  14.228  1.00  0.00     0.017 A 
HETATM   14  C   UNL     1     -40.199 -54.166  13.465  1.00  0.00     0.088 A 
HETATM   15  N   UNL     1     -41.478 -54.272  13.893  1.00  0.00    -0.369 N 
ATOM     16  HN  UNL     1     -42.260 -54.011  13.294  1.00  0.00     0.165 HD
ENDBRANCH   9  10
ENDBRANCH   1   9
TORSDOF 4
ENDMDL
MODEL 8
REMARK VINA RESULT:      -4.7      3.281      4.404
REMARK  4 active torsions:
REMARK  status: ('A' for Active; 'I' for Inactive)
REMARK       I    between atoms: C_2  and  N_3 
REMARK    1  A    between atoms: C_2  and  C_13 
REMARK    2  A    between atoms: N_3  and  C_4 
REMARK    3  A    between atoms: C_4  and  C_5 
REMARK    4  A    between atoms: C_5  and  C_6 
ROOT
HETATM    1  C   UNL     1     -41.501 -49.203  11.815  1.00  0.00     0.128 C 
ENDROOT
BRANCH   1   2
HETATM    2  N   UNL     1     -42.228 -48.800  10.621  1.00  0.00    -0.360 N 
HETATM    3  C   UNL     1     -42.666 -47.513  10.428  1.00  0.00     0.221 C 
HETATM    4  O   UNL     1     -42.548 -46.612  11.248  1.00  0.00    -0.273 OA
HETATM    5  H   UNL     1     -42.329 -49.475   9.874  1.00  0.00     0.162 HD
BRANCH   3   6
HETATM    6  C   UNL     1     -43.322 -47.290   9.107  1.00  0.00     0.078 A 
HETATM    7  C   UNL     1     -44.183 -46.072   8.864  1.00  0.00     0.015 A 
HETATM    8  C   UNL     1     -44.821 -47.426   8.976  1.00  0.00     0.015 A 
ENDBRANCH   3   6
ENDBRANCH   1   2
BRANCH   1   9
HETATM    9  C   UNL     1     -40.656 -50.451  11.568  1.00  0.00     0.076 C 
BRANCH   9  10
HETATM   10  C   UNL     1     -41.271 -51.687  12.171  1.00  0.00     0.010 A 
HETATM   11  C   UNL     1     -40.469 -52.656  12.769  1.00  0.00     0.025 A 
HETATM   12  C   UNL     1     -41.065 -53.810  13.269  1.00  0.00     0.003 A 
HETATM   13  C   UNL     1     -42.442 -53.964  13.166  1.00  0.00     0.017 A 
HETATM   14  C   UNL     1     -43.169 -52.945  12.575  1.00  0.00     0.088 A 
HETATM   15  N   UNL     1     -42.619 -51.812  12.083  1.00  0.00    -0.369 N 
ATOM     16  HN  UNL     1     -43.193 -51.082  11.663  1.00  0.00     0.165 HD
ENDBRANCH   9  10
ENDBRANCH   1   9
TORSDOF 4
ENDMDL
MODEL 9
REMARK VINA RESULT:      -4.7      3.738      6.086
REMARK  4 active torsions:
REMARK  status: ('A' for Active; 'I' for Inactive)
REMARK       I    between atoms: C_2  and  N_3 
REMARK    1  A    between atoms: C_2  and  C_13 
REMARK    2  A    between atoms: N_3  and  C_4 
REMARK    3  A    between atoms: C_4  and  C_5 
REMARK    4  A    between atoms: C_5  and  C_6 
ROOT
HETATM    1  C   UNL     1     -41.804 -49.118  11.883  1.00  0.00     0.128 C 
ENDROOT
BRANCH   1   2
HETATM    2  N   UNL     1     -42.489 -48.698  10.670  1.00  0.00    -0.360 N 
HETATM    3  C   UNL     1     -43.048 -47.450  10.538  1.00  0.00     0.221 C 
HETATM    4  O   UNL     1     -43.082 -46.609  11.427  1.00  0.00    -0.273 OA
HETATM    5  H   UNL     1     -42.468 -49.318   9.871  1.00  0.00     0.162 HD
BRANCH   3   6
HETATM    6  C   UNL     1     -43.635 -47.190   9.192  1.00  0.00     0.078 A 
HETATM    7  C   UNL     1     -44.312 -45.875   8.881  1.00  0.00     0.015 A 
HETATM    8  C   UNL     1     -45.136 -47.122   9.023  1.00  0.00     0.015 A 
ENDBRANCH   3   6
ENDBRANCH   1   2
BRANCH   1   9
HETATM    9  C   UNL     1     -41.288 -50.551  11.771  1.00  0.00     0.076 C 
BRANCH   9  10
HETATM   10  C   UNL     1     -39.805 -50.645  12.016  1.00  0.00     0.010 A 
HETATM   11  C   UNL     1     -39.316 -51.272  13.160  1.00  0.00     0.025 A 
HETATM   12  C   UNL     1     -37.941 -51.294  13.382  1.00  0.00     0.003 A 
HETATM   13  C   UNL     1     -37.093 -50.699  12.456  1.00  0.00     0.017 A 
HETATM   14  C   UNL     1     -37.659 -50.114  11.336  1.00  0.00     0.088 A 
HETATM   15  N   UNL     1     -38.989 -50.079  11.093  1.00  0.00    -0.369 N 
ATOM     16  HN  UNL     1     -39.363 -49.645  10.250  1.00  0.00     0.165 HD
ENDBRANCH   9  10
ENDBRANCH   1   9
TORSDOF 4
ENDMDL
