MODEL 1
REMARK VINA RESULT:      -5.5      0.000      0.000
REMARK  4 active torsions:
REMARK  status: ('A' for Active; 'I' for Inactive)
REMARK    1  A    between atoms: C_2  and  C_3 
REMARK    2  A    between atoms: C_3  and  N_4 
REMARK       I    between atoms: N_4  and  C_5 
REMARK       I    between atoms: C_5  and  N_7 
REMARK    3  A    between atoms: N_7  and  C_8 
REMARK    4  A    between atoms: C_11  and  N_15 
ROOT
HETATM    1  C   UNL     1     -40.728 -49.391  11.386  1.00  0.00     0.051 A 
HETATM    2  C   UNL     1     -39.792 -49.018  12.335  1.00  0.00     0.035 A 
HETATM    3  C   UNL     1     -39.374 -47.684  12.405  1.00  0.00     0.051 A 
HETATM    4  C   UNL     1     -39.935 -46.705  11.580  1.00  0.00     0.103 A 
HETATM    5  N   UNL     1     -40.867 -47.077  10.673  1.00  0.00    -0.350 N 
ATOM      6  HN  UNL     1     -41.299 -46.380  10.067  1.00  0.00     0.166 HD
HETATM    7  C   UNL     1     -41.225 -48.386  10.573  1.00  0.00     0.119 A 
ENDROOT
BRANCH   1   8
HETATM    8  N   UNL     1     -41.112 -50.743  11.303  1.00  0.00    -0.308 N 
HETATM    9  C   UNL     1     -42.041 -51.294  12.157  1.00  0.00     0.321 C 
HETATM   10  N   UNL     1     -42.332 -52.594  11.797  1.00  0.00    -0.339 N 
HETATM   11  O   UNL     1     -42.616 -50.707  13.064  1.00  0.00    -0.247 OA
HETATM   12  H   UNL     1     -41.523 -53.158  11.573  1.00  0.00     0.164 HD
HETATM   13  H   UNL     1     -41.111 -51.164  10.386  1.00  0.00     0.170 HD
BRANCH  10  14
HETATM   14  C   UNL     1     -43.414 -53.260  12.480  1.00  0.00     0.150 C 
BRANCH  14  15
HETATM   15  C   UNL     1     -42.825 -54.186  13.495  1.00  0.00    -0.018 C 
HETATM   16  C   UNL     1     -43.498 -54.694  14.537  1.00  0.00     0.008 C 
ENDBRANCH  14  15
ENDBRANCH  10  14
ENDBRANCH   1   8
BRANCH   4  17
HETATM   17  N   UNL     1     -39.571 -45.376  11.647  1.00  0.00    -0.367 N 
HETATM   18  C   UNL     1     -38.962 -44.721  12.802  1.00  0.00     0.124 C 
HETATM   19  C   UNL     1     -39.928 -43.678  13.362  1.00  0.00     0.020 C 
HETATM   20  C   UNL     1     -40.322 -42.674  12.281  1.00  0.00     0.003 C 
HETATM   21  C   UNL     1     -40.881 -43.390  11.052  1.00  0.00     0.020 C 
HETATM   22  C   UNL     1     -39.926 -44.475  10.544  1.00  0.00     0.124 C 
ENDBRANCH   4  17
TORSDOF 4
ENDMDL
MODEL 2
REMARK VINA RESULT:      -5.5      1.401      1.655
REMARK  4 active torsions:
REMARK  status: ('A' for Active; 'I' for Inactive)
REMARK    1  A    between atoms: C_2  and  C_3 
REMARK    2  A    between atoms: C_3  and  N_4 
REMARK       I    between atoms: N_4  and  C_5 
REMARK       I    between atoms: C_5  and  N_7 
REMARK    3  A    between atoms: N_7  and  C_8 
REMARK    4  A    between atoms: C_11  and  N_15 
ROOT
HETATM    1  C   UNL     1     -40.745 -49.062  10.936  1.00  0.00     0.051 A 
HETATM    2  C   UNL     1     -39.842 -48.286  11.641  1.00  0.00     0.035 A 
HETATM    3  C   UNL     1     -39.954 -46.891  11.602  1.00  0.00     0.051 A 
HETATM    4  C   UNL     1     -41.001 -46.267  10.919  1.00  0.00     0.103 A 
HETATM    5  N   UNL     1     -41.891 -47.037  10.253  1.00  0.00    -0.350 N 
ATOM      6  HN  UNL     1     -42.671 -46.607   9.756  1.00  0.00     0.166 HD
HETATM    7  C   UNL     1     -41.742 -48.390  10.249  1.00  0.00     0.119 A 
ENDROOT
BRANCH   1   8
HETATM    8  N   UNL     1     -40.599 -50.463  10.955  1.00  0.00    -0.308 N 
HETATM    9  C   UNL     1     -41.123 -51.240  11.964  1.00  0.00     0.321 C 
HETATM   10  N   UNL     1     -40.951 -52.582  11.693  1.00  0.00    -0.339 N 
HETATM   11  O   UNL     1     -41.742 -50.828  12.936  1.00  0.00    -0.247 OA
HETATM   12  H   UNL     1     -40.029 -52.827  11.356  1.00  0.00     0.164 HD
HETATM   13  H   UNL     1     -40.569 -50.932  10.062  1.00  0.00     0.170 HD
BRANCH  10  14
HETATM   14  C   UNL     1     -41.594 -53.537  12.561  1.00  0.00     0.150 C 
BRANCH  14  15
HETATM   15  C   UNL     1     -40.538 -54.214  13.374  1.00  0.00    -0.018 C 
HETATM   16  C   UNL     1     -40.449 -54.144  14.710  1.00  0.00     0.008 C 
ENDBRANCH  14  15
ENDBRANCH  10  14
ENDBRANCH   1   8
BRANCH   4  17
HETATM   17  N   UNL     1     -41.159 -44.897  10.889  1.00  0.00    -0.367 N 
HETATM   18  C   UNL     1     -40.075 -43.919  10.872  1.00  0.00     0.124 C 
HETATM   19  C   UNL     1     -40.099 -43.111  12.168  1.00  0.00     0.020 C 
HETATM   20  C   UNL     1     -41.461 -42.447  12.364  1.00  0.00     0.003 C 
HETATM   21  C   UNL     1     -42.584 -43.482  12.298  1.00  0.00     0.020 C 
HETATM   22  C   UNL     1     -42.505 -44.324  11.020  1.00  0.00     0.124 C 
ENDBRANCH   4  17
TORSDOF 4
ENDMDL
MODEL 3
REMARK VINA RESULT:      -5.4      1.970      7.920
REMARK  4 active torsions:
REMARK  status: ('A' for Active; 'I' for Inactive)
REMARK    1  A    between atoms: C_2  and  C_3 
REMARK    2  A    between atoms: C_3  and  N_4 
REMARK       I    between atoms: N_4  and  C_5 
REMARK       I    between atoms: C_5  and  N_7 
REMARK    3  A    between atoms: N_7  and  C_8 
REMARK    4  A    between atoms: C_11  and  N_15 
ROOT
HETATM    1  C   UNL     1     -40.876 -49.118  11.198  1.00  0.00     0.051 A 
HETATM    2  C   UNL     1     -41.951 -49.585  11.933  1.00  0.00     0.035 A 
HETATM    3  C   UNL     1     -41.875 -50.843  12.543  1.00  0.00     0.051 A 
HETATM    4  C   UNL     1     -40.707 -51.608  12.481  1.00  0.00     0.103 A 
HETATM    5  N   UNL     1     -39.655 -51.131  11.778  1.00  0.00    -0.350 N 
ATOM      6  HN  UNL     1     -38.788 -51.666  11.727  1.00  0.00     0.166 HD
HETATM    7  C   UNL     1     -39.758 -49.933  11.141  1.00  0.00     0.119 A 
ENDROOT
BRANCH   1   8
HETATM    8  N   UNL     1     -40.980 -47.867  10.559  1.00  0.00    -0.308 N 
HETATM    9  C   UNL     1     -40.363 -46.740  11.054  1.00  0.00     0.321 C 
HETATM   10  N   UNL     1     -40.516 -45.675  10.189  1.00  0.00    -0.339 N 
HETATM   11  O   UNL     1     -39.687 -46.682  12.072  1.00  0.00    -0.247 OA
HETATM   12  H   UNL     1     -41.452 -45.563   9.823  1.00  0.00     0.164 HD
HETATM   13  H   UNL     1     -41.062 -47.871   9.553  1.00  0.00     0.170 HD
BRANCH  10  14
HETATM   14  C   UNL     1     -39.785 -44.464  10.469  1.00  0.00     0.150 C 
BRANCH  14  15
HETATM   15  C   UNL     1     -40.732 -43.475  11.069  1.00  0.00    -0.018 C 
HETATM   16  C   UNL     1     -40.400 -42.589  12.019  1.00  0.00     0.008 C 
ENDBRANCH  14  15
ENDBRANCH  10  14
ENDBRANCH   1   8
BRANCH   4  17
HETATM   17  N   UNL     1     -40.587 -52.836  13.099  1.00  0.00    -0.367 N 
HETATM   18  C   UNL     1     -41.446 -53.993  12.859  1.00  0.00     0.124 C 
HETATM   19  C   UNL     1     -42.241 -54.307  14.125  1.00  0.00     0.020 C 
HETATM   20  C   UNL     1     -41.303 -54.530  15.309  1.00  0.00     0.003 C 
HETATM   21  C   UNL     1     -40.362 -53.339  15.489  1.00  0.00     0.020 C 
HETATM   22  C   UNL     1     -39.620 -53.002  14.191  1.00  0.00     0.124 C 
ENDBRANCH   4  17
TORSDOF 4
ENDMDL
MODEL 4
REMARK VINA RESULT:      -5.4      3.474      5.621
REMARK  4 active torsions:
REMARK  status: ('A' for Active; 'I' for Inactive)
REMARK    1  A    between atoms: C_2  and  C_3 
REMARK    2  A    between atoms: C_3  and  N_4 
REMARK       I    between atoms: N_4  and  C_5 
REMARK       I    between atoms: C_5  and  N_7 
REMARK    3  A    between atoms: N_7  and  C_8 
REMARK    4  A    between atoms: C_11  and  N_15 
ROOT
HETATM    1  C   UNL     1     -41.226 -48.457  10.691  1.00  0.00     0.051 A 
HETATM    2  C   UNL     1     -40.450 -47.390  11.108  1.00  0.00     0.035 A 
HETATM    3  C   UNL     1     -39.451 -47.597  12.067  1.00  0.00     0.051 A 
HETATM    4  C   UNL     1     -39.175 -48.874  12.562  1.00  0.00     0.103 A 
HETATM    5  N   UNL     1     -39.925 -49.913  12.129  1.00  0.00    -0.350 N 
ATOM      6  HN  UNL     1     -39.736 -50.857  12.468  1.00  0.00     0.166 HD
HETATM    7  C   UNL     1     -40.932 -49.694  11.240  1.00  0.00     0.119 A 
ENDROOT
BRANCH   1   8
HETATM    8  N   UNL     1     -42.251 -48.228   9.754  1.00  0.00    -0.308 N 
HETATM    9  C   UNL     1     -43.422 -47.586  10.092  1.00  0.00     0.321 C 
HETATM   10  N   UNL     1     -44.209 -47.377   8.978  1.00  0.00    -0.339 N 
HETATM   11  O   UNL     1     -43.712 -47.165  11.204  1.00  0.00    -0.247 OA
HETATM   12  H   UNL     1     -44.285 -48.176   8.363  1.00  0.00     0.164 HD
HETATM   13  H   UNL     1     -41.970 -48.072   8.797  1.00  0.00     0.170 HD
BRANCH  10  14
HETATM   14  C   UNL     1     -45.391 -46.564   9.126  1.00  0.00     0.150 C 
BRANCH  14  15
HETATM   15  C   UNL     1     -46.587 -47.450   8.992  1.00  0.00    -0.018 C 
HETATM   16  C   UNL     1     -46.550 -48.707   8.527  1.00  0.00     0.008 C 
ENDBRANCH  14  15
ENDBRANCH  10  14
ENDBRANCH   1   8
BRANCH   4  17
HETATM   17  N   UNL     1     -38.175 -49.117  13.482  1.00  0.00    -0.367 N 
HETATM   18  C   UNL     1     -37.703 -50.437  13.890  1.00  0.00     0.124 C 
HETATM   19  C   UNL     1     -38.040 -50.664  15.363  1.00  0.00     0.020 C 
HETATM   20  C   UNL     1     -37.447 -49.554  16.229  1.00  0.00     0.003 C 
HETATM   21  C   UNL     1     -37.893 -48.179  15.730  1.00  0.00     0.020 C 
HETATM   22  C   UNL     1     -37.603 -47.996  14.237  1.00  0.00     0.124 C 
ENDBRANCH   4  17
TORSDOF 4
ENDMDL
MODEL 5
REMARK VINA RESULT:      -5.4      1.874      8.182
REMARK  4 active torsions:
REMARK  status: ('A' for Active; 'I' for Inactive)
REMARK    1  A    between atoms: C_2  and  C_3 
REMARK    2  A    between atoms: C_3  and  N_4 
REMARK       I    between atoms: N_4  and  C_5 
REMARK       I    between atoms: C_5  and  N_7 
REMARK    3  A    between atoms: N_7  and  C_8 
REMARK    4  A    between atoms: C_11  and  N_15 
ROOT
HETATM    1  C   UNL     1     -40.893 -49.464  12.166  1.00  0.00     0.051 A 
HETATM    2  C   UNL     1     -41.949 -49.556  13.056  1.00  0.00     0.035 A 
HETATM    3  C   UNL     1     -42.622 -50.776  13.203  1.00  0.00     0.051 A 
HETATM    4  C   UNL     1     -42.204 -51.920  12.520  1.00  0.00     0.103 A 
HETATM    5  N   UNL     1     -41.155 -51.823  11.671  1.00  0.00    -0.350 N 
ATOM      6  HN  UNL     1     -40.824 -52.646  11.169  1.00  0.00     0.166 HD
HETATM    7  C   UNL     1     -40.544 -50.620  11.490  1.00  0.00     0.119 A 
ENDROOT
BRANCH   1   8
HETATM    8  N   UNL     1     -40.250 -48.222  12.001  1.00  0.00    -0.308 N 
HETATM    9  C   UNL     1     -40.675 -47.295  11.076  1.00  0.00     0.321 C 
HETATM   10  N   UNL     1     -39.960 -46.120  11.191  1.00  0.00    -0.339 N 
HETATM   11  O   UNL     1     -41.615 -47.433  10.304  1.00  0.00    -0.247 OA
HETATM   12  H   UNL     1     -38.962 -46.244  11.291  1.00  0.00     0.164 HD
HETATM   13  H   UNL     1     -39.836 -47.807  12.823  1.00  0.00     0.170 HD
BRANCH  10  14
HETATM   14  C   UNL     1     -40.393 -44.985  10.414  1.00  0.00     0.150 C 
BRANCH  14  15
HETATM   15  C   UNL     1     -39.181 -44.311   9.856  1.00  0.00    -0.018 C 
HETATM   16  C   UNL     1     -38.532 -44.713   8.754  1.00  0.00     0.008 C 
ENDBRANCH  14  15
ENDBRANCH  10  14
ENDBRANCH   1   8
BRANCH   4  17
HETATM   17  N   UNL     1     -42.823 -53.145  12.669  1.00  0.00    -0.367 N 
HETATM   18  C   UNL     1     -44.222 -53.429  12.363  1.00  0.00     0.124 C 
HETATM   19  C   UNL     1     -44.964 -53.773  13.654  1.00  0.00     0.020 C 
HETATM   20  C   UNL     1     -44.288 -54.942  14.368  1.00  0.00     0.003 C 
HETATM   21  C   UNL     1     -42.806 -54.651  14.603  1.00  0.00     0.020 C 
HETATM   22  C   UNL     1     -42.095 -54.247  13.308  1.00  0.00     0.124 C 
ENDBRANCH   4  17
TORSDOF 4
ENDMDL
MODEL 6
REMARK VINA RESULT:      -5.4      3.341      7.591
REMARK  4 active torsions:
REMARK  status: ('A' for Active; 'I' for Inactive)
REMARK    1  A    between atoms: C_2  and  C_3 
REMARK    2  A    between atoms: C_3  and  N_4 
REMARK       I    between atoms: N_4  and  C_5 
REMARK       I    between atoms: C_5  and  N_7 
REMARK    3  A    between atoms: N_7  and  C_8 
REMARK    4  A    between atoms: C_11  and  N_15 
ROOT
HETATM    1  C   UNL     1     -40.165 -50.826  11.855  1.00  0.00     0.051 A 
HETATM    2  C   UNL     1     -39.027 -50.504  12.574  1.00  0.00     0.035 A 
HETATM    3  C   UNL     1     -38.647 -51.305  13.658  1.00  0.00     0.051 A 
HETATM    4  C   UNL     1     -39.356 -52.464  13.986  1.00  0.00     0.103 A 
HETATM    5  N   UNL     1     -40.453 -52.780  13.261  1.00  0.00    -0.350 N 
ATOM      6  HN  UNL     1     -40.982 -53.627  13.473  1.00  0.00     0.166 HD
HETATM    7  C   UNL     1     -40.848 -51.965  12.245  1.00  0.00     0.119 A 
ENDROOT
BRANCH   1   8
HETATM    8  N   UNL     1     -40.555 -49.991  10.791  1.00  0.00    -0.308 N 
HETATM    9  C   UNL     1     -41.570 -49.068  10.919  1.00  0.00     0.321 C 
HETATM   10  N   UNL     1     -41.680 -48.295   9.781  1.00  0.00    -0.339 N 
HETATM   11  O   UNL     1     -42.240 -48.876  11.925  1.00  0.00    -0.247 OA
HETATM   12  H   UNL     1     -41.639 -48.815   8.915  1.00  0.00     0.164 HD
HETATM   13  H   UNL     1     -39.835 -49.707  10.142  1.00  0.00     0.170 HD
BRANCH  10  14
HETATM   14  C   UNL     1     -42.577 -47.166   9.813  1.00  0.00     0.150 C 
BRANCH  14  15
HETATM   15  C   UNL     1     -43.670 -47.410   8.823  1.00  0.00    -0.018 C 
HETATM   16  C   UNL     1     -43.479 -47.902   7.591  1.00  0.00     0.008 C 
ENDBRANCH  14  15
ENDBRANCH  10  14
ENDBRANCH   1   8
BRANCH   4  17
HETATM   17  N   UNL     1     -38.989 -53.293  15.026  1.00  0.00    -0.367 N 
HETATM   18  C   UNL     1     -38.953 -54.752  14.973  1.00  0.00     0.124 C 
HETATM   19  C   UNL     1     -40.006 -55.320  15.924  1.00  0.00     0.020 C 
HETATM   20  C   UNL     1     -39.790 -54.795  17.342  1.00  0.00     0.003 C 
HETATM   21  C   UNL     1     -39.751 -53.268  17.356  1.00  0.00     0.020 C 
HETATM   22  C   UNL     1     -38.734 -52.717  16.351  1.00  0.00     0.124 C 
ENDBRANCH   4  17
TORSDOF 4
ENDMDL
MODEL 7
REMARK VINA RESULT:      -4.8      1.888      8.069
REMARK  4 active torsions:
REMARK  status: ('A' for Active; 'I' for Inactive)
REMARK    1  A    between atoms: C_2  and  C_3 
REMARK    2  A    between atoms: C_3  and  N_4 
REMARK       I    between atoms: N_4  and  C_5 
REMARK       I    between atoms: C_5  and  N_7 
REMARK    3  A    between atoms: N_7  and  C_8 
REMARK    4  A    between atoms: C_11  and  N_15 
ROOT
HETATM    1  C   UNL     1     -41.119 -49.470  12.389  1.00  0.00     0.051 A 
HETATM    2  C   UNL     1     -41.235 -50.723  11.812  1.00  0.00     0.035 A 
HETATM    3  C   UNL     1     -42.022 -51.699  12.435  1.00  0.00     0.051 A 
HETATM    4  C   UNL     1     -42.748 -51.412  13.594  1.00  0.00     0.103 A 
HETATM    5  N   UNL     1     -42.645 -50.177  14.136  1.00  0.00    -0.350 N 
ATOM      6  HN  UNL     1     -43.173 -49.940  14.975  1.00  0.00     0.166 HD
HETATM    7  C   UNL     1     -41.833 -49.252  13.555  1.00  0.00     0.119 A 
ENDROOT
BRANCH   1   8
HETATM    8  N   UNL     1     -40.296 -48.510  11.770  1.00  0.00    -0.308 N 
HETATM    9  C   UNL     1     -40.814 -47.420  11.107  1.00  0.00     0.321 C 
HETATM   10  N   UNL     1     -39.808 -46.569  10.695  1.00  0.00    -0.339 N 
HETATM   11  O   UNL     1     -42.003 -47.166  10.966  1.00  0.00    -0.247 OA
HETATM   12  H   UNL     1     -39.016 -47.032  10.269  1.00  0.00     0.164 HD
HETATM   13  H   UNL     1     -39.400 -48.330  12.199  1.00  0.00     0.170 HD
BRANCH  10  14
HETATM   14  C   UNL     1     -40.185 -45.294  10.138  1.00  0.00     0.150 C 
BRANCH  14  15
HETATM   15  C   UNL     1     -39.919 -44.239  11.163  1.00  0.00    -0.018 C 
HETATM   16  C   UNL     1     -40.650 -43.125  11.311  1.00  0.00     0.008 C 
ENDBRANCH  14  15
ENDBRANCH  10  14
ENDBRANCH   1   8
BRANCH   4  17
HETATM   17  N   UNL     1     -43.559 -52.341  14.214  1.00  0.00    -0.367 N 
HETATM   18  C   UNL     1     -43.105 -53.386  15.128  1.00  0.00     0.124 C 
HETATM   19  C   UNL     1     -43.345 -54.755  14.493  1.00  0.00     0.020 C 
HETATM   20  C   UNL     1     -44.816 -54.925  14.120  1.00  0.00     0.003 C 
HETATM   21  C   UNL     1     -45.287 -53.775  13.229  1.00  0.00     0.020 C 
HETATM   22  C   UNL     1     -44.980 -52.411  13.855  1.00  0.00     0.124 C 
ENDBRANCH   4  17
TORSDOF 4
ENDMDL
MODEL 8
REMARK VINA RESULT:      -4.8      1.616      2.122
REMARK  4 active torsions:
REMARK  status: ('A' for Active; 'I' for Inactive)
REMARK    1  A    between atoms: C_2  and  C_3 
REMARK    2  A    between atoms: C_3  and  N_4 
REMARK       I    between atoms: N_4  and  C_5 
REMARK       I    between atoms: C_5  and  N_7 
REMARK    3  A    between atoms: N_7  and  C_8 
REMARK    4  A    between atoms: C_11  and  N_15 
ROOT
HETATM    1  C   UNL     1     -41.985 -49.956  12.160  1.00  0.00     0.051 A 
HETATM    2  C   UNL     1     -40.663 -49.549  12.107  1.00  0.00     0.035 A 
HETATM    3  C   UNL     1     -40.350 -48.195  12.280  1.00  0.00     0.051 A 
HETATM    4  C   UNL     1     -41.341 -47.255  12.573  1.00  0.00     0.103 A 
HETATM    5  N   UNL     1     -42.627 -47.668  12.646  1.00  0.00    -0.350 N 
ATOM      6  HN  UNL     1     -43.367 -47.003  12.869  1.00  0.00     0.166 HD
HETATM    7  C   UNL     1     -42.928 -48.976  12.419  1.00  0.00     0.119 A 
ENDROOT
BRANCH   1   8
HETATM    8  N   UNL     1     -42.287 -51.314  11.948  1.00  0.00    -0.308 N 
HETATM    9  C   UNL     1     -42.482 -52.192  12.991  1.00  0.00     0.321 C 
HETATM   10  N   UNL     1     -42.883 -53.428  12.527  1.00  0.00    -0.339 N 
HETATM   11  O   UNL     1     -42.406 -51.918  14.181  1.00  0.00    -0.247 OA
HETATM   12  H   UNL     1     -42.358 -53.768  11.732  1.00  0.00     0.164 HD
HETATM   13  H   UNL     1     -42.830 -51.540  11.127  1.00  0.00     0.170 HD
BRANCH  10  14
HETATM   14  C   UNL     1     -43.297 -54.414  13.495  1.00  0.00     0.150 C 
BRANCH  14  15
HETATM   15  C   UNL     1     -44.784 -54.339  13.630  1.00  0.00    -0.018 C 
HETATM   16  C   UNL     1     -45.582 -55.401  13.812  1.00  0.00     0.008 C 
ENDBRANCH  14  15
ENDBRANCH  10  14
ENDBRANCH   1   8
BRANCH   4  17
HETATM   17  N   UNL     1     -41.062 -45.920  12.783  1.00  0.00    -0.367 N 
HETATM   18  C   UNL     1     -41.144 -44.869  11.772  1.00  0.00     0.124 C 
HETATM   19  C   UNL     1     -39.745 -44.315  11.503  1.00  0.00     0.020 C 
HETATM   20  C   UNL     1     -39.106 -43.813  12.796  1.00  0.00     0.003 C 
HETATM   21  C   UNL     1     -39.106 -44.908  13.862  1.00  0.00     0.020 C 
HETATM   22  C   UNL     1     -40.506 -45.494  14.073  1.00  0.00     0.124 C 
ENDBRANCH   4  17
TORSDOF 4
ENDMDL
MODEL 9
REMARK VINA RESULT:      -4.6     14.375     15.502
REMARK  4 active torsions:
REMARK  status: ('A' for Active; 'I' for Inactive)
REMARK    1  A    between atoms: C_2  and  C_3 
REMARK    2  A    between atoms: C_3  and  N_4 
REMARK       I    between atoms: N_4  and  C_5 
REMARK       I    between atoms: C_5  and  N_7 
REMARK    3  A    between atoms: N_7  and  C_8 
REMARK    4  A    between atoms: C_11  and  N_15 
ROOT
HETATM    1  C   UNL     1     -47.825 -49.370  -2.482  1.00  0.00     0.051 A 
HETATM    2  C   UNL     1     -47.679 -48.338  -1.572  1.00  0.00     0.035 A 
HETATM    3  C   UNL     1     -46.503 -47.577  -1.576  1.00  0.00     0.051 A 
HETATM    4  C   UNL     1     -45.502 -47.796  -2.525  1.00  0.00     0.103 A 
HETATM    5  N   UNL     1     -45.667 -48.793  -3.424  1.00  0.00    -0.350 N 
ATOM      6  HN  UNL     1     -44.955 -48.965  -4.134  1.00  0.00     0.166 HD
HETATM    7  C   UNL     1     -46.787 -49.564  -3.377  1.00  0.00     0.119 A 
ENDROOT
BRANCH   1   8
HETATM    8  N   UNL     1     -48.997 -50.150  -2.443  1.00  0.00    -0.308 N 
HETATM    9  C   UNL     1     -49.150 -51.196  -1.560  1.00  0.00     0.321 C 
HETATM   10  N   UNL     1     -50.424 -51.722  -1.636  1.00  0.00    -0.339 N 
HETATM   11  O   UNL     1     -48.320 -51.572  -0.744  1.00  0.00    -0.247 OA
HETATM   12  H   UNL     1     -50.765 -51.862  -2.578  1.00  0.00     0.164 HD
HETATM   13  H   UNL     1     -49.864 -49.686  -2.669  1.00  0.00     0.170 HD
BRANCH  10  14
HETATM   14  C   UNL     1     -50.809 -52.710  -0.658  1.00  0.00     0.150 C 
BRANCH  14  15
HETATM   15  C   UNL     1     -52.265 -52.999  -0.834  1.00  0.00    -0.018 C 
HETATM   16  C   UNL     1     -52.820 -54.210  -0.682  1.00  0.00     0.008 C 
ENDBRANCH  14  15
ENDBRANCH  10  14
ENDBRANCH   1   8
BRANCH   4  17
HETATM   17  N   UNL     1     -44.347 -47.042  -2.578  1.00  0.00    -0.367 N 
HETATM   18  C   UNL     1     -43.273 -47.204  -3.554  1.00  0.00     0.124 C 
HETATM   19  C   UNL     1     -42.006 -47.674  -2.842  1.00  0.00     0.020 C 
HETATM   20  C   UNL     1     -41.622 -46.701  -1.729  1.00  0.00     0.003 C 
HETATM   21  C   UNL     1     -42.790 -46.487  -0.767  1.00  0.00     0.020 C 
HETATM   22  C   UNL     1     -44.067 -46.078  -1.507  1.00  0.00     0.124 C 
ENDBRANCH   4  17
TORSDOF 4
ENDMDL
