MODEL 1
REMARK VINA RESULT:      -5.6      0.000      0.000
REMARK  4 active torsions:
REMARK  status: ('A' for Active; 'I' for Inactive)
REMARK    1  A    between atoms: C_2  and  N_3 
REMARK    2  A    between atoms: N_3  and  C_4 
REMARK    3  A    between atoms: N_3  and  C_11 
REMARK    4  A    between atoms: C_4  and  C_5 
ROOT
HETATM    1  N   UNL     1     -42.155 -46.923  10.761  1.00  0.00    -0.364 N 
ENDROOT
BRANCH   1   2
HETATM    2  C   UNL     1     -41.703 -45.558  10.422  1.00  0.00     0.120 C 
HETATM    3  C   UNL     1     -41.967 -44.536  11.520  1.00  0.00     0.026 C 
ENDBRANCH   1   2
BRANCH   1   4
HETATM    4  C   UNL     1     -43.558 -47.310  10.571  1.00  0.00     0.158 C 
BRANCH   4   5
HETATM    5  C   UNL     1     -44.234 -46.643   9.351  1.00  0.00     0.167 C 
HETATM    6  C   UNL     1     -45.692 -47.064   9.060  1.00  0.00     0.303 C 
HETATM    7  N   UNL     1     -45.865 -48.360   8.375  1.00  0.00     0.087 N 
HETATM    8  C   UNL     1     -44.945 -48.476   7.237  1.00  0.00     0.295 C 
HETATM    9  H   UNL     1     -46.821 -48.400   8.015  1.00  0.00     0.316 HD
HETATM   10  C   UNL     1     -43.504 -48.095   7.586  1.00  0.00     0.198 C 
HETATM   11  O   UNL     1     -43.420 -46.785   8.163  1.00  0.00    -0.381 OA
ENDBRANCH   4   5
ENDBRANCH   1   4
BRANCH   1  12
HETATM   12  C   UNL     1     -41.182 -47.902  10.968  1.00  0.00     0.117 A 
HETATM   13  C   UNL     1     -40.114 -47.692  11.836  1.00  0.00     0.051 A 
HETATM   14  C   UNL     1     -39.146 -48.673  12.051  1.00  0.00     0.022 A 
HETATM   15  C   UNL     1     -39.272 -49.861  11.374  1.00  0.00     0.107 A 
HETATM   16  N   UNL     1     -40.279 -50.076  10.516  1.00  0.00    -0.310 N 
HETATM   17  N   UNL     1     -41.228 -49.084  10.313  1.00  0.00    -0.286 N 
ATOM     18  HN  UNL     1     -40.347 -50.962  10.017  1.00  0.00     0.186 HD
ATOM     19  HN  UNL     1     -41.983 -49.252   9.648  1.00  0.00     0.188 HD
ENDBRANCH   1  12
TORSDOF 4
ENDMDL
MODEL 2
REMARK VINA RESULT:      -5.6      5.498      6.660
REMARK  4 active torsions:
REMARK  status: ('A' for Active; 'I' for Inactive)
REMARK    1  A    between atoms: C_2  and  N_3 
REMARK    2  A    between atoms: N_3  and  C_4 
REMARK    3  A    between atoms: N_3  and  C_11 
REMARK    4  A    between atoms: C_4  and  C_5 
ROOT
HETATM    1  N   UNL     1     -42.251 -52.444  12.759  1.00  0.00    -0.364 N 
ENDROOT
BRANCH   1   2
HETATM    2  C   UNL     1     -41.297 -53.572  12.810  1.00  0.00     0.120 C 
HETATM    3  C   UNL     1     -41.214 -54.242  14.174  1.00  0.00     0.026 C 
ENDBRANCH   1   2
BRANCH   1   4
HETATM    4  C   UNL     1     -43.460 -52.456  13.591  1.00  0.00     0.158 C 
BRANCH   4   5
HETATM    5  C   UNL     1     -44.726 -52.947  12.852  1.00  0.00     0.167 C 
HETATM    6  C   UNL     1     -46.080 -52.455  13.410  1.00  0.00     0.303 C 
HETATM    7  N   UNL     1     -46.577 -53.157  14.610  1.00  0.00     0.087 N 
HETATM    8  C   UNL     1     -46.463 -54.612  14.448  1.00  0.00     0.295 C 
HETATM    9  H   UNL     1     -47.567 -52.927  14.720  1.00  0.00     0.316 HD
HETATM   10  C   UNL     1     -45.088 -55.055  13.939  1.00  0.00     0.198 C 
HETATM   11  O   UNL     1     -44.726 -54.388  12.723  1.00  0.00    -0.381 OA
ENDBRANCH   4   5
ENDBRANCH   1   4
BRANCH   1  12
HETATM   12  C   UNL     1     -41.831 -51.259  12.153  1.00  0.00     0.117 A 
HETATM   13  C   UNL     1     -42.360 -50.025  12.524  1.00  0.00     0.051 A 
HETATM   14  C   UNL     1     -41.934 -48.840  11.925  1.00  0.00     0.022 A 
HETATM   15  C   UNL     1     -40.975 -48.922  10.946  1.00  0.00     0.107 A 
HETATM   16  N   UNL     1     -40.469 -50.100  10.557  1.00  0.00    -0.310 N 
HETATM   17  N   UNL     1     -40.910 -51.268  11.161  1.00  0.00    -0.286 N 
ATOM     18  HN  UNL     1     -39.764 -50.138   9.821  1.00  0.00     0.186 HD
ATOM     19  HN  UNL     1     -40.529 -52.161  10.849  1.00  0.00     0.188 HD
ENDBRANCH   1  12
TORSDOF 4
ENDMDL
MODEL 3
REMARK VINA RESULT:      -5.4      2.004      4.524
REMARK  4 active torsions:
REMARK  status: ('A' for Active; 'I' for Inactive)
REMARK    1  A    between atoms: C_2  and  N_3 
REMARK    2  A    between atoms: N_3  and  C_4 
REMARK    3  A    between atoms: N_3  and  C_11 
REMARK    4  A    between atoms: C_4  and  C_5 
ROOT
HETATM    1  N   UNL     1     -42.620 -47.135  10.121  1.00  0.00    -0.364 N 
ENDROOT
BRANCH   1   2
HETATM    2  C   UNL     1     -43.826 -47.286   9.280  1.00  0.00     0.120 C 
HETATM    3  C   UNL     1     -43.526 -47.722   7.852  1.00  0.00     0.026 C 
ENDBRANCH   1   2
BRANCH   1   4
HETATM    4  C   UNL     1     -42.238 -45.817  10.641  1.00  0.00     0.158 C 
BRANCH   4   5
HETATM    5  C   UNL     1     -40.714 -45.558  10.639  1.00  0.00     0.167 C 
HETATM    6  C   UNL     1     -39.969 -45.835  11.965  1.00  0.00     0.303 C 
HETATM    7  N   UNL     1     -40.088 -44.791  13.002  1.00  0.00     0.087 N 
HETATM    8  C   UNL     1     -39.862 -43.458  12.428  1.00  0.00     0.295 C 
HETATM    9  H   UNL     1     -39.363 -44.961  13.702  1.00  0.00     0.316 HD
HETATM   10  C   UNL     1     -40.658 -43.213  11.143  1.00  0.00     0.198 C 
HETATM   11  O   UNL     1     -40.413 -44.227  10.159  1.00  0.00    -0.381 OA
ENDBRANCH   4   5
ENDBRANCH   1   4
BRANCH   1  12
HETATM   12  C   UNL     1     -42.043 -48.290  10.651  1.00  0.00     0.117 A 
HETATM   13  C   UNL     1     -42.446 -48.806  11.880  1.00  0.00     0.051 A 
HETATM   14  C   UNL     1     -41.876 -49.965  12.405  1.00  0.00     0.022 A 
HETATM   15  C   UNL     1     -40.894 -50.588  11.675  1.00  0.00     0.107 A 
HETATM   16  N   UNL     1     -40.474 -50.096  10.501  1.00  0.00    -0.310 N 
HETATM   17  N   UNL     1     -41.050 -48.939   9.999  1.00  0.00    -0.286 N 
ATOM     18  HN  UNL     1     -39.737 -50.570   9.981  1.00  0.00     0.186 HD
ATOM     19  HN  UNL     1     -40.715 -48.564   9.111  1.00  0.00     0.188 HD
ENDBRANCH   1  12
TORSDOF 4
ENDMDL
MODEL 4
REMARK VINA RESULT:      -5.4      3.439      5.846
REMARK  4 active torsions:
REMARK  status: ('A' for Active; 'I' for Inactive)
REMARK    1  A    between atoms: C_2  and  N_3 
REMARK    2  A    between atoms: N_3  and  C_4 
REMARK    3  A    between atoms: N_3  and  C_11 
REMARK    4  A    between atoms: C_4  and  C_5 
ROOT
HETATM    1  N   UNL     1     -40.217 -49.693  11.851  1.00  0.00    -0.364 N 
ENDROOT
BRANCH   1   2
HETATM    2  C   UNL     1     -38.868 -49.091  11.820  1.00  0.00     0.120 C 
HETATM    3  C   UNL     1     -37.755 -50.095  11.556  1.00  0.00     0.026 C 
ENDBRANCH   1   2
BRANCH   1   4
HETATM    4  C   UNL     1     -40.499 -50.839  12.724  1.00  0.00     0.158 C 
BRANCH   4   5
HETATM    5  C   UNL     1     -41.235 -52.000  12.018  1.00  0.00     0.167 C 
HETATM    6  C   UNL     1     -42.684 -52.275  12.479  1.00  0.00     0.303 C 
HETATM    7  N   UNL     1     -42.828 -53.027  13.741  1.00  0.00     0.087 N 
HETATM    8  C   UNL     1     -41.939 -54.194  13.758  1.00  0.00     0.295 C 
HETATM    9  H   UNL     1     -43.792 -53.362  13.798  1.00  0.00     0.316 HD
HETATM   10  C   UNL     1     -40.503 -53.864  13.340  1.00  0.00     0.198 C 
HETATM   11  O   UNL     1     -40.451 -53.216  12.062  1.00  0.00    -0.381 OA
ENDBRANCH   4   5
ENDBRANCH   1   4
BRANCH   1  12
HETATM   12  C   UNL     1     -41.268 -48.974  11.281  1.00  0.00     0.117 A 
HETATM   13  C   UNL     1     -42.305 -48.464  12.058  1.00  0.00     0.051 A 
HETATM   14  C   UNL     1     -43.350 -47.736  11.489  1.00  0.00     0.022 A 
HETATM   15  C   UNL     1     -43.334 -47.539  10.130  1.00  0.00     0.107 A 
HETATM   16  N   UNL     1     -42.359 -48.041   9.361  1.00  0.00    -0.310 N 
HETATM   17  N   UNL     1     -41.331 -48.767   9.945  1.00  0.00    -0.286 N 
ATOM     18  HN  UNL     1     -42.372 -47.891   8.352  1.00  0.00     0.186 HD
ATOM     19  HN  UNL     1     -40.600 -49.156   9.350  1.00  0.00     0.188 HD
ENDBRANCH   1  12
TORSDOF 4
ENDMDL
MODEL 5
REMARK VINA RESULT:      -5.4      2.543      4.418
REMARK  4 active torsions:
REMARK  status: ('A' for Active; 'I' for Inactive)
REMARK    1  A    between atoms: C_2  and  N_3 
REMARK    2  A    between atoms: N_3  and  C_4 
REMARK    3  A    between atoms: N_3  and  C_11 
REMARK    4  A    between atoms: C_4  and  C_5 
ROOT
HETATM    1  N   UNL     1     -39.529 -49.474  12.593  1.00  0.00    -0.364 N 
ENDROOT
BRANCH   1   2
HETATM    2  C   UNL     1     -38.067 -49.281  12.503  1.00  0.00     0.120 C 
HETATM    3  C   UNL     1     -37.446 -49.882  11.250  1.00  0.00     0.026 C 
ENDBRANCH   1   2
BRANCH   1   4
HETATM    4  C   UNL     1     -40.439 -48.330  12.469  1.00  0.00     0.158 C 
BRANCH   4   5
HETATM    5  C   UNL     1     -40.489 -47.717  11.051  1.00  0.00     0.167 C 
HETATM    6  C   UNL     1     -40.583 -46.176  10.972  1.00  0.00     0.303 C 
HETATM    7  N   UNL     1     -41.921 -45.598  11.207  1.00  0.00     0.087 N 
HETATM    8  C   UNL     1     -42.944 -46.323  10.444  1.00  0.00     0.295 C 
HETATM    9  H   UNL     1     -41.906 -44.630  10.878  1.00  0.00     0.316 HD
HETATM   10  C   UNL     1     -42.840 -47.844  10.591  1.00  0.00     0.198 C 
HETATM   11  O   UNL     1     -41.533 -48.328  10.257  1.00  0.00    -0.381 OA
ENDBRANCH   4   5
ENDBRANCH   1   4
BRANCH   1  12
HETATM   12  C   UNL     1     -40.025 -50.775  12.491  1.00  0.00     0.117 A 
HETATM   13  C   UNL     1     -39.790 -51.722  13.485  1.00  0.00     0.051 A 
HETATM   14  C   UNL     1     -40.293 -53.019  13.388  1.00  0.00     0.022 A 
HETATM   15  C   UNL     1     -41.027 -53.344  12.274  1.00  0.00     0.107 A 
HETATM   16  N   UNL     1     -41.245 -52.456  11.295  1.00  0.00    -0.310 N 
HETATM   17  N   UNL     1     -40.731 -51.173  11.408  1.00  0.00    -0.286 N 
ATOM     18  HN  UNL     1     -41.785 -52.722  10.472  1.00  0.00     0.186 HD
ATOM     19  HN  UNL     1     -40.891 -50.508  10.651  1.00  0.00     0.188 HD
ENDBRANCH   1  12
TORSDOF 4
ENDMDL
MODEL 6
REMARK VINA RESULT:      -5.3      5.162      6.568
REMARK  4 active torsions:
REMARK  status: ('A' for Active; 'I' for Inactive)
REMARK    1  A    between atoms: C_2  and  N_3 
REMARK    2  A    between atoms: N_3  and  C_4 
REMARK    3  A    between atoms: N_3  and  C_11 
REMARK    4  A    between atoms: C_4  and  C_5 
ROOT
HETATM    1  N   UNL     1     -41.905 -52.488  12.837  1.00  0.00    -0.364 N 
ENDROOT
BRANCH   1   2
HETATM    2  C   UNL     1     -40.953 -52.926  13.879  1.00  0.00     0.120 C 
HETATM    3  C   UNL     1     -40.178 -54.184  13.511  1.00  0.00     0.026 C 
ENDBRANCH   1   2
BRANCH   1   4
HETATM    4  C   UNL     1     -43.221 -53.126  12.719  1.00  0.00     0.158 C 
BRANCH   4   5
HETATM    5  C   UNL     1     -43.902 -53.420  14.076  1.00  0.00     0.167 C 
HETATM    6  C   UNL     1     -45.098 -54.397  14.047  1.00  0.00     0.303 C 
HETATM    7  N   UNL     1     -46.383 -53.832  13.589  1.00  0.00     0.087 N 
HETATM    8  C   UNL     1     -46.648 -52.544  14.243  1.00  0.00     0.295 C 
HETATM    9  H   UNL     1     -47.125 -54.482  13.857  1.00  0.00     0.316 HD
HETATM   10  C   UNL     1     -45.450 -51.591  14.205  1.00  0.00     0.198 C 
HETATM   11  O   UNL     1     -44.268 -52.193  14.750  1.00  0.00    -0.381 OA
ENDBRANCH   4   5
ENDBRANCH   1   4
BRANCH   1  12
HETATM   12  C   UNL     1     -41.653 -51.280  12.186  1.00  0.00     0.117 A 
HETATM   13  C   UNL     1     -42.313 -50.108  12.548  1.00  0.00     0.051 A 
HETATM   14  C   UNL     1     -42.053 -48.898  11.904  1.00  0.00     0.022 A 
HETATM   15  C   UNL     1     -41.127 -48.893  10.891  1.00  0.00     0.107 A 
HETATM   16  N   UNL     1     -40.498 -50.013  10.511  1.00  0.00    -0.310 N 
HETATM   17  N   UNL     1     -40.774 -51.207  11.160  1.00  0.00    -0.286 N 
ATOM     18  HN  UNL     1     -39.821 -49.988   9.749  1.00  0.00     0.186 HD
ATOM     19  HN  UNL     1     -40.300 -52.057  10.855  1.00  0.00     0.188 HD
ENDBRANCH   1  12
TORSDOF 4
ENDMDL
MODEL 7
REMARK VINA RESULT:      -5.3      4.943      7.552
REMARK  4 active torsions:
REMARK  status: ('A' for Active; 'I' for Inactive)
REMARK    1  A    between atoms: C_2  and  N_3 
REMARK    2  A    between atoms: N_3  and  C_4 
REMARK    3  A    between atoms: N_3  and  C_11 
REMARK    4  A    between atoms: C_4  and  C_5 
ROOT
HETATM    1  N   UNL     1     -41.369 -53.133  13.386  1.00  0.00    -0.364 N 
ENDROOT
BRANCH   1   2
HETATM    2  C   UNL     1     -40.664 -53.951  14.395  1.00  0.00     0.120 C 
HETATM    3  C   UNL     1     -39.307 -54.462  13.930  1.00  0.00     0.026 C 
ENDBRANCH   1   2
BRANCH   1   4
HETATM    4  C   UNL     1     -40.614 -52.415  12.353  1.00  0.00     0.158 C 
BRANCH   4   5
HETATM    5  C   UNL     1     -40.312 -50.940  12.707  1.00  0.00     0.167 C 
HETATM    6  C   UNL     1     -40.116 -49.975  11.516  1.00  0.00     0.303 C 
HETATM    7  N   UNL     1     -38.798 -50.027  10.853  1.00  0.00     0.087 N 
HETATM    8  C   UNL     1     -37.715 -50.019  11.844  1.00  0.00     0.295 C 
HETATM    9  H   UNL     1     -38.705 -49.189  10.275  1.00  0.00     0.316 HD
HETATM   10  C   UNL     1     -37.930 -51.024  12.979  1.00  0.00     0.198 C 
HETATM   11  O   UNL     1     -39.197 -50.844  13.624  1.00  0.00    -0.381 OA
ENDBRANCH   4   5
ENDBRANCH   1   4
BRANCH   1  12
HETATM   12  C   UNL     1     -42.748 -53.304  13.252  1.00  0.00     0.117 A 
HETATM   13  C   UNL     1     -43.436 -54.263  13.992  1.00  0.00     0.051 A 
HETATM   14  C   UNL     1     -44.815 -54.427  13.866  1.00  0.00     0.022 A 
HETATM   15  C   UNL     1     -45.483 -53.616  12.982  1.00  0.00     0.107 A 
HETATM   16  N   UNL     1     -44.837 -52.704  12.243  1.00  0.00    -0.310 N 
HETATM   17  N   UNL     1     -43.464 -52.560  12.379  1.00  0.00    -0.286 N 
ATOM     18  HN  UNL     1     -45.352 -52.119  11.585  1.00  0.00     0.186 HD
ATOM     19  HN  UNL     1     -42.979 -51.872  11.802  1.00  0.00     0.188 HD
ENDBRANCH   1  12
TORSDOF 4
ENDMDL
MODEL 8
REMARK VINA RESULT:      -5.3      4.564      7.077
REMARK  4 active torsions:
REMARK  status: ('A' for Active; 'I' for Inactive)
REMARK    1  A    between atoms: C_2  and  N_3 
REMARK    2  A    between atoms: N_3  and  C_4 
REMARK    3  A    between atoms: N_3  and  C_11 
REMARK    4  A    between atoms: C_4  and  C_5 
ROOT
HETATM    1  N   UNL     1     -42.423 -52.616  13.005  1.00  0.00    -0.364 N 
ENDROOT
BRANCH   1   2
HETATM    2  C   UNL     1     -41.961 -53.810  13.743  1.00  0.00     0.120 C 
HETATM    3  C   UNL     1     -40.564 -54.271  13.350  1.00  0.00     0.026 C 
ENDBRANCH   1   2
BRANCH   1   4
HETATM    4  C   UNL     1     -41.558 -51.982  12.003  1.00  0.00     0.158 C 
BRANCH   4   5
HETATM    5  C   UNL     1     -41.095 -50.557  12.384  1.00  0.00     0.167 C 
HETATM    6  C   UNL     1     -40.564 -49.677  11.231  1.00  0.00     0.303 C 
HETATM    7  N   UNL     1     -39.180 -49.949  10.795  1.00  0.00     0.087 N 
HETATM    8  C   UNL     1     -38.283 -50.066  11.951  1.00  0.00     0.295 C 
HETATM    9  H   UNL     1     -38.867 -49.156  10.230  1.00  0.00     0.316 HD
HETATM   10  C   UNL     1     -38.829 -50.986  13.047  1.00  0.00     0.198 C 
HETATM   11  O   UNL     1     -40.141 -50.594  13.472  1.00  0.00    -0.381 OA
ENDBRANCH   4   5
ENDBRANCH   1   4
BRANCH   1  12
HETATM   12  C   UNL     1     -43.781 -52.299  13.058  1.00  0.00     0.117 A 
HETATM   13  C   UNL     1     -44.322 -51.599  14.134  1.00  0.00     0.051 A 
HETATM   14  C   UNL     1     -45.677 -51.273  14.183  1.00  0.00     0.022 A 
HETATM   15  C   UNL     1     -46.473 -51.668  13.136  1.00  0.00     0.107 A 
HETATM   16  N   UNL     1     -45.978 -52.362  12.103  1.00  0.00    -0.310 N 
HETATM   17  N   UNL     1     -44.628 -52.681  12.076  1.00  0.00    -0.286 N 
ATOM     18  HN  UNL     1     -46.590 -52.654  11.341  1.00  0.00     0.186 HD
ATOM     19  HN  UNL     1     -44.264 -53.222  11.291  1.00  0.00     0.188 HD
ENDBRANCH   1  12
TORSDOF 4
ENDMDL
MODEL 9
REMARK VINA RESULT:      -5.2      2.931      5.250
REMARK  4 active torsions:
REMARK  status: ('A' for Active; 'I' for Inactive)
REMARK    1  A    between atoms: C_2  and  N_3 
REMARK    2  A    between atoms: N_3  and  C_4 
REMARK    3  A    between atoms: N_3  and  C_11 
REMARK    4  A    between atoms: C_4  and  C_5 
ROOT
HETATM    1  N   UNL     1     -41.494 -48.335  11.615  1.00  0.00    -0.364 N 
ENDROOT
BRANCH   1   2
HETATM    2  C   UNL     1     -40.293 -47.484  11.740  1.00  0.00     0.120 C 
HETATM    3  C   UNL     1     -40.581 -46.095  12.292  1.00  0.00     0.026 C 
ENDBRANCH   1   2
BRANCH   1   4
HETATM    4  C   UNL     1     -41.910 -49.201  12.723  1.00  0.00     0.158 C 
BRANCH   4   5
HETATM    5  C   UNL     1     -40.899 -50.322  13.059  1.00  0.00     0.167 C 
HETATM    6  C   UNL     1     -40.409 -51.181  11.872  1.00  0.00     0.303 C 
HETATM    7  N   UNL     1     -41.335 -52.233  11.409  1.00  0.00     0.087 N 
HETATM    8  C   UNL     1     -41.871 -52.992  12.546  1.00  0.00     0.295 C 
HETATM    9  H   UNL     1     -40.807 -52.879  10.818  1.00  0.00     0.316 HD
HETATM   10  C   UNL     1     -42.389 -52.098  13.676  1.00  0.00     0.198 C 
HETATM   11  O   UNL     1     -41.395 -51.167  14.123  1.00  0.00    -0.381 OA
ENDBRANCH   4   5
ENDBRANCH   1   4
BRANCH   1  12
HETATM   12  C   UNL     1     -42.375 -48.072  10.564  1.00  0.00     0.117 A 
HETATM   13  C   UNL     1     -43.672 -47.622  10.800  1.00  0.00     0.051 A 
HETATM   14  C   UNL     1     -44.549 -47.349   9.750  1.00  0.00     0.022 A 
HETATM   15  C   UNL     1     -44.100 -47.544   8.468  1.00  0.00     0.107 A 
HETATM   16  N   UNL     1     -42.864 -47.999   8.219  1.00  0.00    -0.310 N 
HETATM   17  N   UNL     1     -42.009 -48.269   9.277  1.00  0.00    -0.286 N 
ATOM     18  HN  UNL     1     -42.555 -48.145   7.259  1.00  0.00     0.186 HD
ATOM     19  HN  UNL     1     -41.075 -48.628   9.079  1.00  0.00     0.188 HD
ENDBRANCH   1  12
TORSDOF 4
ENDMDL
