MODEL 1
REMARK VINA RESULT:      -5.6      0.000      0.000
REMARK  5 active torsions:
REMARK  status: ('A' for Active; 'I' for Inactive)
REMARK    1  A    between atoms: C_2  and  C_3 
REMARK    2  A    between atoms: C_2  and  N_10 
REMARK    3  A    between atoms: C_3  and  N_4 
REMARK    4  A    between atoms: N_10  and  S_11 
REMARK    5  A    between atoms: S_11  and  N_14 
ROOT
HETATM    1  N   UNL     1     -43.305 -54.804  15.040  1.00  0.00    -0.197 NA
HETATM    2  H   UNL     1     -43.219 -55.647  15.611  1.00  0.00     0.141 HD
ENDROOT
BRANCH   1   3
HETATM    3  C   UNL     1     -41.959 -54.120  14.960  1.00  0.00     0.087 C 
HETATM    4  C   UNL     1     -41.075 -54.723  16.057  1.00  0.00     0.029 C 
BRANCH   3   5
HETATM    5  C   UNL     1     -41.306 -54.252  13.571  1.00  0.00     0.149 C 
BRANCH   5   6
HETATM    6  N   UNL     1     -40.915 -52.988  12.977  1.00  0.00    -0.350 N 
HETATM    7  C   UNL     1     -40.007 -52.100  13.481  1.00  0.00     0.108 A 
HETATM    8  C   UNL     1     -39.928 -51.101  12.538  1.00  0.00     0.106 A 
HETATM    9  N   UNL     1     -40.765 -51.361  11.483  1.00  0.00    -0.361 N 
HETATM   10  C   UNL     1     -41.329 -52.513  11.764  1.00  0.00     0.182 A 
ATOM     11  HN  UNL     1     -40.917 -50.783  10.656  1.00  0.00     0.166 HD
ENDBRANCH   5   6
ENDBRANCH   3   5
ENDBRANCH   1   3
BRANCH   1  12
HETATM   12  S   UNL     1     -44.531 -53.894  15.758  1.00  0.00     0.299 S 
HETATM   13  O   UNL     1     -45.029 -54.701  16.844  1.00  0.00    -0.188 OA
HETATM   14  O   UNL     1     -44.044 -52.552  15.956  1.00  0.00    -0.188 OA
BRANCH  12  15
HETATM   15  N   UNL     1     -45.645 -53.904  14.498  1.00  0.00    -0.298 N 
HETATM   16  C   UNL     1     -45.123 -53.886  13.106  1.00  0.00     0.137 C 
HETATM   17  C   UNL     1     -44.847 -52.466  12.602  1.00  0.00     0.025 C 
HETATM   18  C   UNL     1     -46.014 -51.492  12.829  1.00  0.00    -0.015 C 
HETATM   19  C   UNL     1     -47.153 -51.720  11.831  1.00  0.00     0.010 C 
HETATM   20  C   UNL     1     -46.503 -51.588  14.278  1.00  0.00     0.025 C 
HETATM   21  C   UNL     1     -46.826 -53.023  14.676  1.00  0.00     0.137 C 
ENDBRANCH  12  15
ENDBRANCH   1  12
TORSDOF 5
ENDMDL
MODEL 2
REMARK VINA RESULT:      -5.5      2.325      3.198
REMARK  5 active torsions:
REMARK  status: ('A' for Active; 'I' for Inactive)
REMARK    1  A    between atoms: C_2  and  C_3 
REMARK    2  A    between atoms: C_2  and  N_10 
REMARK    3  A    between atoms: C_3  and  N_4 
REMARK    4  A    between atoms: N_10  and  S_11 
REMARK    5  A    between atoms: S_11  and  N_14 
ROOT
HETATM    1  N   UNL     1     -43.513 -53.111  11.946  1.00  0.00    -0.197 NA
HETATM    2  H   UNL     1     -43.281 -53.974  11.450  1.00  0.00     0.141 HD
ENDROOT
BRANCH   1   3
HETATM    3  C   UNL     1     -42.363 -52.736  12.853  1.00  0.00     0.087 C 
HETATM    4  C   UNL     1     -41.537 -54.005  13.091  1.00  0.00     0.029 C 
BRANCH   3   5
HETATM    5  C   UNL     1     -41.499 -51.598  12.278  1.00  0.00     0.149 C 
BRANCH   5   6
HETATM    6  N   UNL     1     -40.431 -51.161  13.157  1.00  0.00    -0.350 N 
HETATM    7  C   UNL     1     -39.099 -51.123  12.860  1.00  0.00     0.108 A 
HETATM    8  C   UNL     1     -38.503 -50.578  13.974  1.00  0.00     0.106 A 
HETATM    9  N   UNL     1     -39.439 -50.290  14.934  1.00  0.00    -0.361 N 
HETATM   10  C   UNL     1     -40.593 -50.631  14.407  1.00  0.00     0.182 A 
ATOM     11  HN  UNL     1     -39.275 -49.896  15.861  1.00  0.00     0.166 HD
ENDBRANCH   5   6
ENDBRANCH   3   5
ENDBRANCH   1   3
BRANCH   1  12
HETATM   12  S   UNL     1     -44.974 -53.421  12.732  1.00  0.00     0.299 S 
HETATM   13  O   UNL     1     -45.991 -52.794  11.923  1.00  0.00    -0.188 OA
HETATM   14  O   UNL     1     -45.018 -54.819  13.076  1.00  0.00    -0.188 OA
BRANCH  12  15
HETATM   15  N   UNL     1     -44.728 -52.510  14.123  1.00  0.00    -0.298 N 
HETATM   16  C   UNL     1     -44.793 -53.208  15.435  1.00  0.00     0.137 C 
HETATM   17  C   UNL     1     -46.223 -53.306  15.975  1.00  0.00     0.025 C 
HETATM   18  C   UNL     1     -46.983 -51.971  15.957  1.00  0.00    -0.015 C 
HETATM   19  C   UNL     1     -46.528 -51.036  17.082  1.00  0.00     0.010 C 
HETATM   20  C   UNL     1     -46.849 -51.310  14.581  1.00  0.00     0.025 C 
HETATM   21  C   UNL     1     -45.393 -51.183  14.151  1.00  0.00     0.137 C 
ENDBRANCH  12  15
ENDBRANCH   1  12
TORSDOF 5
ENDMDL
MODEL 3
REMARK VINA RESULT:      -5.4      1.662      2.458
REMARK  5 active torsions:
REMARK  status: ('A' for Active; 'I' for Inactive)
REMARK    1  A    between atoms: C_2  and  C_3 
REMARK    2  A    between atoms: C_2  and  N_10 
REMARK    3  A    between atoms: C_3  and  N_4 
REMARK    4  A    between atoms: N_10  and  S_11 
REMARK    5  A    between atoms: S_11  and  N_14 
ROOT
HETATM    1  N   UNL     1     -43.329 -55.071  14.346  1.00  0.00    -0.197 NA
HETATM    2  H   UNL     1     -43.506 -55.562  15.225  1.00  0.00     0.141 HD
ENDROOT
BRANCH   1   3
HETATM    3  C   UNL     1     -42.135 -54.160  14.520  1.00  0.00     0.087 C 
HETATM    4  C   UNL     1     -41.423 -54.582  15.810  1.00  0.00     0.029 C 
BRANCH   3   5
HETATM    5  C   UNL     1     -41.182 -54.192  13.311  1.00  0.00     0.149 C 
BRANCH   5   6
HETATM    6  N   UNL     1     -40.856 -52.883  12.777  1.00  0.00    -0.350 N 
HETATM    7  C   UNL     1     -39.892 -52.034  13.242  1.00  0.00     0.108 A 
HETATM    8  C   UNL     1     -39.917 -50.964  12.378  1.00  0.00     0.106 A 
HETATM    9  N   UNL     1     -40.870 -51.144  11.408  1.00  0.00    -0.361 N 
HETATM   10  C   UNL     1     -41.403 -52.317  11.660  1.00  0.00     0.182 A 
ATOM     11  HN  UNL     1     -41.113 -50.503  10.652  1.00  0.00     0.166 HD
ENDBRANCH   5   6
ENDBRANCH   3   5
ENDBRANCH   1   3
BRANCH   1  12
HETATM   12  S   UNL     1     -44.776 -54.290  13.965  1.00  0.00     0.299 S 
HETATM   13  O   UNL     1     -44.633 -53.855  12.597  1.00  0.00    -0.188 OA
HETATM   14  O   UNL     1     -45.870 -55.122  14.399  1.00  0.00    -0.188 OA
BRANCH  12  15
HETATM   15  N   UNL     1     -44.642 -52.964  14.990  1.00  0.00    -0.298 N 
HETATM   16  C   UNL     1     -44.943 -53.164  16.433  1.00  0.00     0.137 C 
HETATM   17  C   UNL     1     -46.436 -53.020  16.745  1.00  0.00     0.025 C 
HETATM   18  C   UNL     1     -47.070 -51.748  16.161  1.00  0.00    -0.015 C 
HETATM   19  C   UNL     1     -46.691 -50.499  16.962  1.00  0.00     0.010 C 
HETATM   20  C   UNL     1     -46.695 -51.608  14.681  1.00  0.00     0.025 C 
HETATM   21  C   UNL     1     -45.189 -51.687  14.466  1.00  0.00     0.137 C 
ENDBRANCH  12  15
ENDBRANCH   1  12
TORSDOF 5
ENDMDL
MODEL 4
REMARK VINA RESULT:      -5.2      2.191      3.019
REMARK  5 active torsions:
REMARK  status: ('A' for Active; 'I' for Inactive)
REMARK    1  A    between atoms: C_2  and  C_3 
REMARK    2  A    between atoms: C_2  and  N_10 
REMARK    3  A    between atoms: C_3  and  N_4 
REMARK    4  A    between atoms: N_10  and  S_11 
REMARK    5  A    between atoms: S_11  and  N_14 
ROOT
HETATM    1  N   UNL     1     -42.987 -54.140  12.875  1.00  0.00    -0.197 NA
HETATM    2  H   UNL     1     -42.818 -54.915  13.520  1.00  0.00     0.141 HD
ENDROOT
BRANCH   1   3
HETATM    3  C   UNL     1     -42.049 -53.002  13.212  1.00  0.00     0.087 C 
HETATM    4  C   UNL     1     -40.951 -53.569  14.118  1.00  0.00     0.029 C 
BRANCH   3   5
HETATM    5  C   UNL     1     -41.459 -52.328  11.959  1.00  0.00     0.149 C 
BRANCH   5   6
HETATM    6  N   UNL     1     -41.280 -50.894  12.086  1.00  0.00    -0.350 N 
HETATM    7  C   UNL     1     -40.468 -50.106  11.321  1.00  0.00     0.108 A 
HETATM    8  C   UNL     1     -40.692 -48.826  11.772  1.00  0.00     0.106 A 
HETATM    9  N   UNL     1     -41.613 -48.821  12.787  1.00  0.00    -0.361 N 
HETATM   10  C   UNL     1     -41.967 -50.077  12.940  1.00  0.00     0.182 A 
ATOM     11  HN  UNL     1     -41.952 -48.015  13.312  1.00  0.00     0.166 HD
ENDBRANCH   5   6
ENDBRANCH   3   5
ENDBRANCH   1   3
BRANCH   1  12
HETATM   12  S   UNL     1     -44.629 -53.781  13.019  1.00  0.00     0.299 S 
HETATM   13  O   UNL     1     -44.969 -53.033  11.834  1.00  0.00    -0.188 OA
HETATM   14  O   UNL     1     -45.327 -54.985  13.396  1.00  0.00    -0.188 OA
BRANCH  12  15
HETATM   15  N   UNL     1     -44.561 -52.739  14.337  1.00  0.00    -0.298 N 
HETATM   16  C   UNL     1     -44.841 -53.300  15.686  1.00  0.00     0.137 C 
HETATM   17  C   UNL     1     -46.338 -53.318  16.013  1.00  0.00     0.025 C 
HETATM   18  C   UNL     1     -47.043 -51.978  15.752  1.00  0.00    -0.015 C 
HETATM   19  C   UNL     1     -46.728 -50.943  16.836  1.00  0.00     0.010 C 
HETATM   20  C   UNL     1     -46.686 -51.462  14.353  1.00  0.00     0.025 C 
HETATM   21  C   UNL     1     -45.179 -51.405  14.136  1.00  0.00     0.137 C 
ENDBRANCH  12  15
ENDBRANCH   1  12
TORSDOF 5
ENDMDL
MODEL 5
REMARK VINA RESULT:      -5.1      2.445      3.048
REMARK  5 active torsions:
REMARK  status: ('A' for Active; 'I' for Inactive)
REMARK    1  A    between atoms: C_2  and  C_3 
REMARK    2  A    between atoms: C_2  and  N_10 
REMARK    3  A    between atoms: C_3  and  N_4 
REMARK    4  A    between atoms: N_10  and  S_11 
REMARK    5  A    between atoms: S_11  and  N_14 
ROOT
HETATM    1  N   UNL     1     -41.540 -52.494  14.782  1.00  0.00    -0.197 NA
HETATM    2  H   UNL     1     -42.178 -52.194  15.522  1.00  0.00     0.141 HD
ENDROOT
BRANCH   1   3
HETATM    3  C   UNL     1     -40.603 -51.355  14.444  1.00  0.00     0.087 C 
HETATM    4  C   UNL     1     -40.410 -50.529  15.721  1.00  0.00     0.029 C 
BRANCH   3   5
HETATM    5  C   UNL     1     -39.257 -51.842  13.875  1.00  0.00     0.149 C 
BRANCH   5   6
HETATM    6  N   UNL     1     -38.749 -51.034  12.782  1.00  0.00    -0.350 N 
HETATM    7  C   UNL     1     -37.436 -50.826  12.469  1.00  0.00     0.108 A 
HETATM    8  C   UNL     1     -37.463 -50.059  11.327  1.00  0.00     0.106 A 
HETATM    9  N   UNL     1     -38.754 -49.796  10.947  1.00  0.00    -0.361 N 
HETATM   10  C   UNL     1     -39.507 -50.414  11.828  1.00  0.00     0.182 A 
ATOM     11  HN  UNL     1     -39.064 -49.240  10.150  1.00  0.00     0.166 HD
ENDBRANCH   5   6
ENDBRANCH   3   5
ENDBRANCH   1   3
BRANCH   1  12
HETATM   12  S   UNL     1     -42.527 -53.010  13.515  1.00  0.00     0.299 S 
HETATM   13  O   UNL     1     -42.712 -51.854  12.671  1.00  0.00    -0.188 OA
HETATM   14  O   UNL     1     -42.007 -54.256  13.011  1.00  0.00    -0.188 OA
BRANCH  12  15
HETATM   15  N   UNL     1     -43.940 -53.302  14.378  1.00  0.00    -0.298 N 
HETATM   16  C   UNL     1     -45.190 -53.540  13.609  1.00  0.00     0.137 C 
HETATM   17  C   UNL     1     -45.906 -52.237  13.239  1.00  0.00     0.025 C 
HETATM   18  C   UNL     1     -46.092 -51.276  14.423  1.00  0.00    -0.015 C 
HETATM   19  C   UNL     1     -47.215 -51.730  15.360  1.00  0.00     0.010 C 
HETATM   20  C   UNL     1     -44.765 -51.102  15.170  1.00  0.00     0.025 C 
HETATM   21  C   UNL     1     -44.158 -52.441  15.568  1.00  0.00     0.137 C 
ENDBRANCH  12  15
ENDBRANCH   1  12
TORSDOF 5
ENDMDL
MODEL 6
REMARK VINA RESULT:      -5.1      1.511      1.821
REMARK  5 active torsions:
REMARK  status: ('A' for Active; 'I' for Inactive)
REMARK    1  A    between atoms: C_2  and  C_3 
REMARK    2  A    between atoms: C_2  and  N_10 
REMARK    3  A    between atoms: C_3  and  N_4 
REMARK    4  A    between atoms: N_10  and  S_11 
REMARK    5  A    between atoms: S_11  and  N_14 
ROOT
HETATM    1  N   UNL     1     -41.616 -54.422  14.064  1.00  0.00    -0.197 NA
HETATM    2  H   UNL     1     -41.403 -55.403  13.872  1.00  0.00     0.141 HD
ENDROOT
BRANCH   1   3
HETATM    3  C   UNL     1     -40.497 -53.826  14.888  1.00  0.00     0.087 C 
HETATM    4  C   UNL     1     -39.734 -54.988  15.532  1.00  0.00     0.029 C 
BRANCH   3   5
HETATM    5  C   UNL     1     -39.562 -52.926  14.058  1.00  0.00     0.149 C 
BRANCH   5   6
HETATM    6  N   UNL     1     -40.202 -51.737  13.526  1.00  0.00    -0.350 N 
HETATM    7  C   UNL     1     -40.364 -51.423  12.207  1.00  0.00     0.108 A 
HETATM    8  C   UNL     1     -41.080 -50.248  12.208  1.00  0.00     0.106 A 
HETATM    9  N   UNL     1     -41.351 -49.845  13.491  1.00  0.00    -0.361 N 
HETATM   10  C   UNL     1     -40.830 -50.772  14.262  1.00  0.00     0.182 A 
ATOM     11  HN  UNL     1     -41.850 -49.005  13.783  1.00  0.00     0.166 HD
ENDBRANCH   5   6
ENDBRANCH   3   5
ENDBRANCH   1   3
BRANCH   1  12
HETATM   12  S   UNL     1     -43.130 -54.425  14.808  1.00  0.00     0.299 S 
HETATM   13  O   UNL     1     -43.360 -55.789  15.217  1.00  0.00    -0.188 OA
HETATM   14  O   UNL     1     -43.184 -53.323  15.735  1.00  0.00    -0.188 OA
BRANCH  12  15
HETATM   15  N   UNL     1     -44.086 -54.076  13.469  1.00  0.00    -0.298 N 
HETATM   16  C   UNL     1     -43.781 -52.842  12.697  1.00  0.00     0.137 C 
HETATM   17  C   UNL     1     -44.469 -51.602  13.279  1.00  0.00     0.025 C 
HETATM   18  C   UNL     1     -45.969 -51.797  13.548  1.00  0.00    -0.015 C 
HETATM   19  C   UNL     1     -46.793 -51.758  12.259  1.00  0.00     0.010 C 
HETATM   20  C   UNL     1     -46.196 -53.097  14.329  1.00  0.00     0.025 C 
HETATM   21  C   UNL     1     -45.544 -54.292  13.645  1.00  0.00     0.137 C 
ENDBRANCH  12  15
ENDBRANCH   1  12
TORSDOF 5
ENDMDL
MODEL 7
REMARK VINA RESULT:      -5.1      3.387      5.291
REMARK  5 active torsions:
REMARK  status: ('A' for Active; 'I' for Inactive)
REMARK    1  A    between atoms: C_2  and  C_3 
REMARK    2  A    between atoms: C_2  and  N_10 
REMARK    3  A    between atoms: C_3  and  N_4 
REMARK    4  A    between atoms: N_10  and  S_11 
REMARK    5  A    between atoms: S_11  and  N_14 
ROOT
HETATM    1  N   UNL     1     -39.075 -51.505  12.014  1.00  0.00    -0.197 NA
HETATM    2  H   UNL     1     -38.157 -51.947  11.934  1.00  0.00     0.141 HD
ENDROOT
BRANCH   1   3
HETATM    3  C   UNL     1     -38.897 -50.005  12.086  1.00  0.00     0.087 C 
HETATM    4  C   UNL     1     -37.555 -49.672  11.425  1.00  0.00     0.029 C 
BRANCH   3   5
HETATM    5  C   UNL     1     -40.058 -49.237  11.426  1.00  0.00     0.149 C 
BRANCH   5   6
HETATM    6  N   UNL     1     -40.195 -47.866  11.880  1.00  0.00    -0.350 N 
HETATM    7  C   UNL     1     -40.013 -47.410  13.155  1.00  0.00     0.108 A 
HETATM    8  C   UNL     1     -40.185 -46.047  13.071  1.00  0.00     0.106 A 
HETATM    9  N   UNL     1     -40.468 -45.671  11.783  1.00  0.00    -0.361 N 
HETATM   10  C   UNL     1     -40.445 -46.783  11.084  1.00  0.00     0.182 A 
ATOM     11  HN  UNL     1     -40.656 -44.729  11.440  1.00  0.00     0.166 HD
ENDBRANCH   5   6
ENDBRANCH   3   5
ENDBRANCH   1   3
BRANCH   1  12
HETATM   12  S   UNL     1     -39.798 -52.206  13.367  1.00  0.00     0.299 S 
HETATM   13  O   UNL     1     -38.892 -53.242  13.800  1.00  0.00    -0.188 OA
HETATM   14  O   UNL     1     -40.239 -51.152  14.245  1.00  0.00    -0.188 OA
BRANCH  12  15
HETATM   15  N   UNL     1     -41.133 -52.909  12.623  1.00  0.00    -0.298 N 
HETATM   16  C   UNL     1     -42.358 -52.080  12.463  1.00  0.00     0.137 C 
HETATM   17  C   UNL     1     -43.259 -52.123  13.702  1.00  0.00     0.025 C 
HETATM   18  C   UNL     1     -43.546 -53.545  14.208  1.00  0.00    -0.015 C 
HETATM   19  C   UNL     1     -44.569 -54.271  13.330  1.00  0.00     0.010 C 
HETATM   20  C   UNL     1     -42.237 -54.333  14.326  1.00  0.00     0.025 C 
HETATM   21  C   UNL     1     -41.437 -54.303  13.029  1.00  0.00     0.137 C 
ENDBRANCH  12  15
ENDBRANCH   1  12
TORSDOF 5
ENDMDL
MODEL 8
REMARK VINA RESULT:      -4.9      2.877      6.386
REMARK  5 active torsions:
REMARK  status: ('A' for Active; 'I' for Inactive)
REMARK    1  A    between atoms: C_2  and  C_3 
REMARK    2  A    between atoms: C_2  and  N_10 
REMARK    3  A    between atoms: C_3  and  N_4 
REMARK    4  A    between atoms: N_10  and  S_11 
REMARK    5  A    between atoms: S_11  and  N_14 
ROOT
HETATM    1  N   UNL     1     -41.911 -52.661  13.900  1.00  0.00    -0.197 NA
HETATM    2  H   UNL     1     -41.604 -52.648  14.874  1.00  0.00     0.141 HD
ENDROOT
BRANCH   1   3
HETATM    3  C   UNL     1     -42.434 -54.040  13.564  1.00  0.00     0.087 C 
HETATM    4  C   UNL     1     -42.620 -54.792  14.886  1.00  0.00     0.029 C 
BRANCH   3   5
HETATM    5  C   UNL     1     -43.740 -53.998  12.748  1.00  0.00     0.149 C 
BRANCH   5   6
HETATM    6  N   UNL     1     -44.944 -54.023  13.556  1.00  0.00    -0.350 N 
HETATM    7  C   UNL     1     -45.571 -52.945  14.115  1.00  0.00     0.108 A 
HETATM    8  C   UNL     1     -46.693 -53.463  14.719  1.00  0.00     0.106 A 
HETATM    9  N   UNL     1     -46.758 -54.822  14.543  1.00  0.00    -0.361 N 
HETATM   10  C   UNL     1     -45.705 -55.128  13.820  1.00  0.00     0.182 A 
ATOM     11  HN  UNL     1     -47.472 -55.459  14.897  1.00  0.00     0.166 HD
ENDBRANCH   5   6
ENDBRANCH   3   5
ENDBRANCH   1   3
BRANCH   1  12
HETATM   12  S   UNL     1     -40.575 -52.162  12.998  1.00  0.00     0.299 S 
HETATM   13  O   UNL     1     -39.675 -53.290  12.981  1.00  0.00    -0.188 OA
HETATM   14  O   UNL     1     -41.049 -51.538  11.789  1.00  0.00    -0.188 OA
BRANCH  12  15
HETATM   15  N   UNL     1     -39.975 -50.984  14.037  1.00  0.00    -0.298 N 
HETATM   16  C   UNL     1     -40.342 -49.568  13.771  1.00  0.00     0.137 C 
HETATM   17  C   UNL     1     -39.399 -48.898  12.766  1.00  0.00     0.025 C 
HETATM   18  C   UNL     1     -37.910 -49.091  13.092  1.00  0.00    -0.015 C 
HETATM   19  C   UNL     1     -37.455 -48.197  14.250  1.00  0.00     0.010 C 
HETATM   20  C   UNL     1     -37.622 -50.570  13.372  1.00  0.00     0.025 C 
HETATM   21  C   UNL     1     -38.553 -51.140  14.435  1.00  0.00     0.137 C 
ENDBRANCH  12  15
ENDBRANCH   1  12
TORSDOF 5
ENDMDL
MODEL 9
REMARK VINA RESULT:      -4.9      2.202      3.355
REMARK  5 active torsions:
REMARK  status: ('A' for Active; 'I' for Inactive)
REMARK    1  A    between atoms: C_2  and  C_3 
REMARK    2  A    between atoms: C_2  and  N_10 
REMARK    3  A    between atoms: C_3  and  N_4 
REMARK    4  A    between atoms: N_10  and  S_11 
REMARK    5  A    between atoms: S_11  and  N_14 
ROOT
HETATM    1  N   UNL     1     -42.180 -52.362  14.242  1.00  0.00    -0.197 NA
HETATM    2  H   UNL     1     -42.780 -51.536  14.284  1.00  0.00     0.141 HD
ENDROOT
BRANCH   1   3
HETATM    3  C   UNL     1     -41.267 -52.251  13.042  1.00  0.00     0.087 C 
HETATM    4  C   UNL     1     -41.720 -51.030  12.235  1.00  0.00     0.029 C 
BRANCH   3   5
HETATM    5  C   UNL     1     -39.781 -52.151  13.434  1.00  0.00     0.149 C 
BRANCH   5   6
HETATM    6  N   UNL     1     -39.331 -53.204  14.325  1.00  0.00    -0.350 N 
HETATM    7  C   UNL     1     -39.141 -53.100  15.674  1.00  0.00     0.108 A 
HETATM    8  C   UNL     1     -38.783 -54.365  16.079  1.00  0.00     0.106 A 
HETATM    9  N   UNL     1     -38.749 -55.226  15.013  1.00  0.00    -0.361 N 
HETATM   10  C   UNL     1     -39.105 -54.505  13.974  1.00  0.00     0.182 A 
ATOM     11  HN  UNL     1     -38.500 -56.216  15.023  1.00  0.00     0.166 HD
ENDBRANCH   5   6
ENDBRANCH   3   5
ENDBRANCH   1   3
BRANCH   1  12
HETATM   12  S   UNL     1     -43.230 -53.683  14.224  1.00  0.00     0.299 S 
HETATM   13  O   UNL     1     -43.922 -53.611  12.960  1.00  0.00    -0.188 OA
HETATM   14  O   UNL     1     -42.497 -54.853  14.635  1.00  0.00    -0.188 OA
BRANCH  12  15
HETATM   15  N   UNL     1     -44.272 -53.214  15.458  1.00  0.00    -0.298 N 
HETATM   16  C   UNL     1     -45.571 -53.928  15.583  1.00  0.00     0.137 C 
HETATM   17  C   UNL     1     -46.658 -53.325  14.688  1.00  0.00     0.025 C 
HETATM   18  C   UNL     1     -46.787 -51.800  14.813  1.00  0.00    -0.015 C 
HETATM   19  C   UNL     1     -47.498 -51.388  16.106  1.00  0.00     0.010 C 
HETATM   20  C   UNL     1     -45.406 -51.146  14.693  1.00  0.00     0.025 C 
HETATM   21  C   UNL     1     -44.404 -51.751  15.668  1.00  0.00     0.137 C 
ENDBRANCH  12  15
ENDBRANCH   1  12
TORSDOF 5
ENDMDL
