MODEL 1
REMARK VINA RESULT:      -6.2      0.000      0.000
REMARK  4 active torsions:
REMARK  status: ('A' for Active; 'I' for Inactive)
REMARK    1  A    between atoms: C_8  and  N_9 
REMARK       I    between atoms: N_9  and  C_10 
REMARK       I    between atoms: C_10  and  N_12 
REMARK    2  A    between atoms: N_12  and  C_13 
REMARK    3  A    between atoms: C_18  and  C_19 
REMARK    4  A    between atoms: C_19  and  O_20 
ROOT
HETATM    1  N   UNL     1     -44.385 -51.592  12.711  1.00  0.00    -0.308 N 
HETATM    2  C   UNL     1     -43.408 -50.852  13.354  1.00  0.00     0.321 C 
HETATM    3  O   UNL     1     -43.036 -51.003  14.510  1.00  0.00    -0.247 OA
HETATM    4  N   UNL     1     -42.816 -49.913  12.531  1.00  0.00    -0.338 N 
HETATM    5  H   UNL     1     -44.741 -51.223  11.843  1.00  0.00     0.170 HD
HETATM    6  H   UNL     1     -43.364 -49.579  11.752  1.00  0.00     0.164 HD
ENDROOT
BRANCH   1   7
HETATM    7  C   UNL     1     -45.051 -52.725  13.262  1.00  0.00     0.044 A 
HETATM    8  C   UNL     1     -46.203 -52.564  14.051  1.00  0.00    -0.020 A 
HETATM    9  C   UNL     1     -46.816 -51.239  14.390  1.00  0.00     0.052 C 
HETATM   10  C   UNL     1     -46.797 -53.720  14.564  1.00  0.00     0.096 A 
HETATM   11  N   UNL     1     -46.352 -54.976  14.354  1.00  0.00    -0.375 N 
HETATM   12  C   UNL     1     -45.259 -55.098  13.582  1.00  0.00     0.090 A 
ATOM     13  HN  UNL     1     -46.819 -55.788  14.757  1.00  0.00     0.164 HD
HETATM   14  C   UNL     1     -44.593 -54.024  13.020  1.00  0.00     0.047 A 
ENDBRANCH   1   7
BRANCH   4  15
HETATM   15  C   UNL     1     -41.807 -48.988  13.080  1.00  0.00     0.092 C 
HETATM   16  C   UNL     1     -42.477 -47.747  13.694  1.00  0.00     0.026 C 
HETATM   17  C   UNL     1     -43.074 -46.819  12.636  1.00  0.00     0.002 C 
HETATM   18  C   UNL     1     -42.068 -46.453  11.547  1.00  0.00     0.001 C 
HETATM   19  C   UNL     1     -41.386 -47.681  10.946  1.00  0.00     0.009 C 
HETATM   20  C   UNL     1     -40.748 -48.545  12.045  1.00  0.00     0.032 C 
BRANCH  20  21
HETATM   21  C   UNL     1     -39.942 -49.713  11.468  1.00  0.00     0.170 C 
BRANCH  21  22
HETATM   22  O   UNL     1     -40.466 -50.155  10.224  1.00  0.00    -0.400 OA
HETATM   23  H   UNL     1     -39.733 -50.618   9.775  1.00  0.00     0.209 HD
ENDBRANCH  21  22
ENDBRANCH  20  21
ENDBRANCH   4  15
TORSDOF 4
ENDMDL
MODEL 2
REMARK VINA RESULT:      -6.2      2.241      6.870
REMARK  4 active torsions:
REMARK  status: ('A' for Active; 'I' for Inactive)
REMARK    1  A    between atoms: C_8  and  N_9 
REMARK       I    between atoms: N_9  and  C_10 
REMARK       I    between atoms: C_10  and  N_12 
REMARK    2  A    between atoms: N_12  and  C_13 
REMARK    3  A    between atoms: C_18  and  C_19 
REMARK    4  A    between atoms: C_19  and  O_20 
ROOT
HETATM    1  N   UNL     1     -42.238 -49.360  11.420  1.00  0.00    -0.308 N 
HETATM    2  C   UNL     1     -42.929 -49.642  12.585  1.00  0.00     0.321 C 
HETATM    3  O   UNL     1     -43.166 -48.852  13.490  1.00  0.00    -0.247 OA
HETATM    4  N   UNL     1     -43.403 -50.939  12.628  1.00  0.00    -0.338 N 
HETATM    5  H   UNL     1     -41.929 -50.147  10.870  1.00  0.00     0.170 HD
HETATM    6  H   UNL     1     -42.905 -51.625  12.081  1.00  0.00     0.164 HD
ENDROOT
BRANCH   1   7
HETATM    7  C   UNL     1     -41.772 -48.070  11.035  1.00  0.00     0.044 A 
HETATM    8  C   UNL     1     -42.621 -47.172  10.366  1.00  0.00    -0.020 A 
HETATM    9  C   UNL     1     -44.042 -47.473   9.993  1.00  0.00     0.052 C 
HETATM   10  C   UNL     1     -42.092 -45.929  10.011  1.00  0.00     0.096 A 
HETATM   11  N   UNL     1     -40.831 -45.524  10.269  1.00  0.00    -0.375 N 
HETATM   12  C   UNL     1     -40.048 -46.397  10.925  1.00  0.00     0.090 A 
ATOM     13  HN  UNL     1     -40.491 -44.606   9.983  1.00  0.00     0.164 HD
HETATM   14  C   UNL     1     -40.469 -47.652  11.326  1.00  0.00     0.047 A 
ENDBRANCH   1   7
BRANCH   4  15
HETATM   15  C   UNL     1     -44.098 -51.427  13.834  1.00  0.00     0.092 C 
HETATM   16  C   UNL     1     -43.111 -52.111  14.796  1.00  0.00     0.026 C 
HETATM   17  C   UNL     1     -42.616 -53.458  14.268  1.00  0.00     0.002 C 
HETATM   18  C   UNL     1     -43.762 -54.382  13.861  1.00  0.00     0.001 C 
HETATM   19  C   UNL     1     -44.755 -53.700  12.920  1.00  0.00     0.009 C 
HETATM   20  C   UNL     1     -45.269 -52.386  13.526  1.00  0.00     0.032 C 
BRANCH  20  21
HETATM   21  C   UNL     1     -46.366 -51.745  12.670  1.00  0.00     0.170 C 
BRANCH  21  22
HETATM   22  O   UNL     1     -46.647 -52.511  11.508  1.00  0.00    -0.400 OA
HETATM   23  H   UNL     1     -46.718 -51.869  10.776  1.00  0.00     0.209 HD
ENDBRANCH  21  22
ENDBRANCH  20  21
ENDBRANCH   4  15
TORSDOF 4
ENDMDL
MODEL 3
REMARK VINA RESULT:      -6.0      2.249      3.491
REMARK  4 active torsions:
REMARK  status: ('A' for Active; 'I' for Inactive)
REMARK    1  A    between atoms: C_8  and  N_9 
REMARK       I    between atoms: N_9  and  C_10 
REMARK       I    between atoms: C_10  and  N_12 
REMARK    2  A    between atoms: N_12  and  C_13 
REMARK    3  A    between atoms: C_18  and  C_19 
REMARK    4  A    between atoms: C_19  and  O_20 
ROOT
HETATM    1  N   UNL     1     -42.311 -52.052  14.023  1.00  0.00    -0.308 N 
HETATM    2  C   UNL     1     -41.305 -51.890  13.088  1.00  0.00     0.321 C 
HETATM    3  O   UNL     1     -41.301 -52.343  11.950  1.00  0.00    -0.247 OA
HETATM    4  N   UNL     1     -40.273 -51.091  13.540  1.00  0.00    -0.338 N 
HETATM    5  H   UNL     1     -42.089 -51.816  14.978  1.00  0.00     0.170 HD
HETATM    6  H   UNL     1     -40.134 -51.048  14.540  1.00  0.00     0.164 HD
ENDROOT
BRANCH   1   7
HETATM    7  C   UNL     1     -43.560 -52.693  13.781  1.00  0.00     0.044 A 
HETATM    8  C   UNL     1     -43.755 -54.039  14.134  1.00  0.00    -0.020 A 
HETATM    9  C   UNL     1     -42.707 -54.907  14.762  1.00  0.00     0.052 C 
HETATM   10  C   UNL     1     -45.004 -54.602  13.857  1.00  0.00     0.096 A 
HETATM   11  N   UNL     1     -46.037 -53.949  13.286  1.00  0.00    -0.375 N 
HETATM   12  C   UNL     1     -45.826 -52.659  12.976  1.00  0.00     0.090 A 
ATOM     13  HN  UNL     1     -46.928 -54.408  13.099  1.00  0.00     0.164 HD
HETATM   14  C   UNL     1     -44.631 -52.000  13.207  1.00  0.00     0.047 A 
ENDBRANCH   1   7
BRANCH   4  15
HETATM   15  C   UNL     1     -39.084 -50.878  12.695  1.00  0.00     0.092 C 
HETATM   16  C   UNL     1     -37.795 -51.209  13.467  1.00  0.00     0.026 C 
HETATM   17  C   UNL     1     -37.480 -50.178  14.551  1.00  0.00     0.002 C 
HETATM   18  C   UNL     1     -37.482 -48.748  14.016  1.00  0.00     0.001 C 
HETATM   19  C   UNL     1     -38.753 -48.420  13.232  1.00  0.00     0.009 C 
HETATM   20  C   UNL     1     -38.987 -49.448  12.116  1.00  0.00     0.032 C 
BRANCH  20  21
HETATM   21  C   UNL     1     -40.178 -49.075  11.226  1.00  0.00     0.170 C 
BRANCH  21  22
HETATM   22  O   UNL     1     -40.455 -50.080  10.263  1.00  0.00    -0.400 OA
HETATM   23  H   UNL     1     -40.984 -49.645   9.568  1.00  0.00     0.209 HD
ENDBRANCH  21  22
ENDBRANCH  20  21
ENDBRANCH   4  15
TORSDOF 4
ENDMDL
MODEL 4
REMARK VINA RESULT:      -5.5      2.183      6.640
REMARK  4 active torsions:
REMARK  status: ('A' for Active; 'I' for Inactive)
REMARK    1  A    between atoms: C_8  and  N_9 
REMARK       I    between atoms: N_9  and  C_10 
REMARK       I    between atoms: C_10  and  N_12 
REMARK    2  A    between atoms: N_12  and  C_13 
REMARK    3  A    between atoms: C_18  and  C_19 
REMARK    4  A    between atoms: C_19  and  O_20 
ROOT
HETATM    1  N   UNL     1     -41.617 -50.840  13.402  1.00  0.00    -0.308 N 
HETATM    2  C   UNL     1     -42.506 -51.769  12.893  1.00  0.00     0.321 C 
HETATM    3  O   UNL     1     -42.294 -52.532  11.959  1.00  0.00    -0.247 OA
HETATM    4  N   UNL     1     -43.699 -51.810  13.588  1.00  0.00    -0.338 N 
HETATM    5  H   UNL     1     -41.993 -50.137  14.018  1.00  0.00     0.170 HD
HETATM    6  H   UNL     1     -43.970 -50.969  14.077  1.00  0.00     0.164 HD
ENDROOT
BRANCH   1   7
HETATM    7  C   UNL     1     -40.262 -50.687  12.986  1.00  0.00     0.044 A 
HETATM    8  C   UNL     1     -39.932 -49.826  11.926  1.00  0.00    -0.020 A 
HETATM    9  C   UNL     1     -40.931 -49.023  11.148  1.00  0.00     0.052 C 
HETATM   10  C   UNL     1     -38.584 -49.734  11.568  1.00  0.00     0.096 A 
HETATM   11  N   UNL     1     -37.578 -50.404  12.168  1.00  0.00    -0.375 N 
HETATM   12  C   UNL     1     -37.924 -51.206  13.189  1.00  0.00     0.090 A 
ATOM     13  HN  UNL     1     -36.610 -50.307  11.864  1.00  0.00     0.164 HD
HETATM   14  C   UNL     1     -39.225 -51.371  13.628  1.00  0.00     0.047 A 
ENDBRANCH   1   7
BRANCH   4  15
HETATM   15  C   UNL     1     -44.787 -52.692  13.129  1.00  0.00     0.092 C 
HETATM   16  C   UNL     1     -46.064 -51.884  12.841  1.00  0.00     0.026 C 
HETATM   17  C   UNL     1     -46.728 -51.362  14.115  1.00  0.00     0.002 C 
HETATM   18  C   UNL     1     -46.962 -52.465  15.145  1.00  0.00     0.001 C 
HETATM   19  C   UNL     1     -45.701 -53.283  15.421  1.00  0.00     0.009 C 
HETATM   20  C   UNL     1     -45.111 -53.837  14.116  1.00  0.00     0.032 C 
BRANCH  20  21
HETATM   21  C   UNL     1     -43.924 -54.771  14.369  1.00  0.00     0.170 C 
BRANCH  21  22
HETATM   22  O   UNL     1     -43.035 -54.247  15.344  1.00  0.00    -0.400 OA
HETATM   23  H   UNL     1     -42.415 -53.671  14.858  1.00  0.00     0.209 HD
ENDBRANCH  21  22
ENDBRANCH  20  21
ENDBRANCH   4  15
TORSDOF 4
ENDMDL
MODEL 5
REMARK VINA RESULT:      -5.3      2.414      6.838
REMARK  4 active torsions:
REMARK  status: ('A' for Active; 'I' for Inactive)
REMARK    1  A    between atoms: C_8  and  N_9 
REMARK       I    between atoms: N_9  and  C_10 
REMARK       I    between atoms: C_10  and  N_12 
REMARK    2  A    between atoms: N_12  and  C_13 
REMARK    3  A    between atoms: C_18  and  C_19 
REMARK    4  A    between atoms: C_19  and  O_20 
ROOT
HETATM    1  N   UNL     1     -41.875 -49.583  13.812  1.00  0.00    -0.308 N 
HETATM    2  C   UNL     1     -42.063 -50.624  12.920  1.00  0.00     0.321 C 
HETATM    3  O   UNL     1     -41.632 -50.677  11.775  1.00  0.00    -0.247 OA
HETATM    4  N   UNL     1     -42.768 -51.679  13.465  1.00  0.00    -0.338 N 
HETATM    5  H   UNL     1     -42.461 -49.573  14.632  1.00  0.00     0.170 HD
HETATM    6  H   UNL     1     -43.391 -51.465  14.230  1.00  0.00     0.164 HD
ENDROOT
BRANCH   1   7
HETATM    7  C   UNL     1     -41.058 -48.439  13.577  1.00  0.00     0.044 A 
HETATM    8  C   UNL     1     -39.702 -48.439  13.948  1.00  0.00    -0.020 A 
HETATM    9  C   UNL     1     -39.009 -49.591  14.612  1.00  0.00     0.052 C 
HETATM   10  C   UNL     1     -38.967 -47.279  13.695  1.00  0.00     0.096 A 
HETATM   11  N   UNL     1     -39.458 -46.163  13.116  1.00  0.00    -0.375 N 
HETATM   12  C   UNL     1     -40.752 -46.200  12.757  1.00  0.00     0.090 A 
ATOM     13  HN  UNL     1     -38.879 -45.339  12.958  1.00  0.00     0.164 HD
HETATM   14  C   UNL     1     -41.572 -47.296  12.957  1.00  0.00     0.047 A 
ENDBRANCH   1   7
BRANCH   4  15
HETATM   15  C   UNL     1     -43.121 -52.839  12.625  1.00  0.00     0.092 C 
HETATM   16  C   UNL     1     -44.641 -53.080  12.635  1.00  0.00     0.026 C 
HETATM   17  C   UNL     1     -45.140 -53.620  13.975  1.00  0.00     0.002 C 
HETATM   18  C   UNL     1     -44.357 -54.846  14.438  1.00  0.00     0.001 C 
HETATM   19  C   UNL     1     -42.846 -54.618  14.413  1.00  0.00     0.009 C 
HETATM   20  C   UNL     1     -42.388 -54.139  13.028  1.00  0.00     0.032 C 
BRANCH  20  21
HETATM   21  C   UNL     1     -40.864 -54.028  12.928  1.00  0.00     0.170 C 
BRANCH  21  22
HETATM   22  O   UNL     1     -40.455 -53.425  11.710  1.00  0.00    -0.400 OA
HETATM   23  H   UNL     1     -40.032 -54.135  11.190  1.00  0.00     0.209 HD
ENDBRANCH  21  22
ENDBRANCH  20  21
ENDBRANCH   4  15
TORSDOF 4
ENDMDL
MODEL 6
REMARK VINA RESULT:      -5.2      4.466      5.374
REMARK  4 active torsions:
REMARK  status: ('A' for Active; 'I' for Inactive)
REMARK    1  A    between atoms: C_8  and  N_9 
REMARK       I    between atoms: N_9  and  C_10 
REMARK       I    between atoms: C_10  and  N_12 
REMARK    2  A    between atoms: N_12  and  C_13 
REMARK    3  A    between atoms: C_18  and  C_19 
REMARK    4  A    between atoms: C_19  and  O_20 
ROOT
HETATM    1  N   UNL     1     -39.847 -53.386  15.561  1.00  0.00    -0.308 N 
HETATM    2  C   UNL     1     -39.581 -53.090  14.236  1.00  0.00     0.321 C 
HETATM    3  O   UNL     1     -39.589 -53.887  13.306  1.00  0.00    -0.247 OA
HETATM    4  N   UNL     1     -39.343 -51.747  14.021  1.00  0.00    -0.338 N 
HETATM    5  H   UNL     1     -39.593 -52.689  16.244  1.00  0.00     0.170 HD
HETATM    6  H   UNL     1     -38.994 -51.215  14.805  1.00  0.00     0.164 HD
ENDROOT
BRANCH   1   7
HETATM    7  C   UNL     1     -40.276 -54.654  16.048  1.00  0.00     0.044 A 
HETATM    8  C   UNL     1     -39.341 -55.602  16.499  1.00  0.00    -0.020 A 
HETATM    9  C   UNL     1     -37.857 -55.388  16.501  1.00  0.00     0.052 C 
HETATM   10  C   UNL     1     -39.836 -56.827  16.955  1.00  0.00     0.096 A 
HETATM   11  N   UNL     1     -41.141 -57.164  17.001  1.00  0.00    -0.375 N 
HETATM   12  C   UNL     1     -42.012 -56.231  16.579  1.00  0.00     0.090 A 
ATOM     13  HN  UNL     1     -41.450 -58.076  17.337  1.00  0.00     0.164 HD
HETATM   14  C   UNL     1     -41.633 -54.986  16.111  1.00  0.00     0.047 A 
ENDBRANCH   1   7
BRANCH   4  15
HETATM   15  C   UNL     1     -38.968 -51.273  12.676  1.00  0.00     0.092 C 
HETATM   16  C   UNL     1     -37.641 -50.496  12.718  1.00  0.00     0.026 C 
HETATM   17  C   UNL     1     -37.779 -49.135  13.399  1.00  0.00     0.002 C 
HETATM   18  C   UNL     1     -38.918 -48.302  12.814  1.00  0.00     0.001 C 
HETATM   19  C   UNL     1     -40.235 -49.076  12.752  1.00  0.00     0.009 C 
HETATM   20  C   UNL     1     -40.055 -50.404  12.003  1.00  0.00     0.032 C 
BRANCH  20  21
HETATM   21  C   UNL     1     -41.383 -51.142  11.807  1.00  0.00     0.170 C 
BRANCH  21  22
HETATM   22  O   UNL     1     -41.194 -52.430  11.241  1.00  0.00    -0.400 OA
HETATM   23  H   UNL     1     -40.244 -52.491  11.027  1.00  0.00     0.209 HD
ENDBRANCH  21  22
ENDBRANCH  20  21
ENDBRANCH   4  15
TORSDOF 4
ENDMDL
MODEL 7
REMARK VINA RESULT:      -5.2      2.514      6.628
REMARK  4 active torsions:
REMARK  status: ('A' for Active; 'I' for Inactive)
REMARK    1  A    between atoms: C_8  and  N_9 
REMARK       I    between atoms: N_9  and  C_10 
REMARK       I    between atoms: C_10  and  N_12 
REMARK    2  A    between atoms: N_12  and  C_13 
REMARK    3  A    between atoms: C_18  and  C_19 
REMARK    4  A    between atoms: C_19  and  O_20 
ROOT
HETATM    1  N   UNL     1     -41.698 -51.084  14.438  1.00  0.00    -0.308 N 
HETATM    2  C   UNL     1     -42.745 -51.409  13.595  1.00  0.00     0.321 C 
HETATM    3  O   UNL     1     -42.716 -51.392  12.371  1.00  0.00    -0.247 OA
HETATM    4  N   UNL     1     -43.873 -51.828  14.275  1.00  0.00    -0.338 N 
HETATM    5  H   UNL     1     -41.923 -50.931  15.409  1.00  0.00     0.170 HD
HETATM    6  H   UNL     1     -43.985 -51.494  15.221  1.00  0.00     0.164 HD
ENDROOT
BRANCH   1   7
HETATM    7  C   UNL     1     -40.373 -50.771  14.017  1.00  0.00     0.044 A 
HETATM    8  C   UNL     1     -39.402 -51.780  13.897  1.00  0.00    -0.020 A 
HETATM    9  C   UNL     1     -39.648 -53.227  14.200  1.00  0.00     0.052 C 
HETATM   10  C   UNL     1     -38.123 -51.396  13.488  1.00  0.00     0.096 A 
HETATM   11  N   UNL     1     -37.752 -50.133  13.193  1.00  0.00    -0.375 N 
HETATM   12  C   UNL     1     -38.706 -49.193  13.301  1.00  0.00     0.090 A 
ATOM     13  HN  UNL     1     -36.801 -49.904  12.904  1.00  0.00     0.164 HD
HETATM   14  C   UNL     1     -40.005 -49.461  13.694  1.00  0.00     0.047 A 
ENDBRANCH   1   7
BRANCH   4  15
HETATM   15  C   UNL     1     -45.106 -52.140  13.529  1.00  0.00     0.092 C 
HETATM   16  C   UNL     1     -46.230 -51.153  13.889  1.00  0.00     0.026 C 
HETATM   17  C   UNL     1     -46.768 -51.367  15.303  1.00  0.00     0.002 C 
HETATM   18  C   UNL     1     -47.169 -52.818  15.561  1.00  0.00     0.001 C 
HETATM   19  C   UNL     1     -46.063 -53.804  15.188  1.00  0.00     0.009 C 
HETATM   20  C   UNL     1     -45.604 -53.588  13.739  1.00  0.00     0.032 C 
BRANCH  20  21
HETATM   21  C   UNL     1     -44.591 -54.646  13.290  1.00  0.00     0.170 C 
BRANCH  21  22
HETATM   22  O   UNL     1     -43.909 -54.258  12.107  1.00  0.00    -0.400 OA
HETATM   23  H   UNL     1     -44.228 -53.360  11.897  1.00  0.00     0.209 HD
ENDBRANCH  21  22
ENDBRANCH  20  21
ENDBRANCH   4  15
TORSDOF 4
ENDMDL
MODEL 8
REMARK VINA RESULT:      -5.0      4.739      6.986
REMARK  4 active torsions:
REMARK  status: ('A' for Active; 'I' for Inactive)
REMARK    1  A    between atoms: C_8  and  N_9 
REMARK       I    between atoms: N_9  and  C_10 
REMARK       I    between atoms: C_10  and  N_12 
REMARK    2  A    between atoms: N_12  and  C_13 
REMARK    3  A    between atoms: C_18  and  C_19 
REMARK    4  A    between atoms: C_19  and  O_20 
ROOT
HETATM    1  N   UNL     1     -41.532 -53.836  15.560  1.00  0.00    -0.308 N 
HETATM    2  C   UNL     1     -42.780 -54.405  15.384  1.00  0.00     0.321 C 
HETATM    3  O   UNL     1     -43.072 -55.576  15.590  1.00  0.00    -0.247 OA
HETATM    4  N   UNL     1     -43.738 -53.492  14.987  1.00  0.00    -0.338 N 
HETATM    5  H   UNL     1     -41.382 -52.927  15.150  1.00  0.00     0.170 HD
HETATM    6  H   UNL     1     -43.410 -52.673  14.495  1.00  0.00     0.164 HD
ENDROOT
BRANCH   1   7
HETATM    7  C   UNL     1     -40.398 -54.500  16.110  1.00  0.00     0.044 A 
HETATM    8  C   UNL     1     -40.258 -54.645  17.501  1.00  0.00    -0.020 A 
HETATM    9  C   UNL     1     -41.242 -54.128  18.507  1.00  0.00     0.052 C 
HETATM   10  C   UNL     1     -39.115 -55.300  17.968  1.00  0.00     0.096 A 
HETATM   11  N   UNL     1     -38.141 -55.807  17.184  1.00  0.00    -0.375 N 
HETATM   12  C   UNL     1     -38.311 -55.667  15.858  1.00  0.00     0.090 A 
ATOM     13  HN  UNL     1     -37.321 -56.271  17.575  1.00  0.00     0.164 HD
HETATM   14  C   UNL     1     -39.404 -55.040  15.288  1.00  0.00     0.047 A 
ENDBRANCH   1   7
BRANCH   4  15
HETATM   15  C   UNL     1     -45.106 -53.948  14.681  1.00  0.00     0.092 C 
HETATM   16  C   UNL     1     -45.403 -53.822  13.176  1.00  0.00     0.026 C 
HETATM   17  C   UNL     1     -45.551 -52.369  12.728  1.00  0.00     0.002 C 
HETATM   18  C   UNL     1     -46.552 -51.594  13.581  1.00  0.00     0.001 C 
HETATM   19  C   UNL     1     -46.273 -51.731  15.077  1.00  0.00     0.009 C 
HETATM   20  C   UNL     1     -46.198 -53.209  15.487  1.00  0.00     0.032 C 
BRANCH  20  21
HETATM   21  C   UNL     1     -46.052 -53.383  17.002  1.00  0.00     0.170 C 
BRANCH  21  22
HETATM   22  O   UNL     1     -45.529 -54.658  17.340  1.00  0.00    -0.400 OA
HETATM   23  H   UNL     1     -46.298 -55.256  17.397  1.00  0.00     0.209 HD
ENDBRANCH  21  22
ENDBRANCH  20  21
ENDBRANCH   4  15
TORSDOF 4
ENDMDL
MODEL 9
REMARK VINA RESULT:      -5.0     15.254     15.798
REMARK  4 active torsions:
REMARK  status: ('A' for Active; 'I' for Inactive)
REMARK    1  A    between atoms: C_8  and  N_9 
REMARK       I    between atoms: N_9  and  C_10 
REMARK       I    between atoms: C_10  and  N_12 
REMARK    2  A    between atoms: N_12  and  C_13 
REMARK    3  A    between atoms: C_18  and  C_19 
REMARK    4  A    between atoms: C_19  and  O_20 
ROOT
HETATM    1  N   UNL     1     -51.633 -51.974  -1.554  1.00  0.00    -0.308 N 
HETATM    2  C   UNL     1     -50.628 -51.669  -0.654  1.00  0.00     0.321 C 
HETATM    3  O   UNL     1     -49.749 -52.431  -0.272  1.00  0.00    -0.247 OA
HETATM    4  N   UNL     1     -50.663 -50.354  -0.234  1.00  0.00    -0.338 N 
HETATM    5  H   UNL     1     -52.407 -51.331  -1.610  1.00  0.00     0.170 HD
HETATM    6  H   UNL     1     -51.558 -49.888  -0.269  1.00  0.00     0.164 HD
ENDROOT
BRANCH   1   7
HETATM    7  C   UNL     1     -51.750 -53.202  -2.268  1.00  0.00     0.044 A 
HETATM    8  C   UNL     1     -52.495 -54.270  -1.738  1.00  0.00    -0.020 A 
HETATM    9  C   UNL     1     -53.202 -54.231  -0.417  1.00  0.00     0.052 C 
HETATM   10  C   UNL     1     -52.558 -55.446  -2.490  1.00  0.00     0.096 A 
HETATM   11  N   UNL     1     -51.964 -55.630  -3.687  1.00  0.00    -0.375 N 
HETATM   12  C   UNL     1     -51.273 -54.586  -4.175  1.00  0.00     0.090 A 
ATOM     13  HN  UNL     1     -52.035 -56.512  -4.194  1.00  0.00     0.164 HD
HETATM   14  C   UNL     1     -51.148 -53.376  -3.518  1.00  0.00     0.047 A 
ENDBRANCH   1   7
BRANCH   4  15
HETATM   15  C   UNL     1     -49.707 -49.883   0.786  1.00  0.00     0.092 C 
HETATM   16  C   UNL     1     -50.445 -49.241   1.974  1.00  0.00     0.026 C 
HETATM   17  C   UNL     1     -51.068 -47.892   1.618  1.00  0.00     0.002 C 
HETATM   18  C   UNL     1     -50.064 -46.936   0.976  1.00  0.00     0.001 C 
HETATM   19  C   UNL     1     -49.315 -47.575  -0.193  1.00  0.00     0.009 C 
HETATM   20  C   UNL     1     -48.655 -48.894   0.235  1.00  0.00     0.032 C 
BRANCH  20  21
HETATM   21  C   UNL     1     -47.786 -49.493  -0.875  1.00  0.00     0.170 C 
BRANCH  21  22
HETATM   22  O   UNL     1     -47.342 -50.802  -0.552  1.00  0.00    -0.400 OA
HETATM   23  H   UNL     1     -46.464 -50.692  -0.141  1.00  0.00     0.209 HD
ENDBRANCH  21  22
ENDBRANCH  20  21
ENDBRANCH   4  15
TORSDOF 4
ENDMDL
