MODEL 1
REMARK VINA RESULT:      -5.3      0.000      0.000
REMARK  1 active torsions:
REMARK  status: ('A' for Active; 'I' for Inactive)
REMARK    1  A    between atoms: C_2  and  C_9 
ROOT
HETATM    1  C   UNL     1     -41.325 -48.643  11.018  1.00  0.00     0.056 C 
HETATM    2  C   UNL     1     -41.984 -47.316  10.665  1.00  0.00     0.156 C 
HETATM    3  N   UNL     1     -41.036 -46.415  10.025  1.00  0.00    -0.320 N 
HETATM    4  C   UNL     1     -41.030 -45.174  10.613  1.00  0.00     0.324 C 
HETATM    5  O   UNL     1     -40.492 -44.181  10.159  1.00  0.00    -0.247 OA
HETATM    6  N   UNL     1     -41.731 -45.241  11.766  1.00  0.00    -0.277 N 
HETATM    7  C   UNL     1     -42.285 -46.474  11.917  1.00  0.00     0.260 C 
HETATM    8  O   UNL     1     -42.952 -46.819  12.883  1.00  0.00    -0.270 OA
HETATM    9  H   UNL     1     -40.787 -46.503   9.047  1.00  0.00     0.166 HD
HETATM   10  H   UNL     1     -41.848 -44.470  12.401  1.00  0.00     0.173 HD
ENDROOT
BRANCH   2  11
HETATM   11  C   UNL     1     -43.206 -47.526   9.786  1.00  0.00     0.062 A 
HETATM   12  C   UNL     1     -43.107 -47.787   8.419  1.00  0.00     0.115 A 
HETATM   13  N   UNL     1     -44.188 -47.961   7.621  1.00  0.00    -0.372 N 
HETATM   14  C   UNL     1     -45.387 -47.850   8.231  1.00  0.00     0.104 A 
ATOM     15  HN  UNL     1     -44.102 -48.162   6.625  1.00  0.00     0.164 HD
HETATM   16  C   UNL     1     -45.504 -47.575   9.580  1.00  0.00     0.105 A 
HETATM   17  N   UNL     1     -44.431 -47.402  10.382  1.00  0.00    -0.364 N 
ATOM     18  HN  UNL     1     -44.529 -47.191  11.375  1.00  0.00     0.165 HD
ENDBRANCH   2  11
TORSDOF 1
ENDMDL
MODEL 2
REMARK VINA RESULT:      -5.3      1.782      2.136
REMARK  1 active torsions:
REMARK  status: ('A' for Active; 'I' for Inactive)
REMARK    1  A    between atoms: C_2  and  C_9 
ROOT
HETATM    1  C   UNL     1     -41.057 -46.574  12.357  1.00  0.00     0.056 C 
HETATM    2  C   UNL     1     -41.132 -45.849  11.018  1.00  0.00     0.156 C 
HETATM    3  N   UNL     1     -39.891 -45.998  10.273  1.00  0.00    -0.320 N 
HETATM    4  C   UNL     1     -39.411 -44.791   9.827  1.00  0.00     0.324 C 
HETATM    5  O   UNL     1     -38.516 -44.644   9.017  1.00  0.00    -0.247 OA
HETATM    6  N   UNL     1     -40.110 -43.802  10.428  1.00  0.00    -0.277 N 
HETATM    7  C   UNL     1     -41.107 -44.320  11.194  1.00  0.00     0.260 C 
HETATM    8  O   UNL     1     -41.880 -43.652  11.868  1.00  0.00    -0.270 OA
HETATM    9  H   UNL     1     -39.673 -46.841   9.755  1.00  0.00     0.166 HD
HETATM   10  H   UNL     1     -39.930 -42.822  10.294  1.00  0.00     0.173 HD
ENDROOT
BRANCH   2  11
HETATM   11  C   UNL     1     -42.317 -46.331  10.198  1.00  0.00     0.062 A 
HETATM   12  C   UNL     1     -42.434 -47.651   9.761  1.00  0.00     0.115 A 
HETATM   13  N   UNL     1     -43.477 -48.091   9.015  1.00  0.00    -0.372 N 
HETATM   14  C   UNL     1     -44.403 -47.161   8.701  1.00  0.00     0.104 A 
ATOM     15  HN  UNL     1     -43.557 -49.061   8.712  1.00  0.00     0.164 HD
HETATM   16  C   UNL     1     -44.293 -45.845   9.110  1.00  0.00     0.105 A 
HETATM   17  N   UNL     1     -43.258 -45.400   9.855  1.00  0.00    -0.364 N 
ATOM     18  HN  UNL     1     -43.183 -44.425  10.145  1.00  0.00     0.165 HD
ENDBRANCH   2  11
TORSDOF 1
ENDMDL
MODEL 3
REMARK VINA RESULT:      -5.3      2.575      4.037
REMARK  1 active torsions:
REMARK  status: ('A' for Active; 'I' for Inactive)
REMARK    1  A    between atoms: C_2  and  C_9 
ROOT
HETATM    1  C   UNL     1     -40.607 -46.913  11.013  1.00  0.00     0.056 C 
HETATM    2  C   UNL     1     -41.830 -47.809  10.862  1.00  0.00     0.156 C 
HETATM    3  N   UNL     1     -42.267 -47.866   9.474  1.00  0.00    -0.320 N 
HETATM    4  C   UNL     1     -43.611 -47.614   9.348  1.00  0.00     0.324 C 
HETATM    5  O   UNL     1     -44.271 -47.796   8.343  1.00  0.00    -0.247 OA
HETATM    6  N   UNL     1     -44.073 -47.145  10.529  1.00  0.00    -0.277 N 
HETATM    7  C   UNL     1     -43.090 -47.167  11.468  1.00  0.00     0.260 C 
HETATM    8  O   UNL     1     -43.224 -46.776  12.620  1.00  0.00    -0.270 OA
HETATM    9  H   UNL     1     -41.805 -48.453   8.789  1.00  0.00     0.166 HD
HETATM   10  H   UNL     1     -45.022 -46.854  10.688  1.00  0.00     0.173 HD
ENDROOT
BRANCH   2  11
HETATM   11  C   UNL     1     -41.559 -49.204  11.401  1.00  0.00     0.062 A 
HETATM   12  C   UNL     1     -40.360 -49.876  11.163  1.00  0.00     0.115 A 
HETATM   13  N   UNL     1     -40.111 -51.126  11.624  1.00  0.00    -0.372 N 
HETATM   14  C   UNL     1     -41.112 -51.699  12.325  1.00  0.00     0.104 A 
ATOM     15  HN  UNL     1     -39.226 -51.603  11.453  1.00  0.00     0.164 HD
HETATM   16  C   UNL     1     -42.312 -51.055  12.555  1.00  0.00     0.105 A 
HETATM   17  N   UNL     1     -42.567 -49.809  12.100  1.00  0.00    -0.364 N 
ATOM     18  HN  UNL     1     -43.460 -49.345  12.268  1.00  0.00     0.165 HD
ENDBRANCH   2  11
TORSDOF 1
ENDMDL
MODEL 4
REMARK VINA RESULT:      -5.2      1.756      2.802
REMARK  1 active torsions:
REMARK  status: ('A' for Active; 'I' for Inactive)
REMARK    1  A    between atoms: C_2  and  C_9 
ROOT
HETATM    1  C   UNL     1     -42.378 -45.336  12.270  1.00  0.00     0.056 C 
HETATM    2  C   UNL     1     -41.789 -46.319  11.265  1.00  0.00     0.156 C 
HETATM    3  N   UNL     1     -41.151 -47.439  11.942  1.00  0.00    -0.320 N 
HETATM    4  C   UNL     1     -39.878 -47.663  11.478  1.00  0.00     0.324 C 
HETATM    5  O   UNL     1     -39.203 -48.646  11.718  1.00  0.00    -0.247 OA
HETATM    6  N   UNL     1     -39.513 -46.617  10.705  1.00  0.00    -0.277 N 
HETATM    7  C   UNL     1     -40.546 -45.743  10.564  1.00  0.00     0.260 C 
HETATM    8  O   UNL     1     -40.486 -44.696   9.934  1.00  0.00    -0.270 OA
HETATM    9  H   UNL     1     -41.686 -48.213  12.320  1.00  0.00     0.166 HD
HETATM   10  H   UNL     1     -38.611 -46.523  10.271  1.00  0.00     0.173 HD
ENDROOT
BRANCH   2  11
HETATM   11  C   UNL     1     -42.846 -46.807  10.289  1.00  0.00     0.062 A 
HETATM   12  C   UNL     1     -43.985 -47.496  10.706  1.00  0.00     0.115 A 
HETATM   13  N   UNL     1     -44.928 -47.951   9.845  1.00  0.00    -0.372 N 
HETATM   14  C   UNL     1     -44.691 -47.710   8.539  1.00  0.00     0.104 A 
ATOM     15  HN  UNL     1     -45.762 -48.444  10.164  1.00  0.00     0.164 HD
HETATM   16  C   UNL     1     -43.559 -47.045   8.107  1.00  0.00     0.105 A 
HETATM   17  N   UNL     1     -42.616 -46.587   8.959  1.00  0.00    -0.364 N 
ATOM     18  HN  UNL     1     -41.780 -46.104   8.629  1.00  0.00     0.165 HD
ENDBRANCH   2  11
TORSDOF 1
ENDMDL
MODEL 5
REMARK VINA RESULT:      -5.1      6.507      7.845
REMARK  1 active torsions:
REMARK  status: ('A' for Active; 'I' for Inactive)
REMARK    1  A    between atoms: C_2  and  C_9 
ROOT
HETATM    1  C   UNL     1     -44.380 -50.834  14.806  1.00  0.00     0.056 C 
HETATM    2  C   UNL     1     -44.607 -51.987  13.836  1.00  0.00     0.156 C 
HETATM    3  N   UNL     1     -45.272 -51.528  12.625  1.00  0.00    -0.320 N 
HETATM    4  C   UNL     1     -46.367 -52.298  12.316  1.00  0.00     0.324 C 
HETATM    5  O   UNL     1     -46.977 -52.266  11.264  1.00  0.00    -0.247 OA
HETATM    6  N   UNL     1     -46.639 -53.099  13.369  1.00  0.00    -0.277 N 
HETATM    7  C   UNL     1     -45.697 -52.952  14.339  1.00  0.00     0.260 C 
HETATM    8  O   UNL     1     -45.709 -53.540  15.411  1.00  0.00    -0.270 OA
HETATM    9  H   UNL     1     -44.770 -51.058  11.881  1.00  0.00     0.166 HD
HETATM   10  H   UNL     1     -47.415 -53.738  13.407  1.00  0.00     0.173 HD
ENDROOT
BRANCH   2  11
HETATM   11  C   UNL     1     -43.303 -52.691  13.502  1.00  0.00     0.062 A 
HETATM   12  C   UNL     1     -42.593 -52.431  12.329  1.00  0.00     0.115 A 
HETATM   13  N   UNL     1     -41.436 -53.062  12.012  1.00  0.00    -0.372 N 
HETATM   14  C   UNL     1     -41.011 -53.983  12.902  1.00  0.00     0.104 A 
ATOM     15  HN  UNL     1     -40.921 -52.855  11.157  1.00  0.00     0.164 HD
HETATM   16  C   UNL     1     -41.711 -54.266  14.060  1.00  0.00     0.105 A 
HETATM   17  N   UNL     1     -42.863 -53.640  14.384  1.00  0.00    -0.364 N 
ATOM     18  HN  UNL     1     -43.376 -53.863  15.237  1.00  0.00     0.165 HD
ENDBRANCH   2  11
TORSDOF 1
ENDMDL
MODEL 6
REMARK VINA RESULT:      -5.0      2.089      4.495
REMARK  1 active torsions:
REMARK  status: ('A' for Active; 'I' for Inactive)
REMARK    1  A    between atoms: C_2  and  C_9 
ROOT
HETATM    1  C   UNL     1     -42.952 -47.342  12.592  1.00  0.00     0.056 C 
HETATM    2  C   UNL     1     -42.574 -46.938  11.172  1.00  0.00     0.156 C 
HETATM    3  N   UNL     1     -43.757 -46.799  10.335  1.00  0.00    -0.320 N 
HETATM    4  C   UNL     1     -43.639 -47.495   9.158  1.00  0.00     0.324 C 
HETATM    5  O   UNL     1     -44.381 -47.390   8.199  1.00  0.00    -0.247 OA
HETATM    6  N   UNL     1     -42.557 -48.300   9.241  1.00  0.00    -0.277 N 
HETATM    7  C   UNL     1     -41.895 -48.091  10.410  1.00  0.00     0.260 C 
HETATM    8  O   UNL     1     -40.892 -48.701  10.757  1.00  0.00    -0.270 OA
HETATM    9  H   UNL     1     -44.344 -45.974  10.368  1.00  0.00     0.166 HD
HETATM   10  H   UNL     1     -42.271 -48.939   8.519  1.00  0.00     0.173 HD
ENDROOT
BRANCH   2  11
HETATM   11  C   UNL     1     -41.753 -45.659  11.164  1.00  0.00     0.062 A 
HETATM   12  C   UNL     1     -42.173 -44.499  11.814  1.00  0.00     0.115 A 
HETATM   13  N   UNL     1     -41.459 -43.347  11.802  1.00  0.00    -0.372 N 
HETATM   14  C   UNL     1     -40.307 -43.382  11.101  1.00  0.00     0.104 A 
ATOM     15  HN  UNL     1     -41.772 -42.509  12.291  1.00  0.00     0.164 HD
HETATM   16  C   UNL     1     -39.884 -44.518  10.436  1.00  0.00     0.105 A 
HETATM   17  N   UNL     1     -40.589 -45.670  10.445  1.00  0.00    -0.364 N 
ATOM     18  HN  UNL     1     -40.272 -46.500   9.944  1.00  0.00     0.165 HD
ENDBRANCH   2  11
TORSDOF 1
ENDMDL
MODEL 7
REMARK VINA RESULT:      -4.7      4.479      6.189
REMARK  1 active torsions:
REMARK  status: ('A' for Active; 'I' for Inactive)
REMARK    1  A    between atoms: C_2  and  C_9 
ROOT
HETATM    1  C   UNL     1     -41.558 -51.227  14.537  1.00  0.00     0.056 C 
HETATM    2  C   UNL     1     -42.143 -51.541  13.166  1.00  0.00     0.156 C 
HETATM    3  N   UNL     1     -43.549 -51.908  13.268  1.00  0.00    -0.320 N 
HETATM    4  C   UNL     1     -43.823 -53.080  12.607  1.00  0.00     0.324 C 
HETATM    5  O   UNL     1     -44.936 -53.505  12.360  1.00  0.00    -0.247 OA
HETATM    6  N   UNL     1     -42.654 -53.667  12.268  1.00  0.00    -0.277 N 
HETATM    7  C   UNL     1     -41.605 -52.870  12.604  1.00  0.00     0.260 C 
HETATM    8  O   UNL     1     -40.430 -53.164  12.433  1.00  0.00    -0.270 OA
HETATM    9  H   UNL     1     -44.279 -51.213  13.373  1.00  0.00     0.166 HD
HETATM   10  H   UNL     1     -42.583 -54.555  11.803  1.00  0.00     0.173 HD
ENDROOT
BRANCH   2  11
HETATM   11  C   UNL     1     -41.957 -50.376  12.209  1.00  0.00     0.062 A 
HETATM   12  C   UNL     1     -40.812 -50.230  11.424  1.00  0.00     0.115 A 
HETATM   13  N   UNL     1     -40.626 -49.188  10.578  1.00  0.00    -0.372 N 
HETATM   14  C   UNL     1     -41.620 -48.276  10.548  1.00  0.00     0.104 A 
ATOM     15  HN  UNL     1     -39.789 -49.098  10.002  1.00  0.00     0.164 HD
HETATM   16  C   UNL     1     -42.752 -48.396  11.331  1.00  0.00     0.105 A 
HETATM   17  N   UNL     1     -42.946 -49.432  12.175  1.00  0.00    -0.364 N 
ATOM     18  HN  UNL     1     -43.782 -49.506  12.755  1.00  0.00     0.165 HD
ENDBRANCH   2  11
TORSDOF 1
ENDMDL
MODEL 8
REMARK VINA RESULT:      -4.7      6.533      8.171
REMARK  1 active torsions:
REMARK  status: ('A' for Active; 'I' for Inactive)
REMARK    1  A    between atoms: C_2  and  C_9 
ROOT
HETATM    1  C   UNL     1     -43.879 -54.275  15.761  1.00  0.00     0.056 C 
HETATM    2  C   UNL     1     -44.362 -53.489  14.548  1.00  0.00     0.156 C 
HETATM    3  N   UNL     1     -45.071 -52.284  14.954  1.00  0.00    -0.320 N 
HETATM    4  C   UNL     1     -46.289 -52.169  14.330  1.00  0.00     0.324 C 
HETATM    5  O   UNL     1     -46.989 -51.174  14.328  1.00  0.00    -0.247 OA
HETATM    6  N   UNL     1     -46.568 -53.338  13.712  1.00  0.00    -0.277 N 
HETATM    7  C   UNL     1     -45.523 -54.201  13.830  1.00  0.00     0.260 C 
HETATM    8  O   UNL     1     -45.513 -55.341  13.384  1.00  0.00    -0.270 OA
HETATM    9  H   UNL     1     -44.582 -51.447  15.248  1.00  0.00     0.166 HD
HETATM   10  H   UNL     1     -47.419 -53.522  13.210  1.00  0.00     0.173 HD
ENDROOT
BRANCH   2  11
HETATM   11  C   UNL     1     -43.210 -53.151  13.617  1.00  0.00     0.062 A 
HETATM   12  C   UNL     1     -42.245 -54.090  13.251  1.00  0.00     0.115 A 
HETATM   13  N   UNL     1     -41.204 -53.798  12.435  1.00  0.00    -0.372 N 
HETATM   14  C   UNL     1     -41.143 -52.522  12.001  1.00  0.00     0.104 A 
ATOM     15  HN  UNL     1     -40.511 -54.497  12.166  1.00  0.00     0.164 HD
HETATM   16  C   UNL     1     -42.079 -51.574  12.368  1.00  0.00     0.105 A 
HETATM   17  N   UNL     1     -43.121 -51.858  13.179  1.00  0.00    -0.364 N 
ATOM     18  HN  UNL     1     -43.802 -51.149  13.450  1.00  0.00     0.165 HD
ENDBRANCH   2  11
TORSDOF 1
ENDMDL
MODEL 9
REMARK VINA RESULT:      -4.6      2.580      4.841
REMARK  1 active torsions:
REMARK  status: ('A' for Active; 'I' for Inactive)
REMARK    1  A    between atoms: C_2  and  C_9 
ROOT
HETATM    1  C   UNL     1     -42.023 -47.040  13.093  1.00  0.00     0.056 C 
HETATM    2  C   UNL     1     -40.980 -46.957  11.985  1.00  0.00     0.156 C 
HETATM    3  N   UNL     1     -40.488 -45.596  11.831  1.00  0.00    -0.320 N 
HETATM    4  C   UNL     1     -40.533 -45.177  10.524  1.00  0.00     0.324 C 
HETATM    5  O   UNL     1     -40.001 -44.175  10.086  1.00  0.00    -0.247 OA
HETATM    6  N   UNL     1     -41.253 -46.071   9.811  1.00  0.00    -0.277 N 
HETATM    7  C   UNL     1     -41.611 -47.126  10.591  1.00  0.00     0.260 C 
HETATM    8  O   UNL     1     -42.287 -48.072  10.209  1.00  0.00    -0.270 OA
HETATM    9  H   UNL     1     -39.794 -45.202  12.456  1.00  0.00     0.166 HD
HETATM   10  H   UNL     1     -41.461 -45.976   8.832  1.00  0.00     0.173 HD
ENDROOT
BRANCH   2  11
HETATM   11  C   UNL     1     -39.833 -47.922  12.236  1.00  0.00     0.062 A 
HETATM   12  C   UNL     1     -38.991 -47.807  13.342  1.00  0.00     0.115 A 
HETATM   13  N   UNL     1     -37.955 -48.651  13.570  1.00  0.00    -0.372 N 
HETATM   14  C   UNL     1     -37.772 -49.614  12.643  1.00  0.00     0.104 A 
ATOM     15  HN  UNL     1     -37.353 -48.564  14.389  1.00  0.00     0.164 HD
HETATM   16  C   UNL     1     -38.586 -49.731  11.533  1.00  0.00     0.105 A 
HETATM   17  N   UNL     1     -39.621 -48.896  11.300  1.00  0.00    -0.364 N 
ATOM     18  HN  UNL     1     -40.211 -48.986  10.472  1.00  0.00     0.165 HD
ENDBRANCH   2  11
TORSDOF 1
ENDMDL
