MODEL 1
REMARK VINA RESULT:      -5.5      0.000      0.000
REMARK  2 active torsions:
REMARK  status: ('A' for Active; 'I' for Inactive)
REMARK    1  A    between atoms: C_10  and  N_11 
REMARK    2  A    between atoms: N_11  and  C_12 
ROOT
HETATM    1  N   UNL     1     -40.054 -54.208  13.244  1.00  0.00    -0.190 NA
HETATM    2  C   UNL     1     -40.441 -53.160  12.909  1.00  0.00     0.121 C 
HETATM    3  C   UNL     1     -40.838 -51.865  12.446  1.00  0.00     0.158 A 
HETATM    4  N   UNL     1     -39.752 -51.122  12.024  1.00  0.00    -0.353 N 
ATOM      5  HN  UNL     1     -38.799 -51.479  12.091  1.00  0.00     0.166 HD
HETATM    6  C   UNL     1     -40.020 -49.906  11.521  1.00  0.00     0.106 A 
HETATM    7  C   UNL     1     -41.303 -49.428  11.437  1.00  0.00     0.106 A 
HETATM    8  N   UNL     1     -42.360 -50.148  11.866  1.00  0.00    -0.349 N 
ATOM      9  HN  UNL     1     -43.305 -49.768  11.800  1.00  0.00     0.167 HD
HETATM   10  C   UNL     1     -42.149 -51.387  12.388  1.00  0.00     0.139 A 
ENDROOT
BRANCH  10  11
HETATM   11  N   UNL     1     -43.350 -51.895  12.707  1.00  0.00    -0.367 N 
HETATM   12  H   UNL     1     -43.515 -51.540  13.652  1.00  0.00     0.161 HD
BRANCH  11  13
HETATM   13  C   UNL     1     -44.384 -52.835  12.315  1.00  0.00     0.114 C 
HETATM   14  C   UNL     1     -45.800 -52.584  12.826  1.00  0.00     0.059 C 
HETATM   15  C   UNL     1     -45.952 -53.641  13.909  1.00  0.00     0.124 C 
HETATM   16  C   UNL     1     -44.926 -53.418  15.031  1.00  0.00     0.034 C 
HETATM   17  O   UNL     1     -45.419 -54.780  13.196  1.00  0.00    -0.378 OA
HETATM   18  C   UNL     1     -43.679 -54.086  14.450  1.00  0.00     0.036 C 
HETATM   19  C   UNL     1     -44.094 -54.231  12.983  1.00  0.00     0.144 C 
ENDBRANCH  11  13
ENDBRANCH  10  11
TORSDOF 2
ENDMDL
MODEL 2
REMARK VINA RESULT:      -5.3      4.481      6.328
REMARK  2 active torsions:
REMARK  status: ('A' for Active; 'I' for Inactive)
REMARK    1  A    between atoms: C_10  and  N_11 
REMARK    2  A    between atoms: N_11  and  C_12 
ROOT
HETATM    1  N   UNL     1     -41.809 -45.353  12.808  1.00  0.00    -0.190 NA
HETATM    2  C   UNL     1     -42.160 -45.910  11.845  1.00  0.00     0.121 C 
HETATM    3  C   UNL     1     -42.612 -46.510  10.627  1.00  0.00     0.158 A 
HETATM    4  N   UNL     1     -43.491 -45.686   9.951  1.00  0.00    -0.353 N 
ATOM      5  HN  UNL     1     -43.785 -44.786  10.332  1.00  0.00     0.166 HD
HETATM    6  C   UNL     1     -43.939 -46.132   8.766  1.00  0.00     0.106 A 
HETATM    7  C   UNL     1     -43.544 -47.345   8.259  1.00  0.00     0.106 A 
HETATM    8  N   UNL     1     -42.700 -48.156   8.928  1.00  0.00    -0.349 N 
ATOM      9  HN  UNL     1     -42.427 -49.057   8.534  1.00  0.00     0.167 HD
HETATM   10  C   UNL     1     -42.217 -47.756  10.136  1.00  0.00     0.139 A 
ENDROOT
BRANCH  10  11
HETATM   11  N   UNL     1     -41.388 -48.717  10.571  1.00  0.00    -0.367 N 
HETATM   12  H   UNL     1     -40.679 -48.772   9.836  1.00  0.00     0.161 HD
BRANCH  11  13
HETATM   13  C   UNL     1     -41.200 -49.769  11.555  1.00  0.00     0.114 C 
HETATM   14  C   UNL     1     -41.560 -49.455  13.005  1.00  0.00     0.059 C 
HETATM   15  C   UNL     1     -40.195 -49.292  13.656  1.00  0.00     0.124 C 
HETATM   16  C   UNL     1     -39.430 -48.120  13.024  1.00  0.00     0.034 C 
HETATM   17  O   UNL     1     -39.536 -50.454  13.102  1.00  0.00    -0.378 OA
HETATM   18  C   UNL     1     -38.838 -48.771  11.773  1.00  0.00     0.036 C 
HETATM   19  C   UNL     1     -39.661 -50.062  11.712  1.00  0.00     0.144 C 
ENDBRANCH  11  13
ENDBRANCH  10  11
TORSDOF 2
ENDMDL
MODEL 3
REMARK VINA RESULT:      -5.2      2.102      3.028
REMARK  2 active torsions:
REMARK  status: ('A' for Active; 'I' for Inactive)
REMARK    1  A    between atoms: C_10  and  N_11 
REMARK    2  A    between atoms: N_11  and  C_12 
ROOT
HETATM    1  N   UNL     1     -42.833 -55.867  15.851  1.00  0.00    -0.190 NA
HETATM    2  C   UNL     1     -42.721 -55.091  14.988  1.00  0.00     0.121 C 
HETATM    3  C   UNL     1     -42.500 -54.175  13.909  1.00  0.00     0.158 A 
HETATM    4  N   UNL     1     -41.154 -54.028  13.637  1.00  0.00    -0.353 N 
ATOM      5  HN  UNL     1     -40.439 -54.501  14.190  1.00  0.00     0.166 HD
HETATM    6  C   UNL     1     -40.837 -53.227  12.606  1.00  0.00     0.106 A 
HETATM    7  C   UNL     1     -41.801 -52.589  11.868  1.00  0.00     0.106 A 
HETATM    8  N   UNL     1     -43.114 -52.720  12.147  1.00  0.00    -0.349 N 
ATOM      9  HN  UNL     1     -43.813 -52.229  11.588  1.00  0.00     0.167 HD
HETATM   10  C   UNL     1     -43.495 -53.517  13.182  1.00  0.00     0.139 A 
ENDROOT
BRANCH  10  11
HETATM   11  N   UNL     1     -44.836 -53.499  13.228  1.00  0.00    -0.367 N 
HETATM   12  H   UNL     1     -45.101 -54.380  12.782  1.00  0.00     0.161 HD
BRANCH  11  13
HETATM   13  C   UNL     1     -46.004 -52.684  13.507  1.00  0.00     0.114 C 
HETATM   14  C   UNL     1     -45.777 -51.315  14.144  1.00  0.00     0.059 C 
HETATM   15  C   UNL     1     -46.214 -51.544  15.583  1.00  0.00     0.124 C 
HETATM   16  C   UNL     1     -45.330 -52.605  16.255  1.00  0.00     0.034 C 
HETATM   17  O   UNL     1     -47.451 -52.252  15.338  1.00  0.00    -0.378 OA
HETATM   18  C   UNL     1     -45.979 -53.903  15.773  1.00  0.00     0.036 C 
HETATM   19  C   UNL     1     -46.858 -53.373  14.636  1.00  0.00     0.144 C 
ENDBRANCH  11  13
ENDBRANCH  10  11
TORSDOF 2
ENDMDL
MODEL 4
REMARK VINA RESULT:      -5.1      5.998      8.296
REMARK  2 active torsions:
REMARK  status: ('A' for Active; 'I' for Inactive)
REMARK    1  A    between atoms: C_10  and  N_11 
REMARK    2  A    between atoms: N_11  and  C_12 
ROOT
HETATM    1  N   UNL     1     -40.512 -48.873  11.428  1.00  0.00    -0.190 NA
HETATM    2  C   UNL     1     -41.289 -48.194  10.884  1.00  0.00     0.121 C 
HETATM    3  C   UNL     1     -42.276 -47.437  10.175  1.00  0.00     0.158 A 
HETATM    4  N   UNL     1     -42.712 -48.104   9.046  1.00  0.00    -0.353 N 
ATOM      5  HN  UNL     1     -42.321 -49.004   8.769  1.00  0.00     0.166 HD
HETATM    6  C   UNL     1     -43.679 -47.502   8.333  1.00  0.00     0.106 A 
HETATM    7  C   UNL     1     -44.200 -46.289   8.707  1.00  0.00     0.106 A 
HETATM    8  N   UNL     1     -43.760 -45.632   9.799  1.00  0.00    -0.349 N 
ATOM      9  HN  UNL     1     -44.157 -44.727  10.053  1.00  0.00     0.167 HD
HETATM   10  C   UNL     1     -42.779 -46.192  10.559  1.00  0.00     0.139 A 
ENDROOT
BRANCH  10  11
HETATM   11  N   UNL     1     -42.548 -45.362  11.587  1.00  0.00    -0.367 N 
HETATM   12  H   UNL     1     -43.171 -44.572  11.401  1.00  0.00     0.161 HD
BRANCH  11  13
HETATM   13  C   UNL     1     -41.685 -45.088  12.722  1.00  0.00     0.114 C 
HETATM   14  C   UNL     1     -41.906 -43.782  13.482  1.00  0.00     0.059 C 
HETATM   15  C   UNL     1     -40.731 -42.931  13.023  1.00  0.00     0.124 C 
HETATM   16  C   UNL     1     -40.796 -42.691  11.507  1.00  0.00     0.034 C 
HETATM   17  O   UNL     1     -39.673 -43.908  13.158  1.00  0.00    -0.378 OA
HETATM   18  C   UNL     1     -40.173 -43.977  10.961  1.00  0.00     0.036 C 
HETATM   19  C   UNL     1     -40.213 -44.862  12.211  1.00  0.00     0.144 C 
ENDBRANCH  11  13
ENDBRANCH  10  11
TORSDOF 2
ENDMDL
MODEL 5
REMARK VINA RESULT:      -5.1      0.989      1.639
REMARK  2 active torsions:
REMARK  status: ('A' for Active; 'I' for Inactive)
REMARK    1  A    between atoms: C_10  and  N_11 
REMARK    2  A    between atoms: N_11  and  C_12 
ROOT
HETATM    1  N   UNL     1     -39.432 -53.543  13.737  1.00  0.00    -0.190 NA
HETATM    2  C   UNL     1     -39.925 -52.617  13.227  1.00  0.00     0.121 C 
HETATM    3  C   UNL     1     -40.452 -51.470  12.550  1.00  0.00     0.158 A 
HETATM    4  N   UNL     1     -39.443 -50.671  12.046  1.00  0.00    -0.353 N 
ATOM      5  HN  UNL     1     -38.458 -50.890  12.197  1.00  0.00     0.166 HD
HETATM    6  C   UNL     1     -39.830 -49.592  11.347  1.00  0.00     0.106 A 
HETATM    7  C   UNL     1     -41.156 -49.299  11.150  1.00  0.00     0.106 A 
HETATM    8  N   UNL     1     -42.138 -50.071  11.658  1.00  0.00    -0.349 N 
ATOM      9  HN  UNL     1     -43.118 -49.829  11.504  1.00  0.00     0.167 HD
HETATM   10  C   UNL     1     -41.806 -51.177  12.378  1.00  0.00     0.139 A 
ENDROOT
BRANCH  10  11
HETATM   11  N   UNL     1     -42.951 -51.776  12.739  1.00  0.00    -0.367 N 
HETATM   12  H   UNL     1     -43.672 -51.198  12.301  1.00  0.00     0.161 HD
BRANCH  11  13
HETATM   13  C   UNL     1     -43.544 -52.785  13.599  1.00  0.00     0.114 C 
HETATM   14  C   UNL     1     -44.324 -53.914  12.932  1.00  0.00     0.059 C 
HETATM   15  C   UNL     1     -45.768 -53.535  13.226  1.00  0.00     0.124 C 
HETATM   16  C   UNL     1     -46.115 -52.185  12.581  1.00  0.00     0.034 C 
HETATM   17  O   UNL     1     -45.639 -53.208  14.629  1.00  0.00    -0.378 OA
HETATM   18  C   UNL     1     -45.568 -51.197  13.613  1.00  0.00     0.036 C 
HETATM   19  C   UNL     1     -44.690 -52.127  14.455  1.00  0.00     0.144 C 
ENDBRANCH  11  13
ENDBRANCH  10  11
TORSDOF 2
ENDMDL
MODEL 6
REMARK VINA RESULT:      -5.0      4.341      5.804
REMARK  2 active torsions:
REMARK  status: ('A' for Active; 'I' for Inactive)
REMARK    1  A    between atoms: C_10  and  N_11 
REMARK    2  A    between atoms: N_11  and  C_12 
ROOT
HETATM    1  N   UNL     1     -42.761 -47.929  14.178  1.00  0.00    -0.190 NA
HETATM    2  C   UNL     1     -42.750 -47.946  13.012  1.00  0.00     0.121 C 
HETATM    3  C   UNL     1     -42.795 -47.895  11.582  1.00  0.00     0.158 A 
HETATM    4  N   UNL     1     -43.942 -47.267  11.134  1.00  0.00    -0.353 N 
ATOM      5  HN  UNL     1     -44.659 -46.934  11.778  1.00  0.00     0.166 HD
HETATM    6  C   UNL     1     -44.060 -47.120   9.804  1.00  0.00     0.106 A 
HETATM    7  C   UNL     1     -43.095 -47.573   8.940  1.00  0.00     0.106 A 
HETATM    8  N   UNL     1     -41.985 -48.201   9.380  1.00  0.00    -0.349 N 
ATOM      9  HN  UNL     1     -41.285 -48.537   8.718  1.00  0.00     0.167 HD
HETATM   10  C   UNL     1     -41.813 -48.382  10.717  1.00  0.00     0.139 A 
ENDROOT
BRANCH  10  11
HETATM   11  N   UNL     1     -40.632 -48.997  10.888  1.00  0.00    -0.367 N 
HETATM   12  H   UNL     1     -39.950 -48.275  10.646  1.00  0.00     0.161 HD
BRANCH  11  13
HETATM   13  C   UNL     1     -39.980 -50.274  11.118  1.00  0.00     0.114 C 
HETATM   14  C   UNL     1     -40.537 -51.164  12.226  1.00  0.00     0.059 C 
HETATM   15  C   UNL     1     -39.500 -51.005  13.328  1.00  0.00     0.124 C 
HETATM   16  C   UNL     1     -39.426 -49.544  13.795  1.00  0.00     0.034 C 
HETATM   17  O   UNL     1     -38.298 -51.160  12.538  1.00  0.00    -0.378 OA
HETATM   18  C   UNL     1     -38.508 -48.925  12.740  1.00  0.00     0.036 C 
HETATM   19  C   UNL     1     -38.528 -50.021  11.671  1.00  0.00     0.144 C 
ENDBRANCH  11  13
ENDBRANCH  10  11
TORSDOF 2
ENDMDL
MODEL 7
REMARK VINA RESULT:      -4.9      2.926      5.380
REMARK  2 active torsions:
REMARK  status: ('A' for Active; 'I' for Inactive)
REMARK    1  A    between atoms: C_10  and  N_11 
REMARK    2  A    between atoms: N_11  and  C_12 
ROOT
HETATM    1  N   UNL     1     -38.076 -51.151  12.836  1.00  0.00    -0.190 NA
HETATM    2  C   UNL     1     -39.187 -51.483  12.717  1.00  0.00     0.121 C 
HETATM    3  C   UNL     1     -40.540 -51.945  12.646  1.00  0.00     0.158 A 
HETATM    4  N   UNL     1     -40.690 -53.172  13.263  1.00  0.00    -0.353 N 
ATOM      5  HN  UNL     1     -39.898 -53.669  13.670  1.00  0.00     0.166 HD
HETATM    6  C   UNL     1     -41.935 -53.676  13.298  1.00  0.00     0.106 A 
HETATM    7  C   UNL     1     -42.998 -53.006  12.745  1.00  0.00     0.106 A 
HETATM    8  N   UNL     1     -42.846 -51.817  12.128  1.00  0.00    -0.349 N 
ATOM      9  HN  UNL     1     -43.650 -51.341  11.718  1.00  0.00     0.167 HD
HETATM   10  C   UNL     1     -41.607 -51.259  12.059  1.00  0.00     0.139 A 
ENDROOT
BRANCH  10  11
HETATM   11  N   UNL     1     -41.733 -50.081  11.430  1.00  0.00    -0.367 N 
HETATM   12  H   UNL     1     -42.665 -50.133  11.012  1.00  0.00     0.161 HD
BRANCH  11  13
HETATM   13  C   UNL     1     -41.035 -48.884  10.998  1.00  0.00     0.114 C 
HETATM   14  C   UNL     1     -40.468 -47.966  12.078  1.00  0.00     0.059 C 
HETATM   15  C   UNL     1     -41.442 -46.797  12.061  1.00  0.00     0.124 C 
HETATM   16  C   UNL     1     -42.855 -47.265  12.438  1.00  0.00     0.034 C 
HETATM   17  O   UNL     1     -41.531 -46.593  10.632  1.00  0.00    -0.378 OA
HETATM   18  C   UNL     1     -43.370 -47.809  11.104  1.00  0.00     0.036 C 
HETATM   19  C   UNL     1     -42.061 -47.904  10.315  1.00  0.00     0.144 C 
ENDBRANCH  11  13
ENDBRANCH  10  11
TORSDOF 2
ENDMDL
MODEL 8
REMARK VINA RESULT:      -4.9      3.959      5.768
REMARK  2 active torsions:
REMARK  status: ('A' for Active; 'I' for Inactive)
REMARK    1  A    between atoms: C_10  and  N_11 
REMARK    2  A    between atoms: N_11  and  C_12 
ROOT
HETATM    1  N   UNL     1     -41.770 -51.472  13.994  1.00  0.00    -0.190 NA
HETATM    2  C   UNL     1     -40.868 -51.084  13.363  1.00  0.00     0.121 C 
HETATM    3  C   UNL     1     -39.715 -50.683  12.617  1.00  0.00     0.158 A 
HETATM    4  N   UNL     1     -38.561 -51.251  13.123  1.00  0.00    -0.353 N 
ATOM      5  HN  UNL     1     -38.573 -51.844  13.953  1.00  0.00     0.166 HD
HETATM    6  C   UNL     1     -37.423 -50.980  12.463  1.00  0.00     0.106 A 
HETATM    7  C   UNL     1     -37.410 -50.178  11.349  1.00  0.00     0.106 A 
HETATM    8  N   UNL     1     -38.534 -49.611  10.868  1.00  0.00    -0.349 N 
ATOM      9  HN  UNL     1     -38.498 -49.012  10.043  1.00  0.00     0.167 HD
HETATM   10  C   UNL     1     -39.717 -49.847  11.498  1.00  0.00     0.139 A 
ENDROOT
BRANCH  10  11
HETATM   11  N   UNL     1     -40.671 -49.199  10.812  1.00  0.00    -0.367 N 
HETATM   12  H   UNL     1     -40.220 -48.987   9.918  1.00  0.00     0.161 HD
BRANCH  11  13
HETATM   13  C   UNL     1     -41.978 -48.572  10.897  1.00  0.00     0.114 C 
HETATM   14  C   UNL     1     -42.442 -47.737   9.707  1.00  0.00     0.059 C 
HETATM   15  C   UNL     1     -42.282 -46.314  10.220  1.00  0.00     0.124 C 
HETATM   16  C   UNL     1     -40.810 -46.018  10.545  1.00  0.00     0.034 C 
HETATM   17  O   UNL     1     -42.883 -46.471  11.526  1.00  0.00    -0.378 OA
HETATM   18  C   UNL     1     -40.673 -46.618  11.946  1.00  0.00     0.036 C 
HETATM   19  C   UNL     1     -41.948 -47.464  12.015  1.00  0.00     0.144 C 
ENDBRANCH  11  13
ENDBRANCH  10  11
TORSDOF 2
ENDMDL
MODEL 9
REMARK VINA RESULT:      -4.9      2.402      4.952
REMARK  2 active torsions:
REMARK  status: ('A' for Active; 'I' for Inactive)
REMARK    1  A    between atoms: C_10  and  N_11 
REMARK    2  A    between atoms: N_11  and  C_12 
ROOT
HETATM    1  N   UNL     1     -43.084 -55.731  15.508  1.00  0.00    -0.190 NA
HETATM    2  C   UNL     1     -43.663 -54.988  14.819  1.00  0.00     0.121 C 
HETATM    3  C   UNL     1     -44.431 -54.062  14.044  1.00  0.00     0.158 A 
HETATM    4  N   UNL     1     -45.717 -53.935  14.534  1.00  0.00    -0.353 N 
ATOM      5  HN  UNL     1     -46.046 -54.485  15.328  1.00  0.00     0.166 HD
HETATM    6  C   UNL     1     -46.510 -53.049  13.909  1.00  0.00     0.106 A 
HETATM    7  C   UNL     1     -46.064 -52.314  12.839  1.00  0.00     0.106 A 
HETATM    8  N   UNL     1     -44.814 -52.452  12.352  1.00  0.00    -0.349 N 
ATOM      9  HN  UNL     1     -44.508 -51.900  11.550  1.00  0.00     0.167 HD
HETATM   10  C   UNL     1     -43.967 -53.338  12.944  1.00  0.00     0.139 A 
ENDROOT
BRANCH  10  11
HETATM   11  N   UNL     1     -42.795 -53.262  12.295  1.00  0.00    -0.367 N 
HETATM   12  H   UNL     1     -43.064 -53.308  11.310  1.00  0.00     0.161 HD
BRANCH  11  13
HETATM   13  C   UNL     1     -41.351 -53.299  12.443  1.00  0.00     0.114 C 
HETATM   14  C   UNL     1     -40.780 -53.186  13.855  1.00  0.00     0.059 C 
HETATM   15  C   UNL     1     -40.244 -51.762  13.881  1.00  0.00     0.124 C 
HETATM   16  C   UNL     1     -41.383 -50.751  13.676  1.00  0.00     0.034 C 
HETATM   17  O   UNL     1     -39.560 -51.751  12.606  1.00  0.00    -0.378 OA
HETATM   18  C   UNL     1     -41.527 -50.748  12.153  1.00  0.00     0.036 C 
HETATM   19  C   UNL     1     -40.731 -52.006  11.792  1.00  0.00     0.144 C 
ENDBRANCH  11  13
ENDBRANCH  10  11
TORSDOF 2
ENDMDL
