MODEL 1
REMARK VINA RESULT:      -7.1      0.000      0.000
REMARK  8 active torsions:
REMARK  status: ('A' for Active; 'I' for Inactive)
REMARK    1  A    between atoms: C_2  and  N_3 
REMARK    2  A    between atoms: C_2  and  C_19 
REMARK    3  A    between atoms: N_3  and  C_4 
REMARK    4  A    between atoms: C_4  and  C_5 
REMARK    5  A    between atoms: N_15  and  C_16 
REMARK    6  A    between atoms: C_16  and  C_17 
REMARK    7  A    between atoms: C_17  and  O_18 
REMARK    8  A    between atoms: C_19  and  N_21 
ROOT
HETATM    1  C   UNL     1     -40.970 -52.039  12.421  1.00  0.00     0.113 A 
HETATM    2  N   UNL     1     -42.159 -52.321  11.924  1.00  0.00    -0.342 N 
ATOM      3  HN  UNL     1     -42.568 -51.958  11.064  1.00  0.00     0.167 HD
HETATM    4  C   UNL     1     -42.732 -53.201  12.802  1.00  0.00     0.062 A 
HETATM    5  C   UNL     1     -43.998 -53.795  12.753  1.00  0.00     0.055 A 
HETATM    6  C   UNL     1     -44.362 -54.662  13.784  1.00  0.00     0.036 A 
HETATM    7 CL   UNL     1     -45.919 -55.398  13.754  1.00  0.00    -0.084 Cl
HETATM    8  C   UNL     1     -43.491 -54.939  14.841  1.00  0.00     0.026 A 
HETATM    9  C   UNL     1     -42.220 -54.353  14.903  1.00  0.00     0.034 A 
HETATM   10  C   UNL     1     -41.873 -53.481  13.863  1.00  0.00     0.062 A 
HETATM   11  N   UNL     1     -40.753 -52.723  13.599  1.00  0.00    -0.331 N 
ENDROOT
BRANCH   1  12
HETATM   12  C   UNL     1     -40.003 -51.084  11.803  1.00  0.00     0.346 C 
BRANCH  12  13
HETATM   13  N   UNL     1     -40.654 -50.364  10.706  1.00  0.00     0.096 N 
HETATM   14  H   UNL     1     -40.101 -50.529   9.861  1.00  0.00     0.317 HD
BRANCH  13  15
HETATM   15  C   UNL     1     -40.824 -48.915  10.933  1.00  0.00     0.241 C 
HETATM   16  C   UNL     1     -39.887 -48.433  12.050  1.00  0.00     0.045 C 
BRANCH  15  17
HETATM   17  C   UNL     1     -42.312 -48.481  11.137  1.00  0.00     0.136 C 
HETATM   18  C   UNL     1     -42.556 -47.772  12.472  1.00  0.00     0.036 C 
BRANCH  17  19
HETATM   19  N   UNL     1     -42.821 -47.645  10.040  1.00  0.00    -0.297 N 
HETATM   20  C   UNL     1     -43.278 -46.356  10.104  1.00  0.00     0.112 A 
HETATM   21  C   UNL     1     -43.693 -46.024   8.838  1.00  0.00     0.037 A 
HETATM   22  C   UNL     1     -43.469 -47.183   8.077  1.00  0.00     0.108 A 
HETATM   23  N   UNL     1     -42.889 -48.158   8.784  1.00  0.00    -0.310 N 
ATOM     24  HN  UNL     1     -42.573 -49.072   8.458  1.00  0.00     0.186 HD
ENDBRANCH  17  19
ENDBRANCH  15  17
ENDBRANCH  13  15
ENDBRANCH  12  13
ENDBRANCH   1  12
BRANCH  11  25
HETATM   25  C   UNL     1     -39.583 -52.613  14.447  1.00  0.00     0.156 C 
BRANCH  25  26
HETATM   26  C   UNL     1     -38.824 -53.927  14.592  1.00  0.00     0.184 C 
BRANCH  26  27
HETATM   27  O   UNL     1     -38.654 -54.549  13.321  1.00  0.00    -0.399 OA
HETATM   28  H   UNL     1     -38.047 -55.307  13.452  1.00  0.00     0.209 HD
ENDBRANCH  26  27
ENDBRANCH  25  26
ENDBRANCH  11  25
TORSDOF 8
ENDMDL
MODEL 2
REMARK VINA RESULT:      -6.8      3.073      6.358
REMARK  8 active torsions:
REMARK  status: ('A' for Active; 'I' for Inactive)
REMARK    1  A    between atoms: C_2  and  N_3 
REMARK    2  A    between atoms: C_2  and  C_19 
REMARK    3  A    between atoms: N_3  and  C_4 
REMARK    4  A    between atoms: C_4  and  C_5 
REMARK    5  A    between atoms: N_15  and  C_16 
REMARK    6  A    between atoms: C_16  and  C_17 
REMARK    7  A    between atoms: C_17  and  O_18 
REMARK    8  A    between atoms: C_19  and  N_21 
ROOT
HETATM    1  C   UNL     1     -40.847 -50.658  11.939  1.00  0.00     0.113 A 
HETATM    2  N   UNL     1     -41.965 -50.148  11.462  1.00  0.00    -0.342 N 
ATOM      3  HN  UNL     1     -42.842 -50.640  11.291  1.00  0.00     0.167 HD
HETATM    4  C   UNL     1     -41.707 -48.821  11.244  1.00  0.00     0.062 A 
HETATM    5  C   UNL     1     -42.553 -47.834  10.726  1.00  0.00     0.055 A 
HETATM    6  C   UNL     1     -42.051 -46.540  10.588  1.00  0.00     0.036 A 
HETATM    7 CL   UNL     1     -43.067 -45.307   9.942  1.00  0.00    -0.084 Cl
HETATM    8  C   UNL     1     -40.740 -46.226  10.957  1.00  0.00     0.026 A 
HETATM    9  C   UNL     1     -39.882 -47.204  11.478  1.00  0.00     0.034 A 
HETATM   10  C   UNL     1     -40.400 -48.499  11.605  1.00  0.00     0.062 A 
HETATM   11  N   UNL     1     -39.868 -49.691  12.043  1.00  0.00    -0.331 N 
ENDROOT
BRANCH   1  12
HETATM   12  C   UNL     1     -40.659 -52.097  12.290  1.00  0.00     0.346 C 
BRANCH  12  13
HETATM   13  N   UNL     1     -41.925 -52.814  12.124  1.00  0.00     0.096 N 
HETATM   14  H   UNL     1     -42.576 -52.182  11.653  1.00  0.00     0.317 HD
BRANCH  13  15
HETATM   15  C   UNL     1     -42.519 -53.318  13.379  1.00  0.00     0.241 C 
HETATM   16  C   UNL     1     -41.544 -54.267  14.092  1.00  0.00     0.045 C 
BRANCH  15  17
HETATM   17  C   UNL     1     -43.953 -53.915  13.201  1.00  0.00     0.136 C 
HETATM   18  C   UNL     1     -44.275 -55.022  14.210  1.00  0.00     0.036 C 
BRANCH  17  19
HETATM   19  N   UNL     1     -45.009 -52.894  13.244  1.00  0.00    -0.297 N 
HETATM   20  C   UNL     1     -45.545 -52.281  14.344  1.00  0.00     0.112 A 
HETATM   21  C   UNL     1     -46.532 -51.445  13.884  1.00  0.00     0.037 A 
HETATM   22  C   UNL     1     -46.536 -51.634  12.493  1.00  0.00     0.108 A 
HETATM   23  N   UNL     1     -45.578 -52.472  12.085  1.00  0.00    -0.310 N 
ATOM     24  HN  UNL     1     -45.333 -52.734  11.130  1.00  0.00     0.186 HD
ENDBRANCH  17  19
ENDBRANCH  15  17
ENDBRANCH  13  15
ENDBRANCH  12  13
ENDBRANCH   1  12
BRANCH  11  25
HETATM   25  C   UNL     1     -38.501 -49.904  12.474  1.00  0.00     0.156 C 
BRANCH  25  26
HETATM   26  C   UNL     1     -37.525 -50.056  11.313  1.00  0.00     0.184 C 
BRANCH  26  27
HETATM   27  O   UNL     1     -37.148 -51.421  11.153  1.00  0.00    -0.399 OA
HETATM   28  H   UNL     1     -36.822 -51.732  12.024  1.00  0.00     0.209 HD
ENDBRANCH  26  27
ENDBRANCH  25  26
ENDBRANCH  11  25
TORSDOF 8
ENDMDL
MODEL 3
REMARK VINA RESULT:      -6.8      1.202      1.277
REMARK  8 active torsions:
REMARK  status: ('A' for Active; 'I' for Inactive)
REMARK    1  A    between atoms: C_2  and  N_3 
REMARK    2  A    between atoms: C_2  and  C_19 
REMARK    3  A    between atoms: N_3  and  C_4 
REMARK    4  A    between atoms: C_4  and  C_5 
REMARK    5  A    between atoms: N_15  and  C_16 
REMARK    6  A    between atoms: C_16  and  C_17 
REMARK    7  A    between atoms: C_17  and  O_18 
REMARK    8  A    between atoms: C_19  and  N_21 
ROOT
HETATM    1  C   UNL     1     -40.704 -51.501  12.272  1.00  0.00     0.113 A 
HETATM    2  N   UNL     1     -41.935 -51.745  11.866  1.00  0.00    -0.342 N 
ATOM      3  HN  UNL     1     -42.432 -51.286  11.104  1.00  0.00     0.167 HD
HETATM    4  C   UNL     1     -42.405 -52.742  12.677  1.00  0.00     0.062 A 
HETATM    5  C   UNL     1     -43.664 -53.354  12.680  1.00  0.00     0.055 A 
HETATM    6  C   UNL     1     -43.912 -54.351  13.623  1.00  0.00     0.036 A 
HETATM    7 CL   UNL     1     -45.456 -55.114  13.656  1.00  0.00    -0.084 Cl
HETATM    8  C   UNL     1     -42.935 -54.739  14.544  1.00  0.00     0.026 A 
HETATM    9  C   UNL     1     -41.670 -54.136  14.553  1.00  0.00     0.034 A 
HETATM   10  C   UNL     1     -41.439 -53.133  13.603  1.00  0.00     0.062 A 
HETATM   11  N   UNL     1     -40.361 -52.322  13.327  1.00  0.00    -0.331 N 
ENDROOT
BRANCH   1  12
HETATM   12  C   UNL     1     -39.814 -50.454  11.688  1.00  0.00     0.346 C 
BRANCH  12  13
HETATM   13  N   UNL     1     -40.511 -49.770  10.595  1.00  0.00     0.096 N 
HETATM   14  H   UNL     1     -39.899 -49.799   9.776  1.00  0.00     0.317 HD
BRANCH  13  15
HETATM   15  C   UNL     1     -40.906 -48.378  10.890  1.00  0.00     0.241 C 
HETATM   16  C   UNL     1     -39.980 -47.771  11.954  1.00  0.00     0.045 C 
BRANCH  15  17
HETATM   17  C   UNL     1     -42.426 -48.212  11.218  1.00  0.00     0.136 C 
HETATM   18  C   UNL     1     -42.695 -47.203  12.339  1.00  0.00     0.036 C 
BRANCH  17  19
HETATM   19  N   UNL     1     -43.232 -47.861  10.041  1.00  0.00    -0.297 N 
HETATM   20  C   UNL     1     -44.544 -47.474  10.002  1.00  0.00     0.112 A 
HETATM   21  C   UNL     1     -44.864 -47.306   8.678  1.00  0.00     0.037 A 
HETATM   22  C   UNL     1     -43.688 -47.635   7.985  1.00  0.00     0.108 A 
HETATM   23  N   UNL     1     -42.672 -47.923   8.805  1.00  0.00    -0.310 N 
ATOM     24  HN  UNL     1     -41.705 -48.137   8.560  1.00  0.00     0.186 HD
ENDBRANCH  17  19
ENDBRANCH  15  17
ENDBRANCH  13  15
ENDBRANCH  12  13
ENDBRANCH   1  12
BRANCH  11  25
HETATM   25  C   UNL     1     -39.111 -52.293  14.060  1.00  0.00     0.156 C 
BRANCH  25  26
HETATM   26  C   UNL     1     -39.106 -51.272  15.192  1.00  0.00     0.184 C 
BRANCH  26  27
HETATM   27  O   UNL     1     -37.770 -50.908  15.531  1.00  0.00    -0.399 OA
HETATM   28  H   UNL     1     -37.249 -50.925  14.700  1.00  0.00     0.209 HD
ENDBRANCH  26  27
ENDBRANCH  25  26
ENDBRANCH  11  25
TORSDOF 8
ENDMDL
MODEL 4
REMARK VINA RESULT:      -6.1      2.516      3.338
REMARK  8 active torsions:
REMARK  status: ('A' for Active; 'I' for Inactive)
REMARK    1  A    between atoms: C_2  and  N_3 
REMARK    2  A    between atoms: C_2  and  C_19 
REMARK    3  A    between atoms: N_3  and  C_4 
REMARK    4  A    between atoms: C_4  and  C_5 
REMARK    5  A    between atoms: N_15  and  C_16 
REMARK    6  A    between atoms: C_16  and  C_17 
REMARK    7  A    between atoms: C_17  and  O_18 
REMARK    8  A    between atoms: C_19  and  N_21 
ROOT
HETATM    1  C   UNL     1     -42.262 -51.096  13.427  1.00  0.00     0.113 A 
HETATM    2  N   UNL     1     -41.057 -51.493  13.784  1.00  0.00    -0.342 N 
ATOM      3  HN  UNL     1     -40.177 -51.000  13.633  1.00  0.00     0.167 HD
HETATM    4  C   UNL     1     -41.230 -52.702  14.402  1.00  0.00     0.062 A 
HETATM    5  C   UNL     1     -40.266 -53.556  14.950  1.00  0.00     0.055 A 
HETATM    6  C   UNL     1     -40.694 -54.754  15.523  1.00  0.00     0.036 A 
HETATM    7 CL   UNL     1     -39.527 -55.829  16.196  1.00  0.00    -0.084 Cl
HETATM    8  C   UNL     1     -42.047 -55.100  15.558  1.00  0.00     0.026 A 
HETATM    9  C   UNL     1     -43.023 -54.254  15.015  1.00  0.00     0.034 A 
HETATM   10  C   UNL     1     -42.576 -53.058  14.438  1.00  0.00     0.062 A 
HETATM   11  N   UNL     1     -43.217 -52.017  13.804  1.00  0.00    -0.331 N 
ENDROOT
BRANCH   1  12
HETATM   12  C   UNL     1     -42.548 -49.832  12.684  1.00  0.00     0.346 C 
BRANCH  12  13
HETATM   13  N   UNL     1     -41.918 -49.883  11.363  1.00  0.00     0.096 N 
HETATM   14  H   UNL     1     -41.336 -50.724  11.333  1.00  0.00     0.317 HD
BRANCH  13  15
HETATM   15  C   UNL     1     -41.116 -48.693  11.015  1.00  0.00     0.241 C 
HETATM   16  C   UNL     1     -39.946 -48.528  11.995  1.00  0.00     0.045 C 
BRANCH  15  17
HETATM   17  C   UNL     1     -41.966 -47.393  10.833  1.00  0.00     0.136 C 
HETATM   18  C   UNL     1     -41.118 -46.156  10.521  1.00  0.00     0.036 C 
BRANCH  17  19
HETATM   19  N   UNL     1     -43.018 -47.533   9.816  1.00  0.00    -0.297 N 
HETATM   20  C   UNL     1     -44.372 -47.420   9.982  1.00  0.00     0.112 A 
HETATM   21  C   UNL     1     -44.940 -47.684   8.760  1.00  0.00     0.037 A 
HETATM   22  C   UNL     1     -43.852 -47.968   7.918  1.00  0.00     0.108 A 
HETATM   23  N   UNL     1     -42.674 -47.827   8.535  1.00  0.00    -0.310 N 
ATOM     24  HN  UNL     1     -41.740 -47.919   8.138  1.00  0.00     0.186 HD
ENDBRANCH  17  19
ENDBRANCH  15  17
ENDBRANCH  13  15
ENDBRANCH  12  13
ENDBRANCH   1  12
BRANCH  11  25
HETATM   25  C   UNL     1     -44.637 -51.937  13.525  1.00  0.00     0.156 C 
BRANCH  25  26
HETATM   26  C   UNL     1     -45.078 -52.865  12.398  1.00  0.00     0.184 C 
BRANCH  26  27
HETATM   27  O   UNL     1     -46.280 -53.543  12.751  1.00  0.00    -0.399 OA
HETATM   28  H   UNL     1     -46.826 -52.911  13.263  1.00  0.00     0.209 HD
ENDBRANCH  26  27
ENDBRANCH  25  26
ENDBRANCH  11  25
TORSDOF 8
ENDMDL
MODEL 5
REMARK VINA RESULT:      -6.0      2.382      2.755
REMARK  8 active torsions:
REMARK  status: ('A' for Active; 'I' for Inactive)
REMARK    1  A    between atoms: C_2  and  N_3 
REMARK    2  A    between atoms: C_2  and  C_19 
REMARK    3  A    between atoms: N_3  and  C_4 
REMARK    4  A    between atoms: C_4  and  C_5 
REMARK    5  A    between atoms: N_15  and  C_16 
REMARK    6  A    between atoms: C_16  and  C_17 
REMARK    7  A    between atoms: C_17  and  O_18 
REMARK    8  A    between atoms: C_19  and  N_21 
ROOT
HETATM    1  C   UNL     1     -41.001 -51.620  12.822  1.00  0.00     0.113 A 
HETATM    2  N   UNL     1     -41.979 -50.751  12.995  1.00  0.00    -0.342 N 
ATOM      3  HN  UNL     1     -41.935 -49.742  12.858  1.00  0.00     0.167 HD
HETATM    4  C   UNL     1     -43.062 -51.484  13.397  1.00  0.00     0.062 A 
HETATM    5  C   UNL     1     -44.348 -51.043  13.732  1.00  0.00     0.055 A 
HETATM    6  C   UNL     1     -45.291 -51.993  14.126  1.00  0.00     0.036 A 
HETATM    7 CL   UNL     1     -46.877 -51.476  14.554  1.00  0.00    -0.084 Cl
HETATM    8  C   UNL     1     -44.972 -53.352  14.185  1.00  0.00     0.026 A 
HETATM    9  C   UNL     1     -43.689 -53.808  13.852  1.00  0.00     0.034 A 
HETATM   10  C   UNL     1     -42.753 -52.841  13.464  1.00  0.00     0.062 A 
HETATM   11  N   UNL     1     -41.428 -52.903  13.095  1.00  0.00    -0.331 N 
ENDROOT
BRANCH   1  12
HETATM   12  C   UNL     1     -39.612 -51.256  12.414  1.00  0.00     0.346 C 
BRANCH  12  13
HETATM   13  N   UNL     1     -39.656 -50.198  11.402  1.00  0.00     0.096 N 
HETATM   14  H   UNL     1     -39.190 -50.555  10.565  1.00  0.00     0.317 HD
BRANCH  13  15
HETATM   15  C   UNL     1     -39.051 -48.918  11.819  1.00  0.00     0.241 C 
HETATM   16  C   UNL     1     -37.888 -49.165  12.791  1.00  0.00     0.045 C 
BRANCH  15  17
HETATM   17  C   UNL     1     -40.089 -47.872  12.342  1.00  0.00     0.136 C 
HETATM   18  C   UNL     1     -40.138 -47.783  13.871  1.00  0.00     0.036 C 
BRANCH  17  19
HETATM   19  N   UNL     1     -39.883 -46.529  11.782  1.00  0.00    -0.297 N 
HETATM   20  C   UNL     1     -39.695 -45.353  12.457  1.00  0.00     0.112 A 
HETATM   21  C   UNL     1     -39.601 -44.367  11.507  1.00  0.00     0.037 A 
HETATM   22  C   UNL     1     -39.766 -45.037  10.283  1.00  0.00     0.108 A 
HETATM   23  N   UNL     1     -39.885 -46.360  10.434  1.00  0.00    -0.310 N 
ATOM     24  HN  UNL     1     -39.959 -47.073   9.709  1.00  0.00     0.186 HD
ENDBRANCH  17  19
ENDBRANCH  15  17
ENDBRANCH  13  15
ENDBRANCH  12  13
ENDBRANCH   1  12
BRANCH  11  25
HETATM   25  C   UNL     1     -40.609 -54.099  13.066  1.00  0.00     0.156 C 
BRANCH  25  26
HETATM   26  C   UNL     1     -39.835 -54.325  14.360  1.00  0.00     0.184 C 
BRANCH  26  27
HETATM   27  O   UNL     1     -38.788 -55.271  14.156  1.00  0.00    -0.399 OA
HETATM   28  H   UNL     1     -37.947 -54.769  14.147  1.00  0.00     0.209 HD
ENDBRANCH  26  27
ENDBRANCH  25  26
ENDBRANCH  11  25
TORSDOF 8
ENDMDL
MODEL 6
REMARK VINA RESULT:      -6.0      3.941      5.558
REMARK  8 active torsions:
REMARK  status: ('A' for Active; 'I' for Inactive)
REMARK    1  A    between atoms: C_2  and  N_3 
REMARK    2  A    between atoms: C_2  and  C_19 
REMARK    3  A    between atoms: N_3  and  C_4 
REMARK    4  A    between atoms: C_4  and  C_5 
REMARK    5  A    between atoms: N_15  and  C_16 
REMARK    6  A    between atoms: C_16  and  C_17 
REMARK    7  A    between atoms: C_17  and  O_18 
REMARK    8  A    between atoms: C_19  and  N_21 
ROOT
HETATM    1  C   UNL     1     -43.859 -51.798  14.207  1.00  0.00     0.113 A 
HETATM    2  N   UNL     1     -43.665 -51.213  15.373  1.00  0.00    -0.342 N 
ATOM      3  HN  UNL     1     -42.775 -50.913  15.769  1.00  0.00     0.167 HD
HETATM    4  C   UNL     1     -44.904 -51.091  15.940  1.00  0.00     0.062 A 
HETATM    5  C   UNL     1     -45.253 -50.555  17.185  1.00  0.00     0.055 A 
HETATM    6  C   UNL     1     -46.600 -50.550  17.548  1.00  0.00     0.036 A 
HETATM    7 CL   UNL     1     -47.057 -49.906  19.080  1.00  0.00    -0.084 Cl
HETATM    8  C   UNL     1     -47.584 -51.062  16.698  1.00  0.00     0.026 A 
HETATM    9  C   UNL     1     -47.249 -51.600  15.448  1.00  0.00     0.034 A 
HETATM   10  C   UNL     1     -45.892 -51.602  15.101  1.00  0.00     0.062 A 
HETATM   11  N   UNL     1     -45.199 -52.053  14.000  1.00  0.00    -0.331 N 
ENDROOT
BRANCH   1  12
HETATM   12  C   UNL     1     -42.768 -52.163  13.254  1.00  0.00     0.346 C 
BRANCH  12  13
HETATM   13  N   UNL     1     -42.720 -51.187  12.163  1.00  0.00     0.096 N 
HETATM   14  H   UNL     1     -42.336 -51.663  11.343  1.00  0.00     0.317 HD
BRANCH  13  15
HETATM   15  C   UNL     1     -41.941 -49.968  12.459  1.00  0.00     0.241 C 
HETATM   16  C   UNL     1     -42.879 -48.807  12.822  1.00  0.00     0.045 C 
BRANCH  15  17
HETATM   17  C   UNL     1     -40.897 -49.604  11.353  1.00  0.00     0.136 C 
HETATM   18  C   UNL     1     -40.883 -48.113  11.004  1.00  0.00     0.036 C 
BRANCH  17  19
HETATM   19  N   UNL     1     -39.534 -50.042  11.684  1.00  0.00    -0.297 N 
HETATM   20  C   UNL     1     -39.108 -50.691  12.811  1.00  0.00     0.112 A 
HETATM   21  C   UNL     1     -37.749 -50.839  12.688  1.00  0.00     0.037 A 
HETATM   22  C   UNL     1     -37.436 -50.228  11.463  1.00  0.00     0.108 A 
HETATM   23  N   UNL     1     -38.520 -49.787  10.817  1.00  0.00    -0.310 N 
ATOM     24  HN  UNL     1     -38.574 -49.359   9.893  1.00  0.00     0.186 HD
ENDBRANCH  17  19
ENDBRANCH  15  17
ENDBRANCH  13  15
ENDBRANCH  12  13
ENDBRANCH   1  12
BRANCH  11  25
HETATM   25  C   UNL     1     -45.771 -52.735  12.856  1.00  0.00     0.156 C 
BRANCH  25  26
HETATM   26  C   UNL     1     -46.635 -51.827  11.989  1.00  0.00     0.184 C 
BRANCH  26  27
HETATM   27  O   UNL     1     -47.365 -52.594  11.035  1.00  0.00    -0.399 OA
HETATM   28  H   UNL     1     -46.717 -52.923  10.376  1.00  0.00     0.209 HD
ENDBRANCH  26  27
ENDBRANCH  25  26
ENDBRANCH  11  25
TORSDOF 8
ENDMDL
MODEL 7
REMARK VINA RESULT:      -5.8      2.672      5.433
REMARK  8 active torsions:
REMARK  status: ('A' for Active; 'I' for Inactive)
REMARK    1  A    between atoms: C_2  and  N_3 
REMARK    2  A    between atoms: C_2  and  C_19 
REMARK    3  A    between atoms: N_3  and  C_4 
REMARK    4  A    between atoms: C_4  and  C_5 
REMARK    5  A    between atoms: N_15  and  C_16 
REMARK    6  A    between atoms: C_16  and  C_17 
REMARK    7  A    between atoms: C_17  and  O_18 
REMARK    8  A    between atoms: C_19  and  N_21 
ROOT
HETATM    1  C   UNL     1     -41.438 -51.031  11.884  1.00  0.00     0.113 A 
HETATM    2  N   UNL     1     -41.695 -52.322  11.805  1.00  0.00    -0.342 N 
ATOM      3  HN  UNL     1     -41.132 -53.033  11.339  1.00  0.00     0.167 HD
HETATM    4  C   UNL     1     -42.873 -52.511  12.476  1.00  0.00     0.062 A 
HETATM    5  C   UNL     1     -43.594 -53.694  12.672  1.00  0.00     0.055 A 
HETATM    6  C   UNL     1     -44.788 -53.629  13.392  1.00  0.00     0.036 A 
HETATM    7 CL   UNL     1     -45.701 -55.068  13.638  1.00  0.00    -0.084 Cl
HETATM    8  C   UNL     1     -45.258 -52.420  13.911  1.00  0.00     0.026 A 
HETATM    9  C   UNL     1     -44.546 -51.227  13.724  1.00  0.00     0.034 A 
HETATM   10  C   UNL     1     -43.352 -51.309  12.994  1.00  0.00     0.062 A 
HETATM   11  N   UNL     1     -42.420 -50.376  12.599  1.00  0.00    -0.331 N 
ENDROOT
BRANCH   1  12
HETATM   12  C   UNL     1     -40.258 -50.365  11.257  1.00  0.00     0.346 C 
BRANCH  12  13
HETATM   13  N   UNL     1     -39.028 -50.833  11.901  1.00  0.00     0.096 N 
HETATM   14  H   UNL     1     -39.084 -51.852  11.964  1.00  0.00     0.317 HD
BRANCH  13  15
HETATM   15  C   UNL     1     -38.768 -50.250  13.233  1.00  0.00     0.241 C 
HETATM   16  C   UNL     1     -37.877 -49.006  13.110  1.00  0.00     0.045 C 
BRANCH  15  17
HETATM   17  C   UNL     1     -38.250 -51.287  14.283  1.00  0.00     0.136 C 
HETATM   18  C   UNL     1     -37.775 -50.639  15.587  1.00  0.00     0.036 C 
BRANCH  17  19
HETATM   19  N   UNL     1     -39.235 -52.334  14.588  1.00  0.00    -0.297 N 
HETATM   20  C   UNL     1     -39.234 -53.639  14.174  1.00  0.00     0.112 A 
HETATM   21  C   UNL     1     -40.381 -54.208  14.670  1.00  0.00     0.037 A 
HETATM   22  C   UNL     1     -41.026 -53.165  15.355  1.00  0.00     0.108 A 
HETATM   23  N   UNL     1     -40.313 -52.034  15.359  1.00  0.00    -0.310 N 
ATOM     24  HN  UNL     1     -40.528 -51.155  15.828  1.00  0.00     0.186 HD
ENDBRANCH  17  19
ENDBRANCH  15  17
ENDBRANCH  13  15
ENDBRANCH  12  13
ENDBRANCH   1  12
BRANCH  11  25
HETATM   25  C   UNL     1     -42.494 -48.948  12.837  1.00  0.00     0.156 C 
BRANCH  25  26
HETATM   26  C   UNL     1     -43.443 -48.232  11.882  1.00  0.00     0.184 C 
BRANCH  26  27
HETATM   27  O   UNL     1     -42.999 -48.375  10.535  1.00  0.00    -0.399 OA
HETATM   28  H   UNL     1     -42.362 -47.650  10.365  1.00  0.00     0.209 HD
ENDBRANCH  26  27
ENDBRANCH  25  26
ENDBRANCH  11  25
TORSDOF 8
ENDMDL
MODEL 8
REMARK VINA RESULT:      -5.8      3.999      6.095
REMARK  8 active torsions:
REMARK  status: ('A' for Active; 'I' for Inactive)
REMARK    1  A    between atoms: C_2  and  N_3 
REMARK    2  A    between atoms: C_2  and  C_19 
REMARK    3  A    between atoms: N_3  and  C_4 
REMARK    4  A    between atoms: C_4  and  C_5 
REMARK    5  A    between atoms: N_15  and  C_16 
REMARK    6  A    between atoms: C_16  and  C_17 
REMARK    7  A    between atoms: C_17  and  O_18 
REMARK    8  A    between atoms: C_19  and  N_21 
ROOT
HETATM    1  C   UNL     1     -43.531 -54.020  13.663  1.00  0.00     0.113 A 
HETATM    2  N   UNL     1     -43.410 -54.755  14.751  1.00  0.00    -0.342 N 
ATOM      3  HN  UNL     1     -44.162 -55.185  15.289  1.00  0.00     0.167 HD
HETATM    4  C   UNL     1     -42.068 -54.821  15.009  1.00  0.00     0.062 A 
HETATM    5  C   UNL     1     -41.404 -55.463  16.062  1.00  0.00     0.055 A 
HETATM    6  C   UNL     1     -40.013 -55.379  16.115  1.00  0.00     0.036 A 
HETATM    7 CL   UNL     1     -39.172 -56.151  17.406  1.00  0.00    -0.084 Cl
HETATM    8  C   UNL     1     -39.290 -54.677  15.148  1.00  0.00     0.026 A 
HETATM    9  C   UNL     1     -39.940 -54.030  14.088  1.00  0.00     0.034 A 
HETATM   10  C   UNL     1     -41.338 -54.120  14.052  1.00  0.00     0.062 A 
HETATM   11  N   UNL     1     -42.296 -53.613  13.203  1.00  0.00    -0.331 N 
ENDROOT
BRANCH   1  12
HETATM   12  C   UNL     1     -44.835 -53.654  13.033  1.00  0.00     0.346 C 
BRANCH  12  13
HETATM   13  N   UNL     1     -45.866 -53.539  14.066  1.00  0.00     0.096 N 
HETATM   14  H   UNL     1     -46.478 -54.355  13.981  1.00  0.00     0.317 HD
BRANCH  13  15
HETATM   15  C   UNL     1     -46.661 -52.296  14.010  1.00  0.00     0.241 C 
HETATM   16  C   UNL     1     -46.485 -51.607  12.649  1.00  0.00     0.045 C 
BRANCH  15  17
HETATM   17  C   UNL     1     -46.423 -51.343  15.227  1.00  0.00     0.136 C 
HETATM   18  C   UNL     1     -47.486 -51.485  16.322  1.00  0.00     0.036 C 
BRANCH  17  19
HETATM   19  N   UNL     1     -45.088 -51.492  15.821  1.00  0.00    -0.297 N 
HETATM   20  C   UNL     1     -44.735 -52.207  16.934  1.00  0.00     0.112 A 
HETATM   21  C   UNL     1     -43.390 -52.002  17.122  1.00  0.00     0.037 A 
HETATM   22  C   UNL     1     -43.017 -51.131  16.085  1.00  0.00     0.108 A 
HETATM   23  N   UNL     1     -44.029 -50.857  15.255  1.00  0.00    -0.310 N 
ATOM     24  HN  UNL     1     -44.010 -50.301  14.400  1.00  0.00     0.186 HD
ENDBRANCH  17  19
ENDBRANCH  15  17
ENDBRANCH  13  15
ENDBRANCH  12  13
ENDBRANCH   1  12
BRANCH  11  25
HETATM   25  C   UNL     1     -42.051 -52.748  12.066  1.00  0.00     0.156 C 
BRANCH  25  26
HETATM   26  C   UNL     1     -41.851 -51.289  12.457  1.00  0.00     0.184 C 
BRANCH  26  27
HETATM   27  O   UNL     1     -43.093 -50.588  12.426  1.00  0.00    -0.399 OA
HETATM   28  H   UNL     1     -43.366 -50.532  11.486  1.00  0.00     0.209 HD
ENDBRANCH  26  27
ENDBRANCH  25  26
ENDBRANCH  11  25
TORSDOF 8
ENDMDL
MODEL 9
REMARK VINA RESULT:      -5.8      3.984      6.646
REMARK  8 active torsions:
REMARK  status: ('A' for Active; 'I' for Inactive)
REMARK    1  A    between atoms: C_2  and  N_3 
REMARK    2  A    between atoms: C_2  and  C_19 
REMARK    3  A    between atoms: N_3  and  C_4 
REMARK    4  A    between atoms: C_4  and  C_5 
REMARK    5  A    between atoms: N_15  and  C_16 
REMARK    6  A    between atoms: C_16  and  C_17 
REMARK    7  A    between atoms: C_17  and  O_18 
REMARK    8  A    between atoms: C_19  and  N_21 
ROOT
HETATM    1  C   UNL     1     -40.622 -51.415  12.920  1.00  0.00     0.113 A 
HETATM    2  N   UNL     1     -40.203 -51.682  14.142  1.00  0.00    -0.342 N 
ATOM      3  HN  UNL     1     -40.537 -52.423  14.758  1.00  0.00     0.167 HD
HETATM    4  C   UNL     1     -39.228 -50.761  14.412  1.00  0.00     0.062 A 
HETATM    5  C   UNL     1     -38.475 -50.593  15.579  1.00  0.00     0.055 A 
HETATM    6  C   UNL     1     -37.535 -49.563  15.617  1.00  0.00     0.036 A 
HETATM    7 CL   UNL     1     -36.602 -49.327  17.046  1.00  0.00    -0.084 Cl
HETATM    8  C   UNL     1     -37.341 -48.717  14.523  1.00  0.00     0.026 A 
HETATM    9  C   UNL     1     -38.086 -48.873  13.347  1.00  0.00     0.034 A 
HETATM   10  C   UNL     1     -39.030 -49.909  13.327  1.00  0.00     0.062 A 
HETATM   11  N   UNL     1     -39.936 -50.345  12.386  1.00  0.00    -0.331 N 
ENDROOT
BRANCH   1  12
HETATM   12  C   UNL     1     -41.716 -52.156  12.222  1.00  0.00     0.346 C 
BRANCH  12  13
HETATM   13  N   UNL     1     -42.979 -51.431  12.378  1.00  0.00     0.096 N 
HETATM   14  H   UNL     1     -42.767 -50.543  12.840  1.00  0.00     0.317 HD
BRANCH  13  15
HETATM   15  C   UNL     1     -44.023 -52.161  13.124  1.00  0.00     0.241 C 
HETATM   16  C   UNL     1     -44.208 -53.572  12.547  1.00  0.00     0.045 C 
BRANCH  15  17
HETATM   17  C   UNL     1     -45.362 -51.367  13.273  1.00  0.00     0.136 C 
HETATM   18  C   UNL     1     -46.498 -51.935  12.418  1.00  0.00     0.036 C 
BRANCH  17  19
HETATM   19  N   UNL     1     -45.809 -51.253  14.668  1.00  0.00    -0.297 N 
HETATM   20  C   UNL     1     -47.040 -51.556  15.185  1.00  0.00     0.112 A 
HETATM   21  C   UNL     1     -46.993 -51.237  16.520  1.00  0.00     0.037 A 
HETATM   22  C   UNL     1     -45.699 -50.726  16.716  1.00  0.00     0.108 A 
HETATM   23  N   UNL     1     -44.952 -50.781  15.609  1.00  0.00    -0.310 N 
ATOM     24  HN  UNL     1     -43.970 -50.528  15.498  1.00  0.00     0.186 HD
ENDBRANCH  17  19
ENDBRANCH  15  17
ENDBRANCH  13  15
ENDBRANCH  12  13
ENDBRANCH   1  12
BRANCH  11  25
HETATM   25  C   UNL     1     -40.171 -49.740  11.090  1.00  0.00     0.156 C 
BRANCH  25  26
HETATM   26  C   UNL     1     -41.085 -48.523  11.155  1.00  0.00     0.184 C 
BRANCH  26  27
HETATM   27  O   UNL     1     -42.432 -48.892  10.868  1.00  0.00    -0.399 OA
HETATM   28  H   UNL     1     -42.585 -48.701   9.919  1.00  0.00     0.209 HD
ENDBRANCH  26  27
ENDBRANCH  25  26
ENDBRANCH  11  25
TORSDOF 8
ENDMDL
