MODEL 1
REMARK VINA RESULT:      -6.2      0.000      0.000
REMARK  5 active torsions:
REMARK  status: ('A' for Active; 'I' for Inactive)
REMARK    1  A    between atoms: C_2  and  C_3 
REMARK    2  A    between atoms: C_2  and  N_18 
REMARK    3  A    between atoms: C_3  and  N_4 
REMARK       I    between atoms: N_4  and  C_5 
REMARK       I    between atoms: C_5  and  N_7 
REMARK    4  A    between atoms: N_7  and  C_8 
REMARK    5  A    between atoms: C_11  and  N_15 
ROOT
HETATM    1  N   UNL     1     -41.554 -53.322  12.243  1.00  0.00    -0.341 N 
HETATM    2  C   UNL     1     -41.198 -52.022  12.516  1.00  0.00     0.320 C 
HETATM    3  O   UNL     1     -40.983 -51.636  13.657  1.00  0.00    -0.247 OA
HETATM    4  N   UNL     1     -41.087 -51.270  11.366  1.00  0.00    -0.308 N 
HETATM    5  H   UNL     1     -42.113 -53.481  11.417  1.00  0.00     0.164 HD
HETATM    6  H   UNL     1     -40.919 -51.792  10.518  1.00  0.00     0.170 HD
ENDROOT
BRANCH   1   7
HETATM    7  C   UNL     1     -41.716 -54.260  13.351  1.00  0.00     0.159 C 
BRANCH   7   8
HETATM    8  C   UNL     1     -43.112 -54.140  14.036  1.00  0.00     0.236 C 
HETATM    9  C   UNL     1     -43.126 -55.146  15.208  1.00  0.00     0.044 C 
BRANCH   8  10
HETATM   10  N   UNL     1     -44.244 -54.387  13.094  1.00  0.00     0.098 N 
HETATM   11  C   UNL     1     -44.791 -53.132  12.506  1.00  0.00     0.299 C 
HETATM   12  C   UNL     1     -45.560 -52.252  13.509  1.00  0.00     0.198 C 
HETATM   13  O   UNL     1     -46.642 -52.978  14.110  1.00  0.00    -0.388 OA
HETATM   14  C   UNL     1     -46.170 -54.179  14.732  1.00  0.00     0.198 C 
HETATM   15  C   UNL     1     -45.406 -55.064  13.730  1.00  0.00     0.299 C 
ENDBRANCH   8  10
ENDBRANCH   7   8
ENDBRANCH   1   7
BRANCH   4  16
HETATM   16  C   UNL     1     -40.848 -49.879  11.333  1.00  0.00     0.051 A 
HETATM   17  C   UNL     1     -41.856 -48.933  11.299  1.00  0.00     0.035 A 
HETATM   18  C   UNL     1     -41.537 -47.568  11.333  1.00  0.00     0.050 A 
HETATM   19  C   UNL     1     -40.214 -47.141  11.373  1.00  0.00     0.102 A 
HETATM   20  N   UNL     1     -39.226 -48.068  11.347  1.00  0.00    -0.350 N 
HETATM   21  C   UNL     1     -39.550 -49.387  11.330  1.00  0.00     0.119 A 
ATOM     22  HN  UNL     1     -38.247 -47.778  11.340  1.00  0.00     0.166 HD
BRANCH  19  23
HETATM   23  N   UNL     1     -39.878 -45.805  11.528  1.00  0.00    -0.376 N 
HETATM   24  C   UNL     1     -39.635 -45.023  10.318  1.00  0.00     0.150 C 
HETATM   25  C   UNL     1     -40.277 -45.024  12.690  1.00  0.00     0.150 C 
ENDBRANCH  19  23
ENDBRANCH   4  16
TORSDOF 5
ENDMDL
MODEL 2
REMARK VINA RESULT:      -6.1      1.611      2.198
REMARK  5 active torsions:
REMARK  status: ('A' for Active; 'I' for Inactive)
REMARK    1  A    between atoms: C_2  and  C_3 
REMARK    2  A    between atoms: C_2  and  N_18 
REMARK    3  A    between atoms: C_3  and  N_4 
REMARK       I    between atoms: N_4  and  C_5 
REMARK       I    between atoms: C_5  and  N_7 
REMARK    4  A    between atoms: N_7  and  C_8 
REMARK    5  A    between atoms: C_11  and  N_15 
ROOT
HETATM    1  N   UNL     1     -42.270 -52.351  11.868  1.00  0.00    -0.341 N 
HETATM    2  C   UNL     1     -42.070 -51.020  12.151  1.00  0.00     0.320 C 
HETATM    3  O   UNL     1     -42.627 -50.468  13.089  1.00  0.00    -0.247 OA
HETATM    4  N   UNL     1     -41.165 -50.445  11.286  1.00  0.00    -0.308 N 
HETATM    5  H   UNL     1     -42.158 -52.638  10.907  1.00  0.00     0.164 HD
HETATM    6  H   UNL     1     -40.526 -51.083  10.834  1.00  0.00     0.170 HD
ENDROOT
BRANCH   1   7
HETATM    7  C   UNL     1     -43.202 -53.118  12.691  1.00  0.00     0.159 C 
BRANCH   7   8
HETATM    8  C   UNL     1     -42.500 -53.816  13.897  1.00  0.00     0.236 C 
HETATM    9  C   UNL     1     -41.058 -54.142  13.452  1.00  0.00     0.044 C 
BRANCH   8  10
HETATM   10  N   UNL     1     -43.219 -55.042  14.356  1.00  0.00     0.098 N 
HETATM   11  C   UNL     1     -44.689 -54.835  14.488  1.00  0.00     0.299 C 
HETATM   12  C   UNL     1     -45.092 -53.922  15.661  1.00  0.00     0.198 C 
HETATM   13  O   UNL     1     -44.594 -54.430  16.906  1.00  0.00    -0.388 OA
HETATM   14  C   UNL     1     -43.174 -54.610  16.856  1.00  0.00     0.198 C 
HETATM   15  C   UNL     1     -42.768 -55.528  15.689  1.00  0.00     0.299 C 
ENDBRANCH   8  10
ENDBRANCH   7   8
ENDBRANCH   1   7
BRANCH   4  16
HETATM   16  C   UNL     1     -40.843 -49.071  11.254  1.00  0.00     0.051 A 
HETATM   17  C   UNL     1     -39.883 -48.494  12.066  1.00  0.00     0.035 A 
HETATM   18  C   UNL     1     -39.576 -47.132  11.930  1.00  0.00     0.050 A 
HETATM   19  C   UNL     1     -40.242 -46.336  11.003  1.00  0.00     0.102 A 
HETATM   20  N   UNL     1     -41.223 -46.889  10.249  1.00  0.00    -0.350 N 
HETATM   21  C   UNL     1     -41.498 -48.213  10.382  1.00  0.00     0.119 A 
ATOM     22  HN  UNL     1     -41.749 -46.317   9.589  1.00  0.00     0.166 HD
BRANCH  19  23
HETATM   23  N   UNL     1     -39.874 -45.021  10.767  1.00  0.00    -0.376 N 
HETATM   24  C   UNL     1     -39.156 -44.729   9.529  1.00  0.00     0.150 C 
HETATM   25  C   UNL     1     -40.590 -43.889  11.339  1.00  0.00     0.150 C 
ENDBRANCH  19  23
ENDBRANCH   4  16
TORSDOF 5
ENDMDL
MODEL 3
REMARK VINA RESULT:      -6.0      1.525      2.029
REMARK  5 active torsions:
REMARK  status: ('A' for Active; 'I' for Inactive)
REMARK    1  A    between atoms: C_2  and  C_3 
REMARK    2  A    between atoms: C_2  and  N_18 
REMARK    3  A    between atoms: C_3  and  N_4 
REMARK       I    between atoms: N_4  and  C_5 
REMARK       I    between atoms: C_5  and  N_7 
REMARK    4  A    between atoms: N_7  and  C_8 
REMARK    5  A    between atoms: C_11  and  N_15 
ROOT
HETATM    1  N   UNL     1     -42.333 -51.905  11.997  1.00  0.00    -0.341 N 
HETATM    2  C   UNL     1     -41.882 -50.648  12.325  1.00  0.00     0.320 C 
HETATM    3  O   UNL     1     -41.208 -50.443  13.325  1.00  0.00    -0.247 OA
HETATM    4  N   UNL     1     -42.253 -49.711  11.384  1.00  0.00    -0.308 N 
HETATM    5  H   UNL     1     -43.186 -51.962  11.460  1.00  0.00     0.164 HD
HETATM    6  H   UNL     1     -42.458 -50.073  10.464  1.00  0.00     0.170 HD
ENDROOT
BRANCH   1   7
HETATM    7  C   UNL     1     -42.029 -53.022  12.888  1.00  0.00     0.159 C 
BRANCH   7   8
HETATM    8  C   UNL     1     -43.252 -53.439  13.763  1.00  0.00     0.236 C 
HETATM    9  C   UNL     1     -42.759 -54.539  14.729  1.00  0.00     0.044 C 
BRANCH   8  10
HETATM   10  N   UNL     1     -44.413 -53.908  12.949  1.00  0.00     0.098 N 
HETATM   11  C   UNL     1     -45.339 -52.803  12.572  1.00  0.00     0.299 C 
HETATM   12  C   UNL     1     -46.145 -52.230  13.753  1.00  0.00     0.198 C 
HETATM   13  O   UNL     1     -46.908 -53.255  14.404  1.00  0.00    -0.388 OA
HETATM   14  C   UNL     1     -46.063 -54.331  14.831  1.00  0.00     0.198 C 
HETATM   15  C   UNL     1     -45.260 -54.910  13.651  1.00  0.00     0.299 C 
ENDBRANCH   8  10
ENDBRANCH   7   8
ENDBRANCH   1   7
BRANCH   4  16
HETATM   16  C   UNL     1     -42.034 -48.322  11.503  1.00  0.00     0.051 A 
HETATM   17  C   UNL     1     -40.828 -47.712  11.211  1.00  0.00     0.035 A 
HETATM   18  C   UNL     1     -40.709 -46.317  11.293  1.00  0.00     0.050 A 
HETATM   19  C   UNL     1     -41.784 -45.528  11.691  1.00  0.00     0.102 A 
HETATM   20  N   UNL     1     -42.948 -46.131  12.033  1.00  0.00    -0.350 N 
HETATM   21  C   UNL     1     -43.052 -47.483  11.934  1.00  0.00     0.119 A 
ATOM     22  HN  UNL     1     -43.738 -45.576  12.363  1.00  0.00     0.166 HD
BRANCH  19  23
HETATM   23  N   UNL     1     -41.727 -44.143  11.664  1.00  0.00    -0.376 N 
HETATM   24  C   UNL     1     -42.619 -43.410  12.558  1.00  0.00     0.150 C 
HETATM   25  C   UNL     1     -40.533 -43.414  11.259  1.00  0.00     0.150 C 
ENDBRANCH  19  23
ENDBRANCH   4  16
TORSDOF 5
ENDMDL
MODEL 4
REMARK VINA RESULT:      -5.8      2.291      3.569
REMARK  5 active torsions:
REMARK  status: ('A' for Active; 'I' for Inactive)
REMARK    1  A    between atoms: C_2  and  C_3 
REMARK    2  A    between atoms: C_2  and  N_18 
REMARK    3  A    between atoms: C_3  and  N_4 
REMARK       I    between atoms: N_4  and  C_5 
REMARK       I    between atoms: C_5  and  N_7 
REMARK    4  A    between atoms: N_7  and  C_8 
REMARK    5  A    between atoms: C_11  and  N_15 
ROOT
HETATM    1  N   UNL     1     -41.897 -52.597  12.201  1.00  0.00    -0.341 N 
HETATM    2  C   UNL     1     -41.181 -51.428  12.086  1.00  0.00     0.320 C 
HETATM    3  O   UNL     1     -39.970 -51.393  12.255  1.00  0.00    -0.247 OA
HETATM    4  N   UNL     1     -41.987 -50.368  11.732  1.00  0.00    -0.308 N 
HETATM    5  H   UNL     1     -42.865 -52.516  12.476  1.00  0.00     0.164 HD
HETATM    6  H   UNL     1     -42.850 -50.611  11.268  1.00  0.00     0.170 HD
ENDROOT
BRANCH   1   7
HETATM    7  C   UNL     1     -41.197 -53.824  12.571  1.00  0.00     0.159 C 
BRANCH   7   8
HETATM    8  C   UNL     1     -41.653 -54.378  13.957  1.00  0.00     0.236 C 
HETATM    9  C   UNL     1     -43.187 -54.215  14.024  1.00  0.00     0.044 C 
BRANCH   8  10
HETATM   10  N   UNL     1     -40.983 -53.694  15.103  1.00  0.00     0.098 N 
HETATM   11  C   UNL     1     -39.498 -53.681  14.980  1.00  0.00     0.299 C 
HETATM   12  C   UNL     1     -38.840 -55.061  15.164  1.00  0.00     0.198 C 
HETATM   13  O   UNL     1     -39.183 -55.632  16.434  1.00  0.00    -0.388 OA
HETATM   14  C   UNL     1     -40.604 -55.712  16.595  1.00  0.00     0.198 C 
HETATM   15  C   UNL     1     -41.264 -54.332  16.418  1.00  0.00     0.299 C 
ENDBRANCH   8  10
ENDBRANCH   7   8
ENDBRANCH   1   7
BRANCH   4  16
HETATM   16  C   UNL     1     -41.560 -49.025  11.649  1.00  0.00     0.051 A 
HETATM   17  C   UNL     1     -41.097 -48.304  12.735  1.00  0.00     0.035 A 
HETATM   18  C   UNL     1     -40.631 -46.993  12.559  1.00  0.00     0.050 A 
HETATM   19  C   UNL     1     -40.649 -46.387  11.307  1.00  0.00     0.102 A 
HETATM   20  N   UNL     1     -41.157 -47.074  10.255  1.00  0.00    -0.350 N 
HETATM   21  C   UNL     1     -41.590 -48.349  10.438  1.00  0.00     0.119 A 
ATOM     22  HN  UNL     1     -41.214 -46.637   9.334  1.00  0.00     0.166 HD
BRANCH  19  23
HETATM   23  N   UNL     1     -40.084 -45.141  11.087  1.00  0.00    -0.376 N 
HETATM   24  C   UNL     1     -39.717 -44.347  12.257  1.00  0.00     0.150 C 
HETATM   25  C   UNL     1     -39.352 -44.814   9.872  1.00  0.00     0.150 C 
ENDBRANCH  19  23
ENDBRANCH   4  16
TORSDOF 5
ENDMDL
MODEL 5
REMARK VINA RESULT:      -5.8      2.022      2.767
REMARK  5 active torsions:
REMARK  status: ('A' for Active; 'I' for Inactive)
REMARK    1  A    between atoms: C_2  and  C_3 
REMARK    2  A    between atoms: C_2  and  N_18 
REMARK    3  A    between atoms: C_3  and  N_4 
REMARK       I    between atoms: N_4  and  C_5 
REMARK       I    between atoms: C_5  and  N_7 
REMARK    4  A    between atoms: N_7  and  C_8 
REMARK    5  A    between atoms: C_11  and  N_15 
ROOT
HETATM    1  N   UNL     1     -42.388 -51.439  12.189  1.00  0.00    -0.341 N 
HETATM    2  C   UNL     1     -41.982 -50.148  12.436  1.00  0.00     0.320 C 
HETATM    3  O   UNL     1     -41.467 -49.824  13.497  1.00  0.00    -0.247 OA
HETATM    4  N   UNL     1     -42.196 -49.329  11.349  1.00  0.00    -0.308 N 
HETATM    5  H   UNL     1     -43.149 -51.564  11.538  1.00  0.00     0.164 HD
HETATM    6  H   UNL     1     -42.262 -49.795  10.456  1.00  0.00     0.170 HD
ENDROOT
BRANCH   1   7
HETATM    7  C   UNL     1     -42.232 -52.444  13.238  1.00  0.00     0.159 C 
BRANCH   7   8
HETATM    8  C   UNL     1     -43.571 -53.173  13.570  1.00  0.00     0.236 C 
HETATM    9  C   UNL     1     -44.332 -53.346  12.237  1.00  0.00     0.044 C 
BRANCH   8  10
HETATM   10  N   UNL     1     -44.395 -52.440  14.577  1.00  0.00     0.098 N 
HETATM   11  C   UNL     1     -43.918 -52.644  15.973  1.00  0.00     0.299 C 
HETATM   12  C   UNL     1     -44.161 -54.065  16.518  1.00  0.00     0.198 C 
HETATM   13  O   UNL     1     -45.552 -54.410  16.461  1.00  0.00    -0.388 OA
HETATM   14  C   UNL     1     -46.060 -54.274  15.129  1.00  0.00     0.198 C 
HETATM   15  C   UNL     1     -45.825 -52.854  14.584  1.00  0.00     0.299 C 
ENDBRANCH   8  10
ENDBRANCH   7   8
ENDBRANCH   1   7
BRANCH   4  16
HETATM   16  C   UNL     1     -41.988 -47.932  11.340  1.00  0.00     0.051 A 
HETATM   17  C   UNL     1     -40.765 -47.346  11.065  1.00  0.00     0.035 A 
HETATM   18  C   UNL     1     -40.654 -45.949  11.012  1.00  0.00     0.050 A 
HETATM   19  C   UNL     1     -41.752 -45.132  11.260  1.00  0.00     0.102 A 
HETATM   20  N   UNL     1     -42.935 -45.706  11.588  1.00  0.00    -0.350 N 
HETATM   21  C   UNL     1     -43.032 -47.062  11.619  1.00  0.00     0.119 A 
ATOM     22  HN  UNL     1     -43.746 -45.127  11.809  1.00  0.00     0.166 HD
BRANCH  19  23
HETATM   23  N   UNL     1     -41.695 -43.757  11.097  1.00  0.00    -0.376 N 
HETATM   24  C   UNL     1     -42.953 -43.016  11.137  1.00  0.00     0.150 C 
HETATM   25  C   UNL     1     -40.515 -42.974  11.434  1.00  0.00     0.150 C 
ENDBRANCH  19  23
ENDBRANCH   4  16
TORSDOF 5
ENDMDL
MODEL 6
REMARK VINA RESULT:      -5.6      1.616      2.116
REMARK  5 active torsions:
REMARK  status: ('A' for Active; 'I' for Inactive)
REMARK    1  A    between atoms: C_2  and  C_3 
REMARK    2  A    between atoms: C_2  and  N_18 
REMARK    3  A    between atoms: C_3  and  N_4 
REMARK       I    between atoms: N_4  and  C_5 
REMARK       I    between atoms: C_5  and  N_7 
REMARK    4  A    between atoms: N_7  and  C_8 
REMARK    5  A    between atoms: C_11  and  N_15 
ROOT
HETATM    1  N   UNL     1     -40.678 -52.027  14.181  1.00  0.00    -0.341 N 
HETATM    2  C   UNL     1     -40.972 -50.713  13.898  1.00  0.00     0.320 C 
HETATM    3  O   UNL     1     -41.943 -50.149  14.385  1.00  0.00    -0.247 OA
HETATM    4  N   UNL     1     -40.036 -50.149  13.060  1.00  0.00    -0.308 N 
HETATM    5  H   UNL     1     -40.176 -52.546  13.476  1.00  0.00     0.164 HD
HETATM    6  H   UNL     1     -39.129 -50.593  13.056  1.00  0.00     0.170 HD
ENDROOT
BRANCH   1   7
HETATM    7  C   UNL     1     -41.570 -52.780  15.058  1.00  0.00     0.159 C 
BRANCH   7   8
HETATM    8  C   UNL     1     -42.528 -53.724  14.268  1.00  0.00     0.236 C 
HETATM    9  C   UNL     1     -41.763 -54.193  13.011  1.00  0.00     0.044 C 
BRANCH   8  10
HETATM   10  N   UNL     1     -43.820 -53.068  13.907  1.00  0.00     0.098 N 
HETATM   11  C   UNL     1     -44.588 -52.608  15.098  1.00  0.00     0.299 C 
HETATM   12  C   UNL     1     -45.180 -53.751  15.943  1.00  0.00     0.198 C 
HETATM   13  O   UNL     1     -46.033 -54.591  15.153  1.00  0.00    -0.388 OA
HETATM   14  C   UNL     1     -45.335 -55.101  14.011  1.00  0.00     0.198 C 
HETATM   15  C   UNL     1     -44.748 -53.960  13.160  1.00  0.00     0.299 C 
ENDBRANCH   8  10
ENDBRANCH   7   8
ENDBRANCH   1   7
BRANCH   4  16
HETATM   16  C   UNL     1     -40.129 -48.854  12.505  1.00  0.00     0.051 A 
HETATM   17  C   UNL     1     -39.641 -47.720  13.129  1.00  0.00     0.035 A 
HETATM   18  C   UNL     1     -39.715 -46.478  12.482  1.00  0.00     0.050 A 
HETATM   19  C   UNL     1     -40.298 -46.357  11.226  1.00  0.00     0.102 A 
HETATM   20  N   UNL     1     -40.828 -47.458  10.640  1.00  0.00    -0.350 N 
HETATM   21  C   UNL     1     -40.735 -48.658  11.272  1.00  0.00     0.119 A 
ATOM     22  HN  UNL     1     -41.293 -47.387   9.735  1.00  0.00     0.166 HD
BRANCH  19  23
HETATM   23  N   UNL     1     -40.275 -45.165  10.518  1.00  0.00    -0.376 N 
HETATM   24  C   UNL     1     -40.952 -44.013  11.107  1.00  0.00     0.150 C 
HETATM   25  C   UNL     1     -39.219 -44.834   9.571  1.00  0.00     0.150 C 
ENDBRANCH  19  23
ENDBRANCH   4  16
TORSDOF 5
ENDMDL
MODEL 7
REMARK VINA RESULT:      -5.6      2.976      8.273
REMARK  5 active torsions:
REMARK  status: ('A' for Active; 'I' for Inactive)
REMARK    1  A    between atoms: C_2  and  C_3 
REMARK    2  A    between atoms: C_2  and  N_18 
REMARK    3  A    between atoms: C_3  and  N_4 
REMARK       I    between atoms: N_4  and  C_5 
REMARK       I    between atoms: C_5  and  N_7 
REMARK    4  A    between atoms: N_7  and  C_8 
REMARK    5  A    between atoms: C_11  and  N_15 
ROOT
HETATM    1  N   UNL     1     -41.222 -47.450  10.167  1.00  0.00    -0.341 N 
HETATM    2  C   UNL     1     -41.462 -48.394  11.138  1.00  0.00     0.320 C 
HETATM    3  O   UNL     1     -42.277 -48.210  12.032  1.00  0.00    -0.247 OA
HETATM    4  N   UNL     1     -40.713 -49.534  10.939  1.00  0.00    -0.308 N 
HETATM    5  H   UNL     1     -40.304 -47.448   9.747  1.00  0.00     0.164 HD
HETATM    6  H   UNL     1     -40.395 -49.688   9.993  1.00  0.00     0.170 HD
ENDROOT
BRANCH   1   7
HETATM    7  C   UNL     1     -41.934 -46.177  10.225  1.00  0.00     0.159 C 
BRANCH   7   8
HETATM    8  C   UNL     1     -41.044 -45.018  10.772  1.00  0.00     0.236 C 
HETATM    9  C   UNL     1     -39.626 -45.231  10.199  1.00  0.00     0.044 C 
BRANCH   8  10
HETATM   10  N   UNL     1     -41.025 -44.957  12.264  1.00  0.00     0.098 N 
HETATM   11  C   UNL     1     -42.348 -44.591  12.845  1.00  0.00     0.299 C 
HETATM   12  C   UNL     1     -42.760 -43.129  12.594  1.00  0.00     0.198 C 
HETATM   13  O   UNL     1     -41.776 -42.219  13.105  1.00  0.00    -0.388 OA
HETATM   14  C   UNL     1     -40.485 -42.493  12.548  1.00  0.00     0.198 C 
HETATM   15  C   UNL     1     -40.067 -43.953  12.803  1.00  0.00     0.299 C 
ENDBRANCH   8  10
ENDBRANCH   7   8
ENDBRANCH   1   7
BRANCH   4  16
HETATM   16  C   UNL     1     -40.659 -50.628  11.830  1.00  0.00     0.051 A 
HETATM   17  C   UNL     1     -41.542 -51.692  11.786  1.00  0.00     0.035 A 
HETATM   18  C   UNL     1     -41.382 -52.772  12.665  1.00  0.00     0.050 A 
HETATM   19  C   UNL     1     -40.361 -52.783  13.609  1.00  0.00     0.102 A 
HETATM   20  N   UNL     1     -39.532 -51.714  13.691  1.00  0.00    -0.350 N 
HETATM   21  C   UNL     1     -39.689 -50.682  12.821  1.00  0.00     0.119 A 
ATOM     22  HN  UNL     1     -38.798 -51.684  14.399  1.00  0.00     0.166 HD
BRANCH  19  23
HETATM   23  N   UNL     1     -40.111 -53.890  14.406  1.00  0.00    -0.376 N 
HETATM   24  C   UNL     1     -41.241 -54.483  15.116  1.00  0.00     0.150 C 
HETATM   25  C   UNL     1     -38.997 -54.796  14.165  1.00  0.00     0.150 C 
ENDBRANCH  19  23
ENDBRANCH   4  16
TORSDOF 5
ENDMDL
MODEL 8
REMARK VINA RESULT:      -5.6      2.745      7.723
REMARK  5 active torsions:
REMARK  status: ('A' for Active; 'I' for Inactive)
REMARK    1  A    between atoms: C_2  and  C_3 
REMARK    2  A    between atoms: C_2  and  N_18 
REMARK    3  A    between atoms: C_3  and  N_4 
REMARK       I    between atoms: N_4  and  C_5 
REMARK       I    between atoms: C_5  and  N_7 
REMARK    4  A    between atoms: N_7  and  C_8 
REMARK    5  A    between atoms: C_11  and  N_15 
ROOT
HETATM    1  N   UNL     1     -39.626 -48.392  11.455  1.00  0.00    -0.341 N 
HETATM    2  C   UNL     1     -40.003 -49.301  12.416  1.00  0.00     0.320 C 
HETATM    3  O   UNL     1     -40.466 -48.949  13.492  1.00  0.00    -0.247 OA
HETATM    4  N   UNL     1     -39.825 -50.599  11.989  1.00  0.00    -0.308 N 
HETATM    5  H   UNL     1     -38.895 -48.675  10.818  1.00  0.00     0.164 HD
HETATM    6  H   UNL     1     -39.806 -50.731  10.988  1.00  0.00     0.170 HD
ENDROOT
BRANCH   1   7
HETATM    7  C   UNL     1     -39.749 -46.965  11.741  1.00  0.00     0.159 C 
BRANCH   7   8
HETATM    8  C   UNL     1     -40.613 -46.215  10.681  1.00  0.00     0.236 C 
HETATM    9  C   UNL     1     -39.739 -45.076  10.112  1.00  0.00     0.044 C 
BRANCH   8  10
HETATM   10  N   UNL     1     -41.894 -45.691  11.243  1.00  0.00     0.098 N 
HETATM   11  C   UNL     1     -42.684 -46.736  11.952  1.00  0.00     0.299 C 
HETATM   12  C   UNL     1     -43.300 -47.797  11.021  1.00  0.00     0.198 C 
HETATM   13  O   UNL     1     -44.140 -47.190  10.030  1.00  0.00    -0.388 OA
HETATM   14  C   UNL     1     -43.421 -46.202   9.282  1.00  0.00     0.198 C 
HETATM   15  C   UNL     1     -42.810 -45.136  10.210  1.00  0.00     0.299 C 
ENDBRANCH   8  10
ENDBRANCH   7   8
ENDBRANCH   1   7
BRANCH   4  16
HETATM   16  C   UNL     1     -40.016 -51.744  12.793  1.00  0.00     0.051 A 
HETATM   17  C   UNL     1     -39.116 -52.156  13.759  1.00  0.00     0.035 A 
HETATM   18  C   UNL     1     -39.407 -53.268  14.561  1.00  0.00     0.050 A 
HETATM   19  C   UNL     1     -40.583 -53.991  14.384  1.00  0.00     0.102 A 
HETATM   20  N   UNL     1     -41.437 -53.622  13.399  1.00  0.00    -0.350 N 
HETATM   21  C   UNL     1     -41.148 -52.532  12.640  1.00  0.00     0.119 A 
ATOM     22  HN  UNL     1     -42.288 -54.158  13.227  1.00  0.00     0.166 HD
BRANCH  19  23
HETATM   23  N   UNL     1     -40.948 -55.017  15.241  1.00  0.00    -0.376 N 
HETATM   24  C   UNL     1     -39.946 -55.501  16.187  1.00  0.00     0.150 C 
HETATM   25  C   UNL     1     -42.329 -55.254  15.640  1.00  0.00     0.150 C 
ENDBRANCH  19  23
ENDBRANCH   4  16
TORSDOF 5
ENDMDL
MODEL 9
REMARK VINA RESULT:      -5.5      2.574      8.211
REMARK  5 active torsions:
REMARK  status: ('A' for Active; 'I' for Inactive)
REMARK    1  A    between atoms: C_2  and  C_3 
REMARK    2  A    between atoms: C_2  and  N_18 
REMARK    3  A    between atoms: C_3  and  N_4 
REMARK       I    between atoms: N_4  and  C_5 
REMARK       I    between atoms: C_5  and  N_7 
REMARK    4  A    between atoms: N_7  and  C_8 
REMARK    5  A    between atoms: C_11  and  N_15 
ROOT
HETATM    1  N   UNL     1     -41.801 -49.363  10.927  1.00  0.00    -0.341 N 
HETATM    2  C   UNL     1     -41.467 -50.149  12.006  1.00  0.00     0.320 C 
HETATM    3  O   UNL     1     -40.682 -49.771  12.864  1.00  0.00    -0.247 OA
HETATM    4  N   UNL     1     -42.147 -51.348  11.993  1.00  0.00    -0.308 N 
HETATM    5  H   UNL     1     -42.077 -49.838  10.081  1.00  0.00     0.164 HD
HETATM    6  H   UNL     1     -43.007 -51.357  11.465  1.00  0.00     0.170 HD
ENDROOT
BRANCH   1   7
HETATM    7  C   UNL     1     -41.172 -48.053  10.784  1.00  0.00     0.159 C 
BRANCH   7   8
HETATM    8  C   UNL     1     -42.148 -46.881  11.115  1.00  0.00     0.236 C 
HETATM    9  C   UNL     1     -43.562 -47.345  10.704  1.00  0.00     0.044 C 
BRANCH   8  10
HETATM   10  N   UNL     1     -41.773 -45.605  10.435  1.00  0.00     0.098 N 
HETATM   11  C   UNL     1     -40.320 -45.297  10.544  1.00  0.00     0.299 C 
HETATM   12  C   UNL     1     -39.866 -44.904  11.962  1.00  0.00     0.198 C 
HETATM   13  O   UNL     1     -40.604 -43.773  12.446  1.00  0.00    -0.388 OA
HETATM   14  C   UNL     1     -42.014 -44.026  12.407  1.00  0.00     0.198 C 
HETATM   15  C   UNL     1     -42.472 -44.413  10.989  1.00  0.00     0.299 C 
ENDBRANCH   8  10
ENDBRANCH   7   8
ENDBRANCH   1   7
BRANCH   4  16
HETATM   16  C   UNL     1     -41.931 -52.405  12.903  1.00  0.00     0.051 A 
HETATM   17  C   UNL     1     -40.856 -53.273  12.824  1.00  0.00     0.035 A 
HETATM   18  C   UNL     1     -40.677 -54.259  13.805  1.00  0.00     0.050 A 
HETATM   19  C   UNL     1     -41.581 -54.401  14.852  1.00  0.00     0.102 A 
HETATM   20  N   UNL     1     -42.666 -53.590  14.896  1.00  0.00    -0.350 N 
HETATM   21  C   UNL     1     -42.817 -52.628  13.947  1.00  0.00     0.119 A 
ATOM     22  HN  UNL     1     -43.361 -53.699  15.635  1.00  0.00     0.166 HD
BRANCH  19  23
HETATM   23  N   UNL     1     -41.361 -55.287  15.895  1.00  0.00    -0.376 N 
HETATM   24  C   UNL     1     -39.977 -55.567  16.266  1.00  0.00     0.150 C 
HETATM   25  C   UNL     1     -42.334 -55.509  16.956  1.00  0.00     0.150 C 
ENDBRANCH  19  23
ENDBRANCH   4  16
TORSDOF 5
ENDMDL
