MODEL 1
REMARK VINA RESULT:      -6.3      0.000      0.000
REMARK  5 active torsions:
REMARK  status: ('A' for Active; 'I' for Inactive)
REMARK    1  A    between atoms: N_2  and  C_4 
REMARK    2  A    between atoms: C_4  and  C_5 
REMARK    3  A    between atoms: C_5  and  N_6 
REMARK    4  A    between atoms: C_9  and  N_10 
REMARK       I    between atoms: N_10  and  C_11 
REMARK       I    between atoms: C_11  and  N_13 
REMARK    5  A    between atoms: N_13  and  C_14 
ROOT
HETATM    1  N   UNL     1     -40.435 -51.148  11.644  1.00  0.00    -0.294 N 
HETATM    2  C   UNL     1     -41.123 -52.228  12.147  1.00  0.00     0.322 C 
HETATM    3  O   UNL     1     -40.635 -53.354  12.097  1.00  0.00    -0.247 OA
HETATM    4  N   UNL     1     -42.329 -51.954  12.712  1.00  0.00    -0.338 N 
HETATM    5  H   UNL     1     -39.532 -51.367  11.253  1.00  0.00     0.172 HD
HETATM    6  H   UNL     1     -42.622 -50.983  12.615  1.00  0.00     0.164 HD
ENDROOT
BRANCH   1   7
HETATM    7  C   UNL     1     -40.856 -49.837  11.638  1.00  0.00     0.125 A 
HETATM    8  C   UNL     1     -40.645 -48.883  12.660  1.00  0.00     0.069 A 
HETATM    9  C   UNL     1     -41.230 -47.722  12.199  1.00  0.00     0.114 A 
HETATM   10  N   UNL     1     -41.745 -48.029  10.976  1.00  0.00    -0.300 N 
HETATM   11  N   UNL     1     -41.536 -49.299  10.623  1.00  0.00    -0.283 N 
ATOM     12  HN  UNL     1     -41.831 -49.760   9.762  1.00  0.00     0.188 HD
BRANCH  10  13
HETATM   13  C   UNL     1     -42.424 -47.157  10.036  1.00  0.00     0.178 C 
BRANCH  13  14
HETATM   14  C   UNL     1     -43.936 -47.414  10.015  1.00  0.00     0.293 C 
BRANCH  14  15
HETATM   15  N   UNL     1     -44.541 -47.367   8.665  1.00  0.00     0.081 N 
HETATM   16  C   UNL     1     -43.611 -47.935   7.684  1.00  0.00     0.309 C 
HETATM   17  C   UNL     1     -45.823 -48.068   8.599  1.00  0.00     0.309 C 
ENDBRANCH  14  15
ENDBRANCH  13  14
ENDBRANCH  10  13
ENDBRANCH   1   7
BRANCH   4  18
HETATM   18  C   UNL     1     -43.216 -52.887  13.353  1.00  0.00     0.090 C 
HETATM   19  C   UNL     1     -44.307 -53.402  12.382  1.00  0.00     0.030 C 
HETATM   20  C   UNL     1     -45.616 -53.006  13.090  1.00  0.00    -0.012 C 
HETATM   21  C   UNL     1     -45.782 -51.477  13.037  1.00  0.00     0.005 C 
HETATM   22  C   UNL     1     -45.246 -53.241  14.554  1.00  0.00     0.011 C 
HETATM   23  C   UNL     1     -44.746 -50.980  14.056  1.00  0.00     0.007 C 
HETATM   24  C   UNL     1     -44.053 -52.282  14.504  1.00  0.00     0.009 C 
ENDBRANCH   4  18
TORSDOF 5
ENDMDL
MODEL 2
REMARK VINA RESULT:      -5.9      1.246      1.812
REMARK  5 active torsions:
REMARK  status: ('A' for Active; 'I' for Inactive)
REMARK    1  A    between atoms: N_2  and  C_4 
REMARK    2  A    between atoms: C_4  and  C_5 
REMARK    3  A    between atoms: C_5  and  N_6 
REMARK    4  A    between atoms: C_9  and  N_10 
REMARK       I    between atoms: N_10  and  C_11 
REMARK       I    between atoms: C_11  and  N_13 
REMARK    5  A    between atoms: N_13  and  C_14 
ROOT
HETATM    1  N   UNL     1     -41.488 -52.111  12.595  1.00  0.00    -0.294 N 
HETATM    2  C   UNL     1     -42.641 -52.844  12.765  1.00  0.00     0.322 C 
HETATM    3  O   UNL     1     -42.592 -54.067  12.855  1.00  0.00    -0.247 OA
HETATM    4  N   UNL     1     -43.792 -52.127  12.855  1.00  0.00    -0.338 N 
HETATM    5  H   UNL     1     -40.642 -52.657  12.559  1.00  0.00     0.172 HD
HETATM    6  H   UNL     1     -43.674 -51.127  12.695  1.00  0.00     0.164 HD
ENDROOT
BRANCH   1   7
HETATM    7  C   UNL     1     -41.395 -50.742  12.486  1.00  0.00     0.125 A 
HETATM    8  C   UNL     1     -40.832 -49.860  13.436  1.00  0.00     0.069 A 
HETATM    9  C   UNL     1     -40.953 -48.602  12.882  1.00  0.00     0.114 A 
HETATM   10  N   UNL     1     -41.562 -48.788  11.678  1.00  0.00    -0.300 N 
HETATM   11  N   UNL     1     -41.842 -50.068  11.424  1.00  0.00    -0.283 N 
ATOM     12  HN  UNL     1     -42.300 -50.449  10.596  1.00  0.00     0.188 HD
BRANCH  10  13
HETATM   13  C   UNL     1     -41.885 -47.799  10.666  1.00  0.00     0.178 C 
BRANCH  13  14
HETATM   14  C   UNL     1     -43.388 -47.500  10.624  1.00  0.00     0.293 C 
BRANCH  14  15
HETATM   15  N   UNL     1     -43.966 -47.481   9.261  1.00  0.00     0.081 N 
HETATM   16  C   UNL     1     -45.430 -47.473   9.343  1.00  0.00     0.309 C 
HETATM   17  C   UNL     1     -43.506 -46.339   8.472  1.00  0.00     0.309 C 
ENDBRANCH  14  15
ENDBRANCH  13  14
ENDBRANCH  10  13
ENDBRANCH   1   7
BRANCH   4  18
HETATM   18  C   UNL     1     -45.116 -52.641  13.085  1.00  0.00     0.090 C 
HETATM   19  C   UNL     1     -46.188 -51.526  13.009  1.00  0.00     0.030 C 
HETATM   20  C   UNL     1     -46.860 -51.597  14.392  1.00  0.00    -0.012 C 
HETATM   21  C   UNL     1     -45.882 -51.082  15.462  1.00  0.00     0.005 C 
HETATM   22  C   UNL     1     -46.857 -53.104  14.648  1.00  0.00     0.011 C 
HETATM   23  C   UNL     1     -44.865 -52.226  15.582  1.00  0.00     0.007 C 
HETATM   24  C   UNL     1     -45.337 -53.219  14.503  1.00  0.00     0.009 C 
ENDBRANCH   4  18
TORSDOF 5
ENDMDL
MODEL 3
REMARK VINA RESULT:      -5.8      3.515      5.044
REMARK  5 active torsions:
REMARK  status: ('A' for Active; 'I' for Inactive)
REMARK    1  A    between atoms: N_2  and  C_4 
REMARK    2  A    between atoms: C_4  and  C_5 
REMARK    3  A    between atoms: C_5  and  N_6 
REMARK    4  A    between atoms: C_9  and  N_10 
REMARK       I    between atoms: N_10  and  C_11 
REMARK       I    between atoms: C_11  and  N_13 
REMARK    5  A    between atoms: N_13  and  C_14 
ROOT
HETATM    1  N   UNL     1     -43.756 -53.218  12.025  1.00  0.00    -0.294 N 
HETATM    2  C   UNL     1     -44.918 -52.681  12.529  1.00  0.00     0.322 C 
HETATM    3  O   UNL     1     -45.982 -52.837  11.938  1.00  0.00    -0.247 OA
HETATM    4  N   UNL     1     -44.801 -52.016  13.709  1.00  0.00    -0.338 N 
HETATM    5  H   UNL     1     -43.866 -53.731  11.164  1.00  0.00     0.172 HD
HETATM    6  H   UNL     1     -43.842 -51.916  14.038  1.00  0.00     0.164 HD
ENDROOT
BRANCH   1   7
HETATM    7  C   UNL     1     -42.500 -53.127  12.582  1.00  0.00     0.125 A 
HETATM    8  C   UNL     1     -41.857 -54.110  13.368  1.00  0.00     0.069 A 
HETATM    9  C   UNL     1     -40.624 -53.576  13.681  1.00  0.00     0.114 A 
HETATM   10  N   UNL     1     -40.595 -52.348  13.093  1.00  0.00    -0.300 N 
HETATM   11  N   UNL     1     -41.717 -52.056  12.432  1.00  0.00    -0.283 N 
ATOM     12  HN  UNL     1     -41.931 -51.199  11.922  1.00  0.00     0.188 HD
BRANCH  10  13
HETATM   13  C   UNL     1     -39.511 -51.383  13.067  1.00  0.00     0.178 C 
BRANCH  13  14
HETATM   14  C   UNL     1     -39.678 -50.371  11.928  1.00  0.00     0.293 C 
BRANCH  14  15
HETATM   15  N   UNL     1     -38.572 -49.395  11.815  1.00  0.00     0.081 N 
HETATM   16  C   UNL     1     -38.226 -48.882  13.144  1.00  0.00     0.309 C 
HETATM   17  C   UNL     1     -37.385 -49.961  11.176  1.00  0.00     0.309 C 
ENDBRANCH  14  15
ENDBRANCH  13  14
ENDBRANCH  10  13
ENDBRANCH   1   7
BRANCH   4  18
HETATM   18  C   UNL     1     -45.862 -51.412  14.469  1.00  0.00     0.090 C 
HETATM   19  C   UNL     1     -45.327 -50.686  15.728  1.00  0.00     0.030 C 
HETATM   20  C   UNL     1     -46.075 -51.386  16.877  1.00  0.00    -0.012 C 
HETATM   21  C   UNL     1     -45.539 -52.820  17.035  1.00  0.00     0.005 C 
HETATM   22  C   UNL     1     -47.444 -51.620  16.242  1.00  0.00     0.011 C 
HETATM   23  C   UNL     1     -46.135 -53.548  15.823  1.00  0.00     0.007 C 
HETATM   24  C   UNL     1     -46.869 -52.421  15.071  1.00  0.00     0.009 C 
ENDBRANCH   4  18
TORSDOF 5
ENDMDL
MODEL 4
REMARK VINA RESULT:      -5.5      1.677      2.559
REMARK  5 active torsions:
REMARK  status: ('A' for Active; 'I' for Inactive)
REMARK    1  A    between atoms: N_2  and  C_4 
REMARK    2  A    between atoms: C_4  and  C_5 
REMARK    3  A    between atoms: C_5  and  N_6 
REMARK    4  A    between atoms: C_9  and  N_10 
REMARK       I    between atoms: N_10  and  C_11 
REMARK       I    between atoms: C_11  and  N_13 
REMARK    5  A    between atoms: N_13  and  C_14 
ROOT
HETATM    1  N   UNL     1     -40.821 -50.774  11.410  1.00  0.00    -0.294 N 
HETATM    2  C   UNL     1     -41.352 -51.927  11.942  1.00  0.00     0.322 C 
HETATM    3  O   UNL     1     -40.757 -52.995  11.829  1.00  0.00    -0.247 OA
HETATM    4  N   UNL     1     -42.530 -51.787  12.605  1.00  0.00    -0.338 N 
HETATM    5  H   UNL     1     -39.935 -50.892  10.945  1.00  0.00     0.172 HD
HETATM    6  H   UNL     1     -42.929 -50.851  12.554  1.00  0.00     0.164 HD
ENDROOT
BRANCH   1   7
HETATM    7  C   UNL     1     -41.374 -49.514  11.466  1.00  0.00     0.125 A 
HETATM    8  C   UNL     1     -42.082 -48.956  12.554  1.00  0.00     0.069 A 
HETATM    9  C   UNL     1     -42.422 -47.681  12.151  1.00  0.00     0.114 A 
HETATM   10  N   UNL     1     -41.924 -47.548  10.891  1.00  0.00    -0.300 N 
HETATM   11  N   UNL     1     -41.295 -48.643  10.458  1.00  0.00    -0.283 N 
ATOM     12  HN  UNL     1     -40.849 -48.784   9.551  1.00  0.00     0.188 HD
BRANCH  10  13
HETATM   13  C   UNL     1     -41.959 -46.387  10.022  1.00  0.00     0.178 C 
BRANCH  13  14
HETATM   14  C   UNL     1     -41.899 -45.079  10.821  1.00  0.00     0.293 C 
BRANCH  14  15
HETATM   15  N   UNL     1     -40.528 -44.630  11.149  1.00  0.00     0.081 N 
HETATM   16  C   UNL     1     -39.618 -44.967  10.049  1.00  0.00     0.309 C 
HETATM   17  C   UNL     1     -40.458 -43.196  11.429  1.00  0.00     0.309 C 
ENDBRANCH  14  15
ENDBRANCH  13  14
ENDBRANCH  10  13
ENDBRANCH   1   7
BRANCH   4  18
HETATM   18  C   UNL     1     -43.263 -52.816  13.294  1.00  0.00     0.090 C 
HETATM   19  C   UNL     1     -44.329 -53.471  12.381  1.00  0.00     0.030 C 
HETATM   20  C   UNL     1     -45.640 -53.232  13.153  1.00  0.00    -0.012 C 
HETATM   21  C   UNL     1     -45.995 -51.736  13.103  1.00  0.00     0.005 C 
HETATM   22  C   UNL     1     -45.171 -53.406  14.597  1.00  0.00     0.011 C 
HETATM   23  C   UNL     1     -44.980 -51.106  14.066  1.00  0.00     0.007 C 
HETATM   24  C   UNL     1     -44.110 -52.308  14.484  1.00  0.00     0.009 C 
ENDBRANCH   4  18
TORSDOF 5
ENDMDL
MODEL 5
REMARK VINA RESULT:      -5.5      3.257      4.836
REMARK  5 active torsions:
REMARK  status: ('A' for Active; 'I' for Inactive)
REMARK    1  A    between atoms: N_2  and  C_4 
REMARK    2  A    between atoms: C_4  and  C_5 
REMARK    3  A    between atoms: C_5  and  N_6 
REMARK    4  A    between atoms: C_9  and  N_10 
REMARK       I    between atoms: N_10  and  C_11 
REMARK       I    between atoms: C_11  and  N_13 
REMARK    5  A    between atoms: N_13  and  C_14 
ROOT
HETATM    1  N   UNL     1     -41.921 -54.769  15.334  1.00  0.00    -0.294 N 
HETATM    2  C   UNL     1     -43.155 -54.537  15.896  1.00  0.00     0.322 C 
HETATM    3  O   UNL     1     -43.601 -55.295  16.752  1.00  0.00    -0.247 OA
HETATM    4  N   UNL     1     -43.803 -53.422  15.465  1.00  0.00    -0.338 N 
HETATM    5  H   UNL     1     -41.443 -55.584  15.685  1.00  0.00     0.172 HD
HETATM    6  H   UNL     1     -43.332 -52.934  14.705  1.00  0.00     0.164 HD
ENDROOT
BRANCH   1   7
HETATM    7  C   UNL     1     -41.299 -54.002  14.374  1.00  0.00     0.125 A 
HETATM    8  C   UNL     1     -41.583 -53.996  12.990  1.00  0.00     0.069 A 
HETATM    9  C   UNL     1     -40.721 -53.066  12.446  1.00  0.00     0.114 A 
HETATM   10  N   UNL     1     -39.991 -52.585  13.490  1.00  0.00    -0.300 N 
HETATM   11  N   UNL     1     -40.319 -53.140  14.659  1.00  0.00    -0.283 N 
ATOM     12  HN  UNL     1     -39.909 -52.948  15.572  1.00  0.00     0.188 HD
BRANCH  10  13
HETATM   13  C   UNL     1     -38.974 -51.551  13.481  1.00  0.00     0.178 C 
BRANCH  13  14
HETATM   14  C   UNL     1     -39.591 -50.149  13.416  1.00  0.00     0.293 C 
BRANCH  14  15
HETATM   15  N   UNL     1     -39.351 -49.438  12.140  1.00  0.00     0.081 N 
HETATM   16  C   UNL     1     -38.099 -49.908  11.537  1.00  0.00     0.309 C 
HETATM   17  C   UNL     1     -40.452 -49.602  11.190  1.00  0.00     0.309 C 
ENDBRANCH  14  15
ENDBRANCH  13  14
ENDBRANCH  10  13
ENDBRANCH   1   7
BRANCH   4  18
HETATM   18  C   UNL     1     -45.073 -52.927  15.927  1.00  0.00     0.090 C 
HETATM   19  C   UNL     1     -46.248 -53.488  15.090  1.00  0.00     0.030 C 
HETATM   20  C   UNL     1     -46.929 -52.217  14.551  1.00  0.00    -0.012 C 
HETATM   21  C   UNL     1     -46.021 -51.560  13.497  1.00  0.00     0.005 C 
HETATM   22  C   UNL     1     -46.780 -51.272  15.743  1.00  0.00     0.011 C 
HETATM   23  C   UNL     1     -44.898 -50.943  14.343  1.00  0.00     0.007 C 
HETATM   24  C   UNL     1     -45.254 -51.398  15.772  1.00  0.00     0.009 C 
ENDBRANCH   4  18
TORSDOF 5
ENDMDL
MODEL 6
REMARK VINA RESULT:      -5.3      3.235      6.099
REMARK  5 active torsions:
REMARK  status: ('A' for Active; 'I' for Inactive)
REMARK    1  A    between atoms: N_2  and  C_4 
REMARK    2  A    between atoms: C_4  and  C_5 
REMARK    3  A    between atoms: C_5  and  N_6 
REMARK    4  A    between atoms: C_9  and  N_10 
REMARK       I    between atoms: N_10  and  C_11 
REMARK       I    between atoms: C_11  and  N_13 
REMARK    5  A    between atoms: N_13  and  C_14 
ROOT
HETATM    1  N   UNL     1     -40.910 -51.573  11.363  1.00  0.00    -0.294 N 
HETATM    2  C   UNL     1     -40.110 -50.586  11.891  1.00  0.00     0.322 C 
HETATM    3  O   UNL     1     -39.561 -49.771  11.156  1.00  0.00    -0.247 OA
HETATM    4  N   UNL     1     -40.007 -50.567  13.247  1.00  0.00    -0.338 N 
HETATM    5  H   UNL     1     -40.997 -51.555  10.359  1.00  0.00     0.172 HD
HETATM    6  H   UNL     1     -40.468 -51.349  13.711  1.00  0.00     0.164 HD
ENDROOT
BRANCH   1   7
HETATM    7  C   UNL     1     -41.588 -52.544  12.066  1.00  0.00     0.125 A 
HETATM    8  C   UNL     1     -41.016 -53.528  12.904  1.00  0.00     0.069 A 
HETATM    9  C   UNL     1     -42.082 -54.253  13.394  1.00  0.00     0.114 A 
HETATM   10  N   UNL     1     -43.194 -53.692  12.842  1.00  0.00    -0.300 N 
HETATM   11  N   UNL     1     -42.918 -52.665  12.035  1.00  0.00    -0.283 N 
ATOM     12  HN  UNL     1     -43.579 -52.096  11.507  1.00  0.00     0.188 HD
BRANCH  10  13
HETATM   13  C   UNL     1     -44.586 -54.040  13.059  1.00  0.00     0.178 C 
BRANCH  13  14
HETATM   14  C   UNL     1     -45.216 -53.193  14.171  1.00  0.00     0.293 C 
BRANCH  14  15
HETATM   15  N   UNL     1     -46.491 -52.545  13.792  1.00  0.00     0.081 N 
HETATM   16  C   UNL     1     -46.773 -51.434  14.708  1.00  0.00     0.309 C 
HETATM   17  C   UNL     1     -46.488 -52.062  12.412  1.00  0.00     0.309 C 
ENDBRANCH  14  15
ENDBRANCH  13  14
ENDBRANCH  10  13
ENDBRANCH   1   7
BRANCH   4  18
HETATM   18  C   UNL     1     -39.284 -49.615  14.046  1.00  0.00     0.090 C 
HETATM   19  C   UNL     1     -37.780 -49.972  14.145  1.00  0.00     0.030 C 
HETATM   20  C   UNL     1     -37.554 -50.109  15.661  1.00  0.00    -0.012 C 
HETATM   21  C   UNL     1     -38.258 -51.380  16.169  1.00  0.00     0.005 C 
HETATM   22  C   UNL     1     -38.459 -49.001  16.198  1.00  0.00     0.011 C 
HETATM   23  C   UNL     1     -39.742 -50.990  16.137  1.00  0.00     0.007 C 
HETATM   24  C   UNL     1     -39.713 -49.573  15.532  1.00  0.00     0.009 C 
ENDBRANCH   4  18
TORSDOF 5
ENDMDL
MODEL 7
REMARK VINA RESULT:      -5.2      3.303      7.292
REMARK  5 active torsions:
REMARK  status: ('A' for Active; 'I' for Inactive)
REMARK    1  A    between atoms: N_2  and  C_4 
REMARK    2  A    between atoms: C_4  and  C_5 
REMARK    3  A    between atoms: C_5  and  N_6 
REMARK    4  A    between atoms: C_9  and  N_10 
REMARK       I    between atoms: N_10  and  C_11 
REMARK       I    between atoms: C_11  and  N_13 
REMARK    5  A    between atoms: N_13  and  C_14 
ROOT
HETATM    1  N   UNL     1     -42.715 -47.552  10.230  1.00  0.00    -0.294 N 
HETATM    2  C   UNL     1     -42.283 -46.248  10.314  1.00  0.00     0.322 C 
HETATM    3  O   UNL     1     -42.565 -45.442   9.432  1.00  0.00    -0.247 OA
HETATM    4  N   UNL     1     -41.573 -45.929  11.428  1.00  0.00    -0.338 N 
HETATM    5  H   UNL     1     -43.263 -47.764   9.411  1.00  0.00     0.172 HD
HETATM    6  H   UNL     1     -41.366 -46.723  12.033  1.00  0.00     0.164 HD
ENDROOT
BRANCH   1   7
HETATM    7  C   UNL     1     -42.480 -48.555  11.144  1.00  0.00     0.125 A 
HETATM    8  C   UNL     1     -43.158 -48.752  12.368  1.00  0.00     0.069 A 
HETATM    9  C   UNL     1     -42.588 -49.880  12.922  1.00  0.00     0.114 A 
HETATM   10  N   UNL     1     -41.633 -50.282  12.038  1.00  0.00    -0.300 N 
HETATM   11  N   UNL     1     -41.547 -49.494  10.965  1.00  0.00    -0.283 N 
ATOM     12  HN  UNL     1     -40.907 -49.588  10.176  1.00  0.00     0.188 HD
BRANCH  10  13
HETATM   13  C   UNL     1     -40.767 -51.444  12.109  1.00  0.00     0.178 C 
BRANCH  13  14
HETATM   14  C   UNL     1     -39.564 -51.200  13.027  1.00  0.00     0.293 C 
BRANCH  14  15
HETATM   15  N   UNL     1     -38.462 -50.439  12.397  1.00  0.00     0.081 N 
HETATM   16  C   UNL     1     -38.395 -49.093  12.975  1.00  0.00     0.309 C 
HETATM   17  C   UNL     1     -37.167 -51.104  12.536  1.00  0.00     0.309 C 
ENDBRANCH  14  15
ENDBRANCH  13  14
ENDBRANCH  10  13
ENDBRANCH   1   7
BRANCH   4  18
HETATM   18  C   UNL     1     -41.056 -44.634  11.783  1.00  0.00     0.090 C 
HETATM   19  C   UNL     1     -39.551 -44.502  11.443  1.00  0.00     0.030 C 
HETATM   20  C   UNL     1     -38.916 -44.167  12.804  1.00  0.00    -0.012 C 
HETATM   21  C   UNL     1     -38.971 -45.408  13.712  1.00  0.00     0.005 C 
HETATM   22  C   UNL     1     -39.987 -43.268  13.419  1.00  0.00     0.011 C 
HETATM   23  C   UNL     1     -40.454 -45.487  14.102  1.00  0.00     0.007 C 
HETATM   24  C   UNL     1     -41.082 -44.332  13.300  1.00  0.00     0.009 C 
ENDBRANCH   4  18
TORSDOF 5
ENDMDL
MODEL 8
REMARK VINA RESULT:      -5.2      3.687      7.291
REMARK  5 active torsions:
REMARK  status: ('A' for Active; 'I' for Inactive)
REMARK    1  A    between atoms: N_2  and  C_4 
REMARK    2  A    between atoms: C_4  and  C_5 
REMARK    3  A    between atoms: C_5  and  N_6 
REMARK    4  A    between atoms: C_9  and  N_10 
REMARK       I    between atoms: N_10  and  C_11 
REMARK       I    between atoms: C_11  and  N_13 
REMARK    5  A    between atoms: N_13  and  C_14 
ROOT
HETATM    1  N   UNL     1     -40.654 -49.540  10.738  1.00  0.00    -0.294 N 
HETATM    2  C   UNL     1     -41.186 -48.273  10.677  1.00  0.00     0.322 C 
HETATM    3  O   UNL     1     -42.082 -48.013   9.879  1.00  0.00    -0.247 OA
HETATM    4  N   UNL     1     -40.678 -47.373  11.560  1.00  0.00    -0.338 N 
HETATM    5  H   UNL     1     -41.061 -50.201  10.095  1.00  0.00     0.172 HD
HETATM    6  H   UNL     1     -39.895 -47.723  12.109  1.00  0.00     0.164 HD
ENDROOT
BRANCH   1   7
HETATM    7  C   UNL     1     -39.655 -49.971  11.583  1.00  0.00     0.125 A 
HETATM    8  C   UNL     1     -38.264 -49.839  11.374  1.00  0.00     0.069 A 
HETATM    9  C   UNL     1     -37.674 -50.401  12.488  1.00  0.00     0.114 A 
HETATM   10  N   UNL     1     -38.702 -50.827  13.273  1.00  0.00    -0.300 N 
HETATM   11  N   UNL     1     -39.902 -50.584  12.743  1.00  0.00    -0.283 N 
ATOM     12  HN  UNL     1     -40.813 -50.816  13.139  1.00  0.00     0.188 HD
BRANCH  10  13
HETATM   13  C   UNL     1     -38.641 -51.448  14.583  1.00  0.00     0.178 C 
BRANCH  13  14
HETATM   14  C   UNL     1     -39.719 -52.526  14.751  1.00  0.00     0.293 C 
BRANCH  14  15
HETATM   15  N   UNL     1     -39.491 -53.745  13.945  1.00  0.00     0.081 N 
HETATM   16  C   UNL     1     -39.085 -54.850  14.821  1.00  0.00     0.309 C 
HETATM   17  C   UNL     1     -40.667 -54.134  13.168  1.00  0.00     0.309 C 
ENDBRANCH  14  15
ENDBRANCH  13  14
ENDBRANCH  10  13
ENDBRANCH   1   7
BRANCH   4  18
HETATM   18  C   UNL     1     -41.094 -46.007  11.738  1.00  0.00     0.090 C 
HETATM   19  C   UNL     1     -40.053 -45.011  11.170  1.00  0.00     0.030 C 
HETATM   20  C   UNL     1     -39.694 -44.149  12.394  1.00  0.00    -0.012 C 
HETATM   21  C   UNL     1     -38.878 -44.992  13.390  1.00  0.00     0.005 C 
HETATM   22  C   UNL     1     -41.049 -44.045  13.093  1.00  0.00     0.011 C 
HETATM   23  C   UNL     1     -39.932 -45.926  13.999  1.00  0.00     0.007 C 
HETATM   24  C   UNL     1     -41.208 -45.563  13.215  1.00  0.00     0.009 C 
ENDBRANCH   4  18
TORSDOF 5
ENDMDL
MODEL 9
REMARK VINA RESULT:      -5.1      3.225      7.389
REMARK  5 active torsions:
REMARK  status: ('A' for Active; 'I' for Inactive)
REMARK    1  A    between atoms: N_2  and  C_4 
REMARK    2  A    between atoms: C_4  and  C_5 
REMARK    3  A    between atoms: C_5  and  N_6 
REMARK    4  A    between atoms: C_9  and  N_10 
REMARK       I    between atoms: N_10  and  C_11 
REMARK       I    between atoms: C_11  and  N_13 
REMARK    5  A    between atoms: N_13  and  C_14 
ROOT
HETATM    1  N   UNL     1     -42.682 -47.642  10.086  1.00  0.00    -0.294 N 
HETATM    2  C   UNL     1     -42.354 -46.305  10.111  1.00  0.00     0.322 C 
HETATM    3  O   UNL     1     -42.742 -45.554   9.222  1.00  0.00    -0.247 OA
HETATM    4  N   UNL     1     -41.620 -45.894  11.179  1.00  0.00    -0.338 N 
HETATM    5  H   UNL     1     -43.249 -47.923   9.302  1.00  0.00     0.172 HD
HETATM    6  H   UNL     1     -41.321 -46.649  11.795  1.00  0.00     0.164 HD
ENDROOT
BRANCH   1   7
HETATM    7  C   UNL     1     -42.322 -48.592  11.015  1.00  0.00     0.125 A 
HETATM    8  C   UNL     1     -43.011 -48.901  12.210  1.00  0.00     0.069 A 
HETATM    9  C   UNL     1     -42.285 -49.919  12.795  1.00  0.00     0.114 A 
HETATM   10  N   UNL     1     -41.239 -50.155  11.955  1.00  0.00    -0.300 N 
HETATM   11  N   UNL     1     -41.240 -49.362  10.882  1.00  0.00    -0.283 N 
ATOM     12  HN  UNL     1     -40.559 -49.348  10.122  1.00  0.00     0.188 HD
BRANCH  10  13
HETATM   13  C   UNL     1     -40.196 -51.157  12.071  1.00  0.00     0.178 C 
BRANCH  13  14
HETATM   14  C   UNL     1     -40.390 -52.038  13.310  1.00  0.00     0.293 C 
BRANCH  14  15
HETATM   15  N   UNL     1     -40.580 -53.475  13.011  1.00  0.00     0.081 N 
HETATM   16  C   UNL     1     -39.716 -54.281  13.881  1.00  0.00     0.309 C 
HETATM   17  C   UNL     1     -41.971 -53.901  13.160  1.00  0.00     0.309 C 
ENDBRANCH  14  15
ENDBRANCH  13  14
ENDBRANCH  10  13
ENDBRANCH   1   7
BRANCH   4  18
HETATM   18  C   UNL     1     -41.194 -44.551  11.470  1.00  0.00     0.090 C 
HETATM   19  C   UNL     1     -39.668 -44.376  11.274  1.00  0.00     0.030 C 
HETATM   20  C   UNL     1     -39.193 -43.900  12.658  1.00  0.00    -0.012 C 
HETATM   21  C   UNL     1     -39.294 -45.063  13.660  1.00  0.00     0.005 C 
HETATM   22  C   UNL     1     -40.357 -43.005  13.082  1.00  0.00     0.011 C 
HETATM   23  C   UNL     1     -40.805 -45.180  13.904  1.00  0.00     0.007 C 
HETATM   24  C   UNL     1     -41.391 -44.126  12.945  1.00  0.00     0.009 C 
ENDBRANCH   4  18
TORSDOF 5
ENDMDL
