MODEL 1
REMARK VINA RESULT:      -6.1      0.000      0.000
REMARK  6 active torsions:
REMARK  status: ('A' for Active; 'I' for Inactive)
REMARK       I    between atoms: N_1  and  C_2 
REMARK    1  A    between atoms: C_2  and  C_4 
REMARK    2  A    between atoms: C_4  and  C_5 
REMARK    3  A    between atoms: C_8  and  N_9 
REMARK       I    between atoms: N_9  and  C_10 
REMARK    4  A    between atoms: C_10  and  C_12 
REMARK    5  A    between atoms: C_12  and  C_13 
REMARK    6  A    between atoms: C_13  and  C_14 
ROOT
HETATM    1  C   UNL     1     -39.542 -49.457  12.084  1.00  0.00     0.026 A 
HETATM    2  C   UNL     1     -40.448 -48.416  11.991  1.00  0.00     0.078 A 
HETATM    3  S   UNL     1     -42.047 -49.037  11.876  1.00  0.00    -0.064 SA
HETATM    4  C   UNL     1     -41.420 -50.613  12.032  1.00  0.00     0.151 A 
HETATM    5  N   UNL     1     -40.120 -50.717  12.096  1.00  0.00    -0.339 N 
ATOM      6  HN  UNL     1     -39.605 -51.597  12.148  1.00  0.00     0.168 HD
ENDROOT
BRANCH   4   7
HETATM    7  N   UNL     1     -42.352 -51.608  12.064  1.00  0.00    -0.307 N 
HETATM    8  C   UNL     1     -42.203 -52.707  12.880  1.00  0.00     0.223 C 
HETATM    9  O   UNL     1     -41.341 -52.872  13.737  1.00  0.00    -0.273 OA
HETATM   10  H   UNL     1     -43.188 -51.473  11.517  1.00  0.00     0.171 HD
BRANCH   8  11
HETATM   11  C   UNL     1     -43.286 -53.748  12.657  1.00  0.00     0.103 C 
BRANCH  11  12
HETATM   12  C   UNL     1     -44.047 -54.036  13.949  1.00  0.00     0.014 C 
BRANCH  12  13
HETATM   13  C   UNL     1     -45.410 -53.345  14.010  1.00  0.00    -0.014 C 
HETATM   14  C   UNL     1     -45.834 -52.794  12.642  1.00  0.00     0.004 C 
HETATM   15  C   UNL     1     -46.644 -51.527  12.922  1.00  0.00     0.000 C 
HETATM   16  C   UNL     1     -46.676 -51.370  14.436  1.00  0.00     0.000 C 
HETATM   17  C   UNL     1     -45.449 -52.120  14.922  1.00  0.00     0.004 C 
ENDBRANCH  12  13
ENDBRANCH  11  12
ENDBRANCH   8  11
ENDBRANCH   4   7
BRANCH   1  18
HETATM   18  C   UNL     1     -38.051 -49.365  12.157  1.00  0.00     0.160 C 
BRANCH  18  19
HETATM   19  C   UNL     1     -37.335 -50.499  11.447  1.00  0.00     0.221 C 
HETATM   20  N   UNL     1     -37.083 -50.345  10.117  1.00  0.00    -0.370 N 
HETATM   21  H   UNL     1     -36.600 -51.070   9.608  1.00  0.00     0.159 HD
HETATM   22  H   UNL     1     -37.434 -49.535   9.602  1.00  0.00     0.159 HD
HETATM   23  O   UNL     1     -36.919 -51.488  12.047  1.00  0.00    -0.273 OA
ENDBRANCH  18  19
ENDBRANCH   1  18
TORSDOF 6
ENDMDL
MODEL 2
REMARK VINA RESULT:      -5.9      3.696      5.444
REMARK  6 active torsions:
REMARK  status: ('A' for Active; 'I' for Inactive)
REMARK       I    between atoms: N_1  and  C_2 
REMARK    1  A    between atoms: C_2  and  C_4 
REMARK    2  A    between atoms: C_4  and  C_5 
REMARK    3  A    between atoms: C_8  and  N_9 
REMARK       I    between atoms: N_9  and  C_10 
REMARK    4  A    between atoms: C_10  and  C_12 
REMARK    5  A    between atoms: C_12  and  C_13 
REMARK    6  A    between atoms: C_13  and  C_14 
ROOT
HETATM    1  C   UNL     1     -42.455 -47.106   9.949  1.00  0.00     0.026 A 
HETATM    2  C   UNL     1     -41.548 -46.297  10.611  1.00  0.00     0.078 A 
HETATM    3  S   UNL     1     -40.431 -47.262  11.492  1.00  0.00    -0.064 SA
HETATM    4  C   UNL     1     -41.186 -48.658  10.872  1.00  0.00     0.151 A 
HETATM    5  N   UNL     1     -42.235 -48.465  10.119  1.00  0.00    -0.339 N 
ATOM      6  HN  UNL     1     -42.810 -49.205   9.716  1.00  0.00     0.168 HD
ENDROOT
BRANCH   4   7
HETATM    7  N   UNL     1     -40.613 -49.840  11.239  1.00  0.00    -0.307 N 
HETATM    8  C   UNL     1     -41.249 -50.712  12.094  1.00  0.00     0.223 C 
HETATM    9  O   UNL     1     -42.399 -50.622  12.510  1.00  0.00    -0.273 OA
HETATM   10  H   UNL     1     -39.736 -50.081  10.804  1.00  0.00     0.171 HD
BRANCH   8  11
HETATM   11  C   UNL     1     -40.377 -51.897  12.470  1.00  0.00     0.103 C 
BRANCH  11  12
HETATM   12  C   UNL     1     -41.122 -53.214  12.271  1.00  0.00     0.014 C 
BRANCH  12  13
HETATM   13  C   UNL     1     -40.730 -54.285  13.289  1.00  0.00    -0.014 C 
HETATM   14  C   UNL     1     -41.713 -54.346  14.465  1.00  0.00     0.004 C 
HETATM   15  C   UNL     1     -40.891 -54.741  15.692  1.00  0.00     0.000 C 
HETATM   16  C   UNL     1     -39.457 -54.904  15.209  1.00  0.00     0.000 C 
HETATM   17  C   UNL     1     -39.379 -54.044  13.959  1.00  0.00     0.004 C 
ENDBRANCH  12  13
ENDBRANCH  11  12
ENDBRANCH   8  11
ENDBRANCH   4   7
BRANCH   1  18
HETATM   18  C   UNL     1     -43.614 -46.679   9.108  1.00  0.00     0.160 C 
BRANCH  18  19
HETATM   19  C   UNL     1     -44.084 -47.743   8.132  1.00  0.00     0.221 C 
HETATM   20  N   UNL     1     -45.384 -48.140   8.218  1.00  0.00    -0.370 N 
HETATM   21  H   UNL     1     -45.741 -48.838   7.582  1.00  0.00     0.159 HD
HETATM   22  H   UNL     1     -45.995 -47.795   8.961  1.00  0.00     0.159 HD
HETATM   23  O   UNL     1     -43.358 -48.180   7.242  1.00  0.00    -0.273 OA
ENDBRANCH  18  19
ENDBRANCH   1  18
TORSDOF 6
ENDMDL
MODEL 3
REMARK VINA RESULT:      -5.8      3.206      4.046
REMARK  6 active torsions:
REMARK  status: ('A' for Active; 'I' for Inactive)
REMARK       I    between atoms: N_1  and  C_2 
REMARK    1  A    between atoms: C_2  and  C_4 
REMARK    2  A    between atoms: C_4  and  C_5 
REMARK    3  A    between atoms: C_8  and  N_9 
REMARK       I    between atoms: N_9  and  C_10 
REMARK    4  A    between atoms: C_10  and  C_12 
REMARK    5  A    between atoms: C_12  and  C_13 
REMARK    6  A    between atoms: C_13  and  C_14 
ROOT
HETATM    1  C   UNL     1     -42.861 -47.236  10.712  1.00  0.00     0.026 A 
HETATM    2  C   UNL     1     -42.570 -46.560  11.884  1.00  0.00     0.078 A 
HETATM    3  S   UNL     1     -42.681 -47.632  13.223  1.00  0.00    -0.064 SA
HETATM    4  C   UNL     1     -43.028 -48.904  12.145  1.00  0.00     0.151 A 
HETATM    5  N   UNL     1     -43.132 -48.585  10.884  1.00  0.00    -0.339 N 
ATOM      6  HN  UNL     1     -43.377 -49.233  10.135  1.00  0.00     0.168 HD
ENDROOT
BRANCH   4   7
HETATM    7  N   UNL     1     -43.172 -50.132  12.723  1.00  0.00    -0.307 N 
HETATM    8  C   UNL     1     -42.305 -51.165  12.442  1.00  0.00     0.223 C 
HETATM    9  O   UNL     1     -41.273 -51.096  11.784  1.00  0.00    -0.273 OA
HETATM   10  H   UNL     1     -43.896 -50.231  13.417  1.00  0.00     0.171 HD
BRANCH   8  11
HETATM   11  C   UNL     1     -42.729 -52.471  13.089  1.00  0.00     0.103 C 
BRANCH  11  12
HETATM   12  C   UNL     1     -43.952 -53.061  12.391  1.00  0.00     0.014 C 
BRANCH  12  13
HETATM   13  C   UNL     1     -45.216 -53.010  13.249  1.00  0.00    -0.014 C 
HETATM   14  C   UNL     1     -46.165 -51.890  12.805  1.00  0.00     0.004 C 
HETATM   15  C   UNL     1     -46.864 -51.393  14.071  1.00  0.00     0.000 C 
HETATM   16  C   UNL     1     -46.313 -52.230  15.217  1.00  0.00     0.000 C 
HETATM   17  C   UNL     1     -44.957 -52.703  14.723  1.00  0.00     0.004 C 
ENDBRANCH  12  13
ENDBRANCH  11  12
ENDBRANCH   8  11
ENDBRANCH   4   7
BRANCH   1  18
HETATM   18  C   UNL     1     -42.923 -46.676   9.327  1.00  0.00     0.160 C 
BRANCH  18  19
HETATM   19  C   UNL     1     -43.732 -47.523   8.362  1.00  0.00     0.221 C 
HETATM   20  N   UNL     1     -43.090 -48.003   7.260  1.00  0.00    -0.370 N 
HETATM   21  H   UNL     1     -43.588 -48.579   6.598  1.00  0.00     0.159 HD
HETATM   22  H   UNL     1     -42.126 -47.737   7.052  1.00  0.00     0.159 HD
HETATM   23  O   UNL     1     -44.897 -47.841   8.590  1.00  0.00    -0.273 OA
ENDBRANCH  18  19
ENDBRANCH   1  18
TORSDOF 6
ENDMDL
MODEL 4
REMARK VINA RESULT:      -5.6      2.422      2.918
REMARK  6 active torsions:
REMARK  status: ('A' for Active; 'I' for Inactive)
REMARK       I    between atoms: N_1  and  C_2 
REMARK    1  A    between atoms: C_2  and  C_4 
REMARK    2  A    between atoms: C_4  and  C_5 
REMARK    3  A    between atoms: C_8  and  N_9 
REMARK       I    between atoms: N_9  and  C_10 
REMARK    4  A    between atoms: C_10  and  C_12 
REMARK    5  A    between atoms: C_12  and  C_13 
REMARK    6  A    between atoms: C_13  and  C_14 
ROOT
HETATM    1  C   UNL     1     -39.639 -51.236  13.390  1.00  0.00     0.026 A 
HETATM    2  C   UNL     1     -38.622 -51.990  13.949  1.00  0.00     0.078 A 
HETATM    3  S   UNL     1     -39.286 -53.290  14.858  1.00  0.00    -0.064 SA
HETATM    4  C   UNL     1     -40.845 -52.795  14.380  1.00  0.00     0.151 A 
HETATM    5  N   UNL     1     -40.914 -51.710  13.658  1.00  0.00    -0.339 N 
ATOM      6  HN  UNL     1     -41.779 -51.275  13.338  1.00  0.00     0.168 HD
ENDROOT
BRANCH   4   7
HETATM    7  N   UNL     1     -41.865 -53.589  14.816  1.00  0.00    -0.307 N 
HETATM    8  C   UNL     1     -42.848 -54.032  13.960  1.00  0.00     0.223 C 
HETATM    9  O   UNL     1     -42.871 -53.900  12.741  1.00  0.00    -0.273 OA
HETATM   10  H   UNL     1     -41.831 -53.895  15.776  1.00  0.00     0.171 HD
BRANCH   8  11
HETATM   11  C   UNL     1     -43.950 -54.787  14.681  1.00  0.00     0.103 C 
BRANCH  11  12
HETATM   12  C   UNL     1     -45.202 -54.897  13.814  1.00  0.00     0.014 C 
BRANCH  12  13
HETATM   13  C   UNL     1     -46.263 -53.851  14.157  1.00  0.00    -0.014 C 
HETATM   14  C   UNL     1     -46.170 -52.620  13.246  1.00  0.00     0.004 C 
HETATM   15  C   UNL     1     -46.595 -51.424  14.097  1.00  0.00     0.000 C 
HETATM   16  C   UNL     1     -46.927 -51.978  15.475  1.00  0.00     0.000 C 
HETATM   17  C   UNL     1     -46.135 -53.271  15.564  1.00  0.00     0.004 C 
ENDBRANCH  12  13
ENDBRANCH  11  12
ENDBRANCH   8  11
ENDBRANCH   4   7
BRANCH   1  18
HETATM   18  C   UNL     1     -39.507 -49.996  12.566  1.00  0.00     0.160 C 
BRANCH  18  19
HETATM   19  C   UNL     1     -40.675 -49.762  11.626  1.00  0.00     0.221 C 
HETATM   20  N   UNL     1     -40.459 -49.963  10.296  1.00  0.00    -0.370 N 
HETATM   21  H   UNL     1     -41.211 -49.828   9.637  1.00  0.00     0.159 HD
HETATM   22  H   UNL     1     -39.528 -50.184   9.939  1.00  0.00     0.159 HD
HETATM   23  O   UNL     1     -41.799 -49.480  12.036  1.00  0.00    -0.273 OA
ENDBRANCH  18  19
ENDBRANCH   1  18
TORSDOF 6
ENDMDL
MODEL 5
REMARK VINA RESULT:      -5.6      4.208      6.796
REMARK  6 active torsions:
REMARK  status: ('A' for Active; 'I' for Inactive)
REMARK       I    between atoms: N_1  and  C_2 
REMARK    1  A    between atoms: C_2  and  C_4 
REMARK    2  A    between atoms: C_4  and  C_5 
REMARK    3  A    between atoms: C_8  and  N_9 
REMARK       I    between atoms: N_9  and  C_10 
REMARK    4  A    between atoms: C_10  and  C_12 
REMARK    5  A    between atoms: C_12  and  C_13 
REMARK    6  A    between atoms: C_13  and  C_14 
ROOT
HETATM    1  C   UNL     1     -42.910 -47.070   9.832  1.00  0.00     0.026 A 
HETATM    2  C   UNL     1     -42.160 -45.990  10.262  1.00  0.00     0.078 A 
HETATM    3  S   UNL     1     -40.729 -46.541  11.041  1.00  0.00    -0.064 SA
HETATM    4  C   UNL     1     -41.181 -48.144  10.683  1.00  0.00     0.151 A 
HETATM    5  N   UNL     1     -42.334 -48.304  10.093  1.00  0.00    -0.339 N 
ATOM      6  HN  UNL     1     -42.751 -49.206   9.857  1.00  0.00     0.168 HD
ENDROOT
BRANCH   4   7
HETATM    7  N   UNL     1     -40.284 -49.099  11.064  1.00  0.00    -0.307 N 
HETATM    8  C   UNL     1     -40.649 -50.141  11.886  1.00  0.00     0.223 C 
HETATM    9  O   UNL     1     -41.785 -50.418  12.257  1.00  0.00    -0.273 OA
HETATM   10  H   UNL     1     -39.361 -49.049  10.662  1.00  0.00     0.171 HD
BRANCH   8  11
HETATM   11  C   UNL     1     -39.468 -51.006  12.288  1.00  0.00     0.103 C 
BRANCH  11  12
HETATM   12  C   UNL     1     -39.074 -50.759  13.742  1.00  0.00     0.014 C 
BRANCH  12  13
HETATM   13  C   UNL     1     -37.906 -49.783  13.890  1.00  0.00    -0.014 C 
HETATM   14  C   UNL     1     -37.096 -50.048  15.166  1.00  0.00     0.004 C 
HETATM   15  C   UNL     1     -36.584 -48.687  15.639  1.00  0.00     0.000 C 
HETATM   16  C   UNL     1     -37.100 -47.666  14.634  1.00  0.00     0.000 C 
HETATM   17  C   UNL     1     -38.327 -48.322  14.024  1.00  0.00     0.004 C 
ENDBRANCH  12  13
ENDBRANCH  11  12
ENDBRANCH   8  11
ENDBRANCH   4   7
BRANCH   1  18
HETATM   18  C   UNL     1     -44.240 -47.043   9.150  1.00  0.00     0.160 C 
BRANCH  18  19
HETATM   19  C   UNL     1     -44.333 -47.978   7.958  1.00  0.00     0.221 C 
HETATM   20  N   UNL     1     -45.551 -48.522   7.682  1.00  0.00    -0.370 N 
HETATM   21  H   UNL     1     -45.660 -49.141   6.893  1.00  0.00     0.159 HD
HETATM   22  H   UNL     1     -46.350 -48.371   8.301  1.00  0.00     0.159 HD
HETATM   23  O   UNL     1     -43.378 -48.182   7.211  1.00  0.00    -0.273 OA
ENDBRANCH  18  19
ENDBRANCH   1  18
TORSDOF 6
ENDMDL
MODEL 6
REMARK VINA RESULT:      -5.6      1.995      2.210
REMARK  6 active torsions:
REMARK  status: ('A' for Active; 'I' for Inactive)
REMARK       I    between atoms: N_1  and  C_2 
REMARK    1  A    between atoms: C_2  and  C_4 
REMARK    2  A    between atoms: C_4  and  C_5 
REMARK    3  A    between atoms: C_8  and  N_9 
REMARK       I    between atoms: N_9  and  C_10 
REMARK    4  A    between atoms: C_10  and  C_12 
REMARK    5  A    between atoms: C_12  and  C_13 
REMARK    6  A    between atoms: C_13  and  C_14 
ROOT
HETATM    1  C   UNL     1     -38.667 -50.716  14.106  1.00  0.00     0.026 A 
HETATM    2  C   UNL     1     -38.707 -50.743  15.489  1.00  0.00     0.078 A 
HETATM    3  S   UNL     1     -40.015 -51.726  16.020  1.00  0.00    -0.064 SA
HETATM    4  C   UNL     1     -40.369 -52.090  14.394  1.00  0.00     0.151 A 
HETATM    5  N   UNL     1     -39.639 -51.491  13.492  1.00  0.00    -0.339 N 
ATOM      6  HN  UNL     1     -39.766 -51.580  12.484  1.00  0.00     0.168 HD
ENDROOT
BRANCH   4   7
HETATM    7  N   UNL     1     -41.395 -52.969  14.206  1.00  0.00    -0.307 N 
HETATM    8  C   UNL     1     -42.122 -52.987  13.037  1.00  0.00     0.223 C 
HETATM    9  O   UNL     1     -41.881 -52.353  12.015  1.00  0.00    -0.273 OA
HETATM   10  H   UNL     1     -41.554 -53.652  14.931  1.00  0.00     0.171 HD
BRANCH   8  11
HETATM   11  C   UNL     1     -43.294 -53.949  13.096  1.00  0.00     0.103 C 
BRANCH  11  12
HETATM   12  C   UNL     1     -44.516 -53.375  12.381  1.00  0.00     0.014 C 
BRANCH  12  13
HETATM   13  C   UNL     1     -45.709 -53.158  13.313  1.00  0.00    -0.014 C 
HETATM   14  C   UNL     1     -46.322 -51.762  13.141  1.00  0.00     0.004 C 
HETATM   15  C   UNL     1     -46.845 -51.352  14.518  1.00  0.00     0.000 C 
HETATM   16  C   UNL     1     -46.530 -52.510  15.455  1.00  0.00     0.000 C 
HETATM   17  C   UNL     1     -45.360 -53.221  14.798  1.00  0.00     0.004 C 
ENDBRANCH  12  13
ENDBRANCH  11  12
ENDBRANCH   8  11
ENDBRANCH   4   7
BRANCH   1  18
HETATM   18  C   UNL     1     -37.721 -49.953  13.236  1.00  0.00     0.160 C 
BRANCH  18  19
HETATM   19  C   UNL     1     -37.350 -50.678  11.955  1.00  0.00     0.221 C 
HETATM   20  N   UNL     1     -37.620 -50.047  10.778  1.00  0.00    -0.370 N 
HETATM   21  H   UNL     1     -37.380 -50.489   9.903  1.00  0.00     0.159 HD
HETATM   22  H   UNL     1     -38.124 -49.159  10.757  1.00  0.00     0.159 HD
HETATM   23  O   UNL     1     -36.756 -51.754  11.961  1.00  0.00    -0.273 OA
ENDBRANCH  18  19
ENDBRANCH   1  18
TORSDOF 6
ENDMDL
MODEL 7
REMARK VINA RESULT:      -5.3      3.535      4.170
REMARK  6 active torsions:
REMARK  status: ('A' for Active; 'I' for Inactive)
REMARK       I    between atoms: N_1  and  C_2 
REMARK    1  A    between atoms: C_2  and  C_4 
REMARK    2  A    between atoms: C_4  and  C_5 
REMARK    3  A    between atoms: C_8  and  N_9 
REMARK       I    between atoms: N_9  and  C_10 
REMARK    4  A    between atoms: C_10  and  C_12 
REMARK    5  A    between atoms: C_12  and  C_13 
REMARK    6  A    between atoms: C_13  and  C_14 
ROOT
HETATM    1  C   UNL     1     -41.029 -46.078  10.510  1.00  0.00     0.026 A 
HETATM    2  C   UNL     1     -42.355 -45.824  10.210  1.00  0.00     0.078 A 
HETATM    3  S   UNL     1     -43.267 -47.279  10.303  1.00  0.00    -0.064 SA
HETATM    4  C   UNL     1     -41.860 -48.100  10.801  1.00  0.00     0.151 A 
HETATM    5  N   UNL     1     -40.761 -47.398  10.839  1.00  0.00    -0.339 N 
ATOM      6  HN  UNL     1     -39.839 -47.766  11.076  1.00  0.00     0.168 HD
ENDROOT
BRANCH   4   7
HETATM    7  N   UNL     1     -42.033 -49.420  11.099  1.00  0.00    -0.307 N 
HETATM    8  C   UNL     1     -41.776 -49.912  12.360  1.00  0.00     0.223 C 
HETATM    9  O   UNL     1     -41.505 -49.257  13.360  1.00  0.00    -0.273 OA
HETATM   10  H   UNL     1     -42.424 -50.007  10.379  1.00  0.00     0.171 HD
BRANCH   8  11
HETATM   11  C   UNL     1     -41.907 -51.423  12.431  1.00  0.00     0.103 C 
BRANCH  11  12
HETATM   12  C   UNL     1     -42.867 -51.840  13.543  1.00  0.00     0.014 C 
BRANCH  12  13
HETATM   13  C   UNL     1     -44.315 -51.428  13.272  1.00  0.00    -0.014 C 
HETATM   14  C   UNL     1     -45.042 -51.013  14.557  1.00  0.00     0.004 C 
HETATM   15  C   UNL     1     -46.504 -51.425  14.375  1.00  0.00     0.000 C 
HETATM   16  C   UNL     1     -46.596 -52.064  12.996  1.00  0.00     0.000 C 
HETATM   17  C   UNL     1     -45.186 -52.548  12.708  1.00  0.00     0.004 C 
ENDBRANCH  12  13
ENDBRANCH  11  12
ENDBRANCH   8  11
ENDBRANCH   4   7
BRANCH   1  18
HETATM   18  C   UNL     1     -39.891 -45.108  10.505  1.00  0.00     0.160 C 
BRANCH  18  19
HETATM   19  C   UNL     1     -40.072 -43.949  11.468  1.00  0.00     0.221 C 
HETATM   20  N   UNL     1     -40.478 -42.758  10.946  1.00  0.00    -0.370 N 
HETATM   21  H   UNL     1     -40.620 -41.964  11.552  1.00  0.00     0.159 HD
HETATM   22  H   UNL     1     -40.578 -42.630   9.937  1.00  0.00     0.159 HD
HETATM   23  O   UNL     1     -39.942 -44.083  12.683  1.00  0.00    -0.273 OA
ENDBRANCH  18  19
ENDBRANCH   1  18
TORSDOF 6
ENDMDL
MODEL 8
REMARK VINA RESULT:      -5.2      2.394      7.042
REMARK  6 active torsions:
REMARK  status: ('A' for Active; 'I' for Inactive)
REMARK       I    between atoms: N_1  and  C_2 
REMARK    1  A    between atoms: C_2  and  C_4 
REMARK    2  A    between atoms: C_4  and  C_5 
REMARK    3  A    between atoms: C_8  and  N_9 
REMARK       I    between atoms: N_9  and  C_10 
REMARK    4  A    between atoms: C_10  and  C_12 
REMARK    5  A    between atoms: C_12  and  C_13 
REMARK    6  A    between atoms: C_13  and  C_14 
ROOT
HETATM    1  C   UNL     1     -45.191 -51.445  13.971  1.00  0.00     0.026 A 
HETATM    2  C   UNL     1     -44.785 -50.792  15.121  1.00  0.00     0.078 A 
HETATM    3  S   UNL     1     -43.403 -49.823  14.790  1.00  0.00    -0.064 SA
HETATM    4  C   UNL     1     -43.502 -50.285  13.153  1.00  0.00     0.151 A 
HETATM    5  N   UNL     1     -44.433 -51.148  12.848  1.00  0.00    -0.339 N 
ATOM      6  HN  UNL     1     -44.581 -51.545  11.920  1.00  0.00     0.168 HD
ENDROOT
BRANCH   4   7
HETATM    7  N   UNL     1     -42.581 -49.706  12.330  1.00  0.00    -0.307 N 
HETATM    8  C   UNL     1     -41.507 -50.416  11.841  1.00  0.00     0.223 C 
HETATM    9  O   UNL     1     -41.312 -51.621  11.955  1.00  0.00    -0.273 OA
HETATM   10  H   UNL     1     -42.757 -48.757  12.039  1.00  0.00     0.171 HD
BRANCH   8  11
HETATM   11  C   UNL     1     -40.543 -49.543  11.057  1.00  0.00     0.103 C 
BRANCH  11  12
HETATM   12  C   UNL     1     -39.879 -48.507  11.961  1.00  0.00     0.014 C 
BRANCH  12  13
HETATM   13  C   UNL     1     -38.553 -48.987  12.551  1.00  0.00    -0.014 C 
HETATM   14  C   UNL     1     -37.894 -50.063  11.678  1.00  0.00     0.004 C 
HETATM   15  C   UNL     1     -37.154 -50.998  12.636  1.00  0.00     0.000 C 
HETATM   16  C   UNL     1     -37.393 -50.450  14.036  1.00  0.00     0.000 C 
HETATM   17  C   UNL     1     -38.684 -49.658  13.917  1.00  0.00     0.004 C 
ENDBRANCH  12  13
ENDBRANCH  11  12
ENDBRANCH   8  11
ENDBRANCH   4   7
BRANCH   1  18
HETATM   18  C   UNL     1     -46.318 -52.416  13.823  1.00  0.00     0.160 C 
BRANCH  18  19
HETATM   19  C   UNL     1     -45.867 -53.837  13.539  1.00  0.00     0.221 C 
HETATM   20  N   UNL     1     -46.425 -54.832  14.283  1.00  0.00    -0.370 N 
HETATM   21  H   UNL     1     -46.161 -55.792  14.120  1.00  0.00     0.159 HD
HETATM   22  H   UNL     1     -47.061 -54.622  15.054  1.00  0.00     0.159 HD
HETATM   23  O   UNL     1     -45.091 -54.106  12.624  1.00  0.00    -0.273 OA
ENDBRANCH  18  19
ENDBRANCH   1  18
TORSDOF 6
ENDMDL
MODEL 9
REMARK VINA RESULT:      -5.2      2.855      7.188
REMARK  6 active torsions:
REMARK  status: ('A' for Active; 'I' for Inactive)
REMARK       I    between atoms: N_1  and  C_2 
REMARK    1  A    between atoms: C_2  and  C_4 
REMARK    2  A    between atoms: C_4  and  C_5 
REMARK    3  A    between atoms: C_8  and  N_9 
REMARK       I    between atoms: N_9  and  C_10 
REMARK    4  A    between atoms: C_10  and  C_12 
REMARK    5  A    between atoms: C_12  and  C_13 
REMARK    6  A    between atoms: C_13  and  C_14 
ROOT
HETATM    1  C   UNL     1     -42.938 -53.389  12.908  1.00  0.00     0.026 A 
HETATM    2  C   UNL     1     -41.722 -53.713  13.484  1.00  0.00     0.078 A 
HETATM    3  S   UNL     1     -40.530 -52.563  13.025  1.00  0.00    -0.064 SA
HETATM    4  C   UNL     1     -41.725 -51.700  12.172  1.00  0.00     0.151 A 
HETATM    5  N   UNL     1     -42.918 -52.230  12.147  1.00  0.00    -0.339 N 
ATOM      6  HN  UNL     1     -43.717 -51.848  11.641  1.00  0.00     0.168 HD
ENDROOT
BRANCH   4   7
HETATM    7  N   UNL     1     -41.301 -50.540  11.592  1.00  0.00    -0.307 N 
HETATM    8  C   UNL     1     -41.982 -49.356  11.771  1.00  0.00     0.223 C 
HETATM    9  O   UNL     1     -42.921 -49.160  12.535  1.00  0.00    -0.273 OA
HETATM   10  H   UNL     1     -40.431 -50.571  11.084  1.00  0.00     0.171 HD
BRANCH   8  11
HETATM   11  C   UNL     1     -41.413 -48.227  10.931  1.00  0.00     0.103 C 
BRANCH  11  12
HETATM   12  C   UNL     1     -40.109 -47.701  11.526  1.00  0.00     0.014 C 
BRANCH  12  13
HETATM   13  C   UNL     1     -40.120 -46.188  11.753  1.00  0.00    -0.014 C 
HETATM   14  C   UNL     1     -41.526 -45.668  12.078  1.00  0.00     0.004 C 
HETATM   15  C   UNL     1     -41.609 -44.261  11.487  1.00  0.00     0.000 C 
HETATM   16  C   UNL     1     -40.259 -43.991  10.836  1.00  0.00     0.000 C 
HETATM   17  C   UNL     1     -39.704 -45.372  10.531  1.00  0.00     0.004 C 
ENDBRANCH  12  13
ENDBRANCH  11  12
ENDBRANCH   8  11
ENDBRANCH   4   7
BRANCH   1  18
HETATM   18  C   UNL     1     -44.225 -54.143  13.009  1.00  0.00     0.160 C 
BRANCH  18  19
HETATM   19  C   UNL     1     -45.454 -53.253  13.026  1.00  0.00     0.221 C 
HETATM   20  N   UNL     1     -45.945 -52.888  14.243  1.00  0.00    -0.370 N 
HETATM   21  H   UNL     1     -46.755 -52.288  14.300  1.00  0.00     0.159 HD
HETATM   22  H   UNL     1     -45.551 -53.263  15.107  1.00  0.00     0.159 HD
HETATM   23  O   UNL     1     -45.951 -52.804  11.995  1.00  0.00    -0.273 OA
ENDBRANCH  18  19
ENDBRANCH   1  18
TORSDOF 6
ENDMDL
