MODEL 1
REMARK VINA RESULT:      -5.5      0.000      0.000
REMARK  5 active torsions:
REMARK  status: ('A' for Active; 'I' for Inactive)
REMARK    1  A    between atoms: C_2  and  C_3 
REMARK    2  A    between atoms: C_6  and  C_7 
REMARK    3  A    between atoms: C_7  and  C_8 
REMARK    4  A    between atoms: C_8  and  N_9 
REMARK       I    between atoms: N_9  and  C_10 
REMARK    5  A    between atoms: C_10  and  C_12 
ROOT
HETATM    1  C   UNL     1     -42.468 -48.752  12.138  1.00  0.00     0.077 C 
ENDROOT
BRANCH   1   2
HETATM    2  C   UNL     1     -43.015 -47.956  10.994  1.00  0.00     0.018 A 
HETATM    3  N   UNL     1     -44.344 -48.114  10.630  1.00  0.00    -0.357 N 
HETATM    4  C   UNL     1     -44.644 -47.304   9.636  1.00  0.00     0.050 A 
ATOM      5  HN  UNL     1     -44.995 -48.764  11.069  1.00  0.00     0.166 HD
HETATM    6  S   UNL     1     -43.340 -46.357   9.040  1.00  0.00    -0.087 SA
HETATM    7  C   UNL     1     -42.314 -47.047  10.225  1.00  0.00     0.076 A 
BRANCH   4   8
HETATM    8  C   UNL     1     -46.013 -47.174   9.044  1.00  0.00     0.060 C 
HETATM    9  C   UNL     1     -46.614 -48.535   8.730  1.00  0.00     0.012 C 
ENDBRANCH   4   8
ENDBRANCH   1   2
BRANCH   1  10
HETATM   10  C   UNL     1     -41.529 -49.871  11.684  1.00  0.00     0.128 C 
BRANCH  10  11
HETATM   11  N   UNL     1     -42.045 -51.196  11.990  1.00  0.00    -0.360 N 
HETATM   12  C   UNL     1     -41.214 -52.233  12.365  1.00  0.00     0.221 C 
HETATM   13  O   UNL     1     -39.990 -52.105  12.375  1.00  0.00    -0.273 OA
HETATM   14  H   UNL     1     -43.046 -51.339  11.969  1.00  0.00     0.162 HD
BRANCH  12  15
HETATM   15  C   UNL     1     -41.968 -53.535  12.768  1.00  0.00     0.078 C 
HETATM   16  C   UNL     1     -43.520 -53.471  12.783  1.00  0.00     0.014 C 
HETATM   17  C   UNL     1     -43.488 -54.370  14.031  1.00  0.00     0.002 C 
HETATM   18  C   UNL     1     -42.057 -53.862  14.283  1.00  0.00     0.014 C 
ENDBRANCH  12  15
ENDBRANCH  10  11
ENDBRANCH   1  10
TORSDOF 5
ENDMDL
MODEL 2
REMARK VINA RESULT:      -5.4      3.055      5.878
REMARK  5 active torsions:
REMARK  status: ('A' for Active; 'I' for Inactive)
REMARK    1  A    between atoms: C_2  and  C_3 
REMARK    2  A    between atoms: C_6  and  C_7 
REMARK    3  A    between atoms: C_7  and  C_8 
REMARK    4  A    between atoms: C_8  and  N_9 
REMARK       I    between atoms: N_9  and  C_10 
REMARK    5  A    between atoms: C_10  and  C_12 
ROOT
HETATM    1  C   UNL     1     -41.616 -50.123  12.951  1.00  0.00     0.077 C 
ENDROOT
BRANCH   1   2
HETATM    2  C   UNL     1     -42.722 -51.128  12.874  1.00  0.00     0.018 A 
HETATM    3  N   UNL     1     -44.024 -50.730  13.142  1.00  0.00    -0.357 N 
HETATM    4  C   UNL     1     -44.852 -51.741  12.983  1.00  0.00     0.050 A 
ATOM      5  HN  UNL     1     -44.299 -49.789  13.423  1.00  0.00     0.166 HD
HETATM    6  S   UNL     1     -44.116 -53.237  12.569  1.00  0.00    -0.087 SA
HETATM    7  C   UNL     1     -42.587 -52.467  12.556  1.00  0.00     0.076 A 
BRANCH   4   8
HETATM    8  C   UNL     1     -46.338 -51.639  13.131  1.00  0.00     0.060 C 
HETATM    9  C   UNL     1     -46.737 -51.392  14.578  1.00  0.00     0.012 C 
ENDBRANCH   4   8
ENDBRANCH   1   2
BRANCH   1  10
HETATM   10  C   UNL     1     -41.186 -49.610  11.577  1.00  0.00     0.128 C 
BRANCH  10  11
HETATM   11  N   UNL     1     -42.245 -48.887  10.890  1.00  0.00    -0.360 N 
HETATM   12  C   UNL     1     -42.054 -47.614  10.391  1.00  0.00     0.221 C 
HETATM   13  O   UNL     1     -41.003 -47.000  10.579  1.00  0.00    -0.273 OA
HETATM   14  H   UNL     1     -43.128 -49.356  10.739  1.00  0.00     0.162 HD
BRANCH  12  15
HETATM   15  C   UNL     1     -43.266 -47.061   9.584  1.00  0.00     0.078 C 
HETATM   16  C   UNL     1     -44.673 -47.581   9.987  1.00  0.00     0.014 C 
HETATM   17  C   UNL     1     -45.039 -47.580   8.492  1.00  0.00     0.002 C 
HETATM   18  C   UNL     1     -43.534 -47.688   8.188  1.00  0.00     0.014 C 
ENDBRANCH  12  15
ENDBRANCH  10  11
ENDBRANCH   1  10
TORSDOF 5
ENDMDL
MODEL 3
REMARK VINA RESULT:      -5.4      2.292      2.570
REMARK  5 active torsions:
REMARK  status: ('A' for Active; 'I' for Inactive)
REMARK    1  A    between atoms: C_2  and  C_3 
REMARK    2  A    between atoms: C_6  and  C_7 
REMARK    3  A    between atoms: C_7  and  C_8 
REMARK    4  A    between atoms: C_8  and  N_9 
REMARK       I    between atoms: N_9  and  C_10 
REMARK    5  A    between atoms: C_10  and  C_12 
ROOT
HETATM    1  C   UNL     1     -42.530 -48.053  12.310  1.00  0.00     0.077 C 
ENDROOT
BRANCH   1   2
HETATM    2  C   UNL     1     -43.106 -47.839  10.945  1.00  0.00     0.018 A 
HETATM    3  N   UNL     1     -44.475 -47.663  10.803  1.00  0.00    -0.357 N 
HETATM    4  C   UNL     1     -44.780 -47.450   9.541  1.00  0.00     0.050 A 
ATOM      5  HN  UNL     1     -45.148 -47.693  11.568  1.00  0.00     0.166 HD
HETATM    6  S   UNL     1     -43.459 -47.513   8.444  1.00  0.00    -0.087 SA
HETATM    7  C   UNL     1     -42.399 -47.800   9.758  1.00  0.00     0.076 A 
BRANCH   4   8
HETATM    8  C   UNL     1     -46.163 -47.157   9.049  1.00  0.00     0.060 C 
HETATM    9  C   UNL     1     -46.950 -48.437   8.810  1.00  0.00     0.012 C 
ENDBRANCH   4   8
ENDBRANCH   1   2
BRANCH   1  10
HETATM   10  C   UNL     1     -42.229 -49.523  12.600  1.00  0.00     0.128 C 
BRANCH  10  11
HETATM   11  N   UNL     1     -43.422 -50.356  12.582  1.00  0.00    -0.360 N 
HETATM   12  C   UNL     1     -44.167 -50.588  13.721  1.00  0.00     0.221 C 
HETATM   13  O   UNL     1     -43.807 -50.169  14.821  1.00  0.00    -0.273 OA
HETATM   14  H   UNL     1     -43.731 -50.733  11.696  1.00  0.00     0.162 HD
BRANCH  12  15
HETATM   15  C   UNL     1     -45.471 -51.401  13.470  1.00  0.00     0.078 C 
HETATM   16  C   UNL     1     -46.547 -51.364  14.590  1.00  0.00     0.014 C 
HETATM   17  C   UNL     1     -46.831 -52.846  14.288  1.00  0.00     0.002 C 
HETATM   18  C   UNL     1     -45.408 -52.934  13.707  1.00  0.00     0.014 C 
ENDBRANCH  12  15
ENDBRANCH  10  11
ENDBRANCH   1  10
TORSDOF 5
ENDMDL
MODEL 4
REMARK VINA RESULT:      -5.3      1.167      1.343
REMARK  5 active torsions:
REMARK  status: ('A' for Active; 'I' for Inactive)
REMARK    1  A    between atoms: C_2  and  C_3 
REMARK    2  A    between atoms: C_6  and  C_7 
REMARK    3  A    between atoms: C_7  and  C_8 
REMARK    4  A    between atoms: C_8  and  N_9 
REMARK       I    between atoms: N_9  and  C_10 
REMARK    5  A    between atoms: C_10  and  C_12 
ROOT
HETATM    1  C   UNL     1     -40.847 -48.934  11.996  1.00  0.00     0.077 C 
ENDROOT
BRANCH   1   2
HETATM    2  C   UNL     1     -41.602 -47.956  11.150  1.00  0.00     0.018 A 
HETATM    3  N   UNL     1     -42.399 -48.423  10.116  1.00  0.00    -0.357 N 
HETATM    4  C   UNL     1     -43.008 -47.420   9.519  1.00  0.00     0.050 A 
ATOM      5  HN  UNL     1     -42.499 -49.404   9.855  1.00  0.00     0.166 HD
HETATM    6  S   UNL     1     -42.613 -45.859  10.118  1.00  0.00    -0.087 SA
HETATM    7  C   UNL     1     -41.590 -46.581  11.287  1.00  0.00     0.076 A 
BRANCH   4   8
HETATM    8  C   UNL     1     -43.992 -47.580   8.403  1.00  0.00     0.060 C 
HETATM    9  C   UNL     1     -45.422 -47.602   8.921  1.00  0.00     0.012 C 
ENDBRANCH   4   8
ENDBRANCH   1   2
BRANCH   1  10
HETATM   10  C   UNL     1     -40.285 -50.103  11.187  1.00  0.00     0.128 C 
BRANCH  10  11
HETATM   11  N   UNL     1     -40.947 -51.364  11.486  1.00  0.00    -0.360 N 
HETATM   12  C   UNL     1     -40.438 -52.253  12.411  1.00  0.00     0.221 C 
HETATM   13  O   UNL     1     -39.355 -52.058  12.963  1.00  0.00    -0.273 OA
HETATM   14  H   UNL     1     -41.829 -51.563  11.033  1.00  0.00     0.162 HD
BRANCH  12  15
HETATM   15  C   UNL     1     -41.355 -53.484  12.679  1.00  0.00     0.078 C 
HETATM   16  C   UNL     1     -42.868 -53.199  12.882  1.00  0.00     0.014 C 
HETATM   17  C   UNL     1     -42.874 -54.304  13.953  1.00  0.00     0.002 C 
HETATM   18  C   UNL     1     -41.363 -54.062  14.120  1.00  0.00     0.014 C 
ENDBRANCH  12  15
ENDBRANCH  10  11
ENDBRANCH   1  10
TORSDOF 5
ENDMDL
MODEL 5
REMARK VINA RESULT:      -5.2      4.499      5.991
REMARK  5 active torsions:
REMARK  status: ('A' for Active; 'I' for Inactive)
REMARK    1  A    between atoms: C_2  and  C_3 
REMARK    2  A    between atoms: C_6  and  C_7 
REMARK    3  A    between atoms: C_7  and  C_8 
REMARK    4  A    between atoms: C_8  and  N_9 
REMARK       I    between atoms: N_9  and  C_10 
REMARK    5  A    between atoms: C_10  and  C_12 
ROOT
HETATM    1  C   UNL     1     -41.434 -53.950  12.808  1.00  0.00     0.077 C 
ENDROOT
BRANCH   1   2
HETATM    2  C   UNL     1     -40.502 -52.813  13.090  1.00  0.00     0.018 A 
HETATM    3  N   UNL     1     -40.223 -51.896  12.088  1.00  0.00    -0.357 N 
HETATM    4  C   UNL     1     -39.420 -50.955  12.539  1.00  0.00     0.050 A 
ATOM      5  HN  UNL     1     -40.587 -51.944  11.136  1.00  0.00     0.166 HD
HETATM    6  S   UNL     1     -38.903 -51.149  14.166  1.00  0.00    -0.087 SA
HETATM    7  C   UNL     1     -39.856 -52.566  14.287  1.00  0.00     0.076 A 
BRANCH   4   8
HETATM    8  C   UNL     1     -38.973 -49.776  11.733  1.00  0.00     0.060 C 
HETATM    9  C   UNL     1     -37.515 -49.905  11.321  1.00  0.00     0.012 C 
ENDBRANCH   4   8
ENDBRANCH   1   2
BRANCH   1  10
HETATM   10  C   UNL     1     -42.408 -54.214  13.956  1.00  0.00     0.128 C 
BRANCH  10  11
HETATM   11  N   UNL     1     -43.532 -53.291  13.964  1.00  0.00    -0.360 N 
HETATM   12  C   UNL     1     -44.686 -53.540  13.247  1.00  0.00     0.221 C 
HETATM   13  O   UNL     1     -44.781 -54.515  12.501  1.00  0.00    -0.273 OA
HETATM   14  H   UNL     1     -43.475 -52.469  14.550  1.00  0.00     0.162 HD
BRANCH  12  15
HETATM   15  C   UNL     1     -45.817 -52.496  13.483  1.00  0.00     0.078 C 
HETATM   16  C   UNL     1     -45.465 -51.268  14.367  1.00  0.00     0.014 C 
HETATM   17  C   UNL     1     -46.884 -51.357  14.956  1.00  0.00     0.002 C 
HETATM   18  C   UNL     1     -46.891 -52.842  14.550  1.00  0.00     0.014 C 
ENDBRANCH  12  15
ENDBRANCH  10  11
ENDBRANCH   1  10
TORSDOF 5
ENDMDL
MODEL 6
REMARK VINA RESULT:      -5.2      3.226      4.663
REMARK  5 active torsions:
REMARK  status: ('A' for Active; 'I' for Inactive)
REMARK    1  A    between atoms: C_2  and  C_3 
REMARK    2  A    between atoms: C_6  and  C_7 
REMARK    3  A    between atoms: C_7  and  C_8 
REMARK    4  A    between atoms: C_8  and  N_9 
REMARK       I    between atoms: N_9  and  C_10 
REMARK    5  A    between atoms: C_10  and  C_12 
ROOT
HETATM    1  C   UNL     1     -41.732 -52.523  12.915  1.00  0.00     0.077 C 
ENDROOT
BRANCH   1   2
HETATM    2  C   UNL     1     -41.036 -51.309  12.382  1.00  0.00     0.018 A 
HETATM    3  N   UNL     1     -41.764 -50.359  11.682  1.00  0.00    -0.357 N 
HETATM    4  C   UNL     1     -40.989 -49.355  11.332  1.00  0.00     0.050 A 
ATOM      5  HN  UNL     1     -42.759 -50.428  11.469  1.00  0.00     0.166 HD
HETATM    6  S   UNL     1     -39.333 -49.520  11.762  1.00  0.00    -0.087 SA
HETATM    7  C   UNL     1     -39.690 -51.019  12.508  1.00  0.00     0.076 A 
BRANCH   4   8
HETATM    8  C   UNL     1     -41.471 -48.129  10.620  1.00  0.00     0.060 C 
HETATM    9  C   UNL     1     -40.657 -46.905  11.008  1.00  0.00     0.012 C 
ENDBRANCH   4   8
ENDBRANCH   1   2
BRANCH   1  10
HETATM   10  C   UNL     1     -42.955 -52.915  12.086  1.00  0.00     0.128 C 
BRANCH  10  11
HETATM   11  N   UNL     1     -44.197 -52.393  12.634  1.00  0.00    -0.360 N 
HETATM   12  C   UNL     1     -45.247 -53.220  12.977  1.00  0.00     0.221 C 
HETATM   13  O   UNL     1     -45.211 -54.431  12.756  1.00  0.00    -0.273 OA
HETATM   14  H   UNL     1     -44.265 -51.399  12.808  1.00  0.00     0.162 HD
BRANCH  12  15
HETATM   15  C   UNL     1     -46.437 -52.483  13.660  1.00  0.00     0.078 C 
HETATM   16  C   UNL     1     -46.091 -51.234  14.515  1.00  0.00     0.014 C 
HETATM   17  C   UNL     1     -47.186 -51.676  15.502  1.00  0.00     0.002 C 
HETATM   18  C   UNL     1     -47.003 -53.107  14.965  1.00  0.00     0.014 C 
ENDBRANCH  12  15
ENDBRANCH  10  11
ENDBRANCH   1  10
TORSDOF 5
ENDMDL
MODEL 7
REMARK VINA RESULT:      -5.0      3.081      5.915
REMARK  5 active torsions:
REMARK  status: ('A' for Active; 'I' for Inactive)
REMARK    1  A    between atoms: C_2  and  C_3 
REMARK    2  A    between atoms: C_6  and  C_7 
REMARK    3  A    between atoms: C_7  and  C_8 
REMARK    4  A    between atoms: C_8  and  N_9 
REMARK       I    between atoms: N_9  and  C_10 
REMARK    5  A    between atoms: C_10  and  C_12 
ROOT
HETATM    1  C   UNL     1     -41.428 -52.681  11.828  1.00  0.00     0.077 C 
ENDROOT
BRANCH   1   2
HETATM    2  C   UNL     1     -42.617 -52.782  12.733  1.00  0.00     0.018 A 
HETATM    3  N   UNL     1     -43.703 -51.944  12.526  1.00  0.00    -0.357 N 
HETATM    4  C   UNL     1     -44.657 -52.211  13.392  1.00  0.00     0.050 A 
ATOM      5  HN  UNL     1     -43.754 -51.224  11.806  1.00  0.00     0.166 HD
HETATM    6  S   UNL     1     -44.286 -53.432  14.543  1.00  0.00    -0.087 SA
HETATM    7  C   UNL     1     -42.759 -53.649  13.800  1.00  0.00     0.076 A 
BRANCH   4   8
HETATM    8  C   UNL     1     -45.992 -51.534  13.405  1.00  0.00     0.060 C 
HETATM    9  C   UNL     1     -46.752 -51.778  12.110  1.00  0.00     0.012 C 
ENDBRANCH   4   8
ENDBRANCH   1   2
BRANCH   1  10
HETATM   10  C   UNL     1     -40.583 -51.437  12.100  1.00  0.00     0.128 C 
BRANCH  10  11
HETATM   11  N   UNL     1     -40.863 -50.353  11.170  1.00  0.00    -0.360 N 
HETATM   12  C   UNL     1     -41.655 -49.278  11.520  1.00  0.00     0.221 C 
HETATM   13  O   UNL     1     -42.230 -49.231  12.608  1.00  0.00    -0.273 OA
HETATM   14  H   UNL     1     -40.422 -50.375  10.260  1.00  0.00     0.162 HD
BRANCH  12  15
HETATM   15  C   UNL     1     -41.733 -48.167  10.432  1.00  0.00     0.078 C 
HETATM   16  C   UNL     1     -41.106 -46.792  10.788  1.00  0.00     0.014 C 
HETATM   17  C   UNL     1     -42.270 -46.129  10.031  1.00  0.00     0.002 C 
HETATM   18  C   UNL     1     -43.082 -47.412  10.284  1.00  0.00     0.014 C 
ENDBRANCH  12  15
ENDBRANCH  10  11
ENDBRANCH   1  10
TORSDOF 5
ENDMDL
MODEL 8
REMARK VINA RESULT:      -4.9      1.967      2.815
REMARK  5 active torsions:
REMARK  status: ('A' for Active; 'I' for Inactive)
REMARK    1  A    between atoms: C_2  and  C_3 
REMARK    2  A    between atoms: C_6  and  C_7 
REMARK    3  A    between atoms: C_7  and  C_8 
REMARK    4  A    between atoms: C_8  and  N_9 
REMARK       I    between atoms: N_9  and  C_10 
REMARK    5  A    between atoms: C_10  and  C_12 
ROOT
HETATM    1  C   UNL     1     -41.103 -50.975  12.654  1.00  0.00     0.077 C 
ENDROOT
BRANCH   1   2
HETATM    2  C   UNL     1     -41.273 -49.650  11.978  1.00  0.00     0.018 A 
HETATM    3  N   UNL     1     -42.494 -49.330  11.403  1.00  0.00    -0.357 N 
HETATM    4  C   UNL     1     -42.457 -48.115  10.898  1.00  0.00     0.050 A 
ATOM      5  HN  UNL     1     -43.304 -49.949  11.375  1.00  0.00     0.166 HD
HETATM    6  S   UNL     1     -40.943 -47.312  11.025  1.00  0.00    -0.087 SA
HETATM    7  C   UNL     1     -40.307 -48.669  11.853  1.00  0.00     0.076 A 
BRANCH   4   8
HETATM    8  C   UNL     1     -43.628 -47.435  10.260  1.00  0.00     0.060 C 
HETATM    9  C   UNL     1     -43.231 -46.097   9.655  1.00  0.00     0.012 C 
ENDBRANCH   4   8
ENDBRANCH   1   2
BRANCH   1  10
HETATM   10  C   UNL     1     -41.448 -52.152  11.741  1.00  0.00     0.128 C 
BRANCH  10  11
HETATM   11  N   UNL     1     -42.806 -52.635  11.935  1.00  0.00    -0.360 N 
HETATM   12  C   UNL     1     -43.103 -53.632  12.843  1.00  0.00     0.221 C 
HETATM   13  O   UNL     1     -42.218 -54.216  13.469  1.00  0.00    -0.273 OA
HETATM   14  H   UNL     1     -43.553 -52.189  11.418  1.00  0.00     0.162 HD
BRANCH  12  15
HETATM   15  C   UNL     1     -44.626 -53.921  12.991  1.00  0.00     0.078 C 
HETATM   16  C   UNL     1     -45.419 -53.016  13.973  1.00  0.00     0.014 C 
HETATM   17  C   UNL     1     -46.227 -54.262  14.378  1.00  0.00     0.002 C 
HETATM   18  C   UNL     1     -45.037 -55.112  13.898  1.00  0.00     0.014 C 
ENDBRANCH  12  15
ENDBRANCH  10  11
ENDBRANCH   1  10
TORSDOF 5
ENDMDL
MODEL 9
REMARK VINA RESULT:      -4.7      5.314      7.394
REMARK  5 active torsions:
REMARK  status: ('A' for Active; 'I' for Inactive)
REMARK    1  A    between atoms: C_2  and  C_3 
REMARK    2  A    between atoms: C_6  and  C_7 
REMARK    3  A    between atoms: C_7  and  C_8 
REMARK    4  A    between atoms: C_8  and  N_9 
REMARK       I    between atoms: N_9  and  C_10 
REMARK    5  A    between atoms: C_10  and  C_12 
ROOT
HETATM    1  C   UNL     1     -43.125 -53.132  12.539  1.00  0.00     0.077 C 
ENDROOT
BRANCH   1   2
HETATM    2  C   UNL     1     -41.937 -53.568  13.340  1.00  0.00     0.018 A 
HETATM    3  N   UNL     1     -42.133 -54.281  14.514  1.00  0.00    -0.357 N 
HETATM    4  C   UNL     1     -40.975 -54.606  15.049  1.00  0.00     0.050 A 
ATOM      5  HN  UNL     1     -43.043 -54.519  14.906  1.00  0.00     0.166 HD
HETATM    6  S   UNL     1     -39.590 -54.022  14.215  1.00  0.00    -0.087 SA
HETATM    7  C   UNL     1     -40.612 -53.326  13.031  1.00  0.00     0.076 A 
BRANCH   4   8
HETATM    8  C   UNL     1     -40.825 -55.433  16.287  1.00  0.00     0.060 C 
HETATM    9  C   UNL     1     -41.792 -54.987  17.374  1.00  0.00     0.012 C 
ENDBRANCH   4   8
ENDBRANCH   1   2
BRANCH   1  10
HETATM   10  C   UNL     1     -44.318 -54.075  12.691  1.00  0.00     0.128 C 
BRANCH  10  11
HETATM   11  N   UNL     1     -45.428 -53.466  13.408  1.00  0.00    -0.360 N 
HETATM   12  C   UNL     1     -45.696 -53.767  14.728  1.00  0.00     0.221 C 
HETATM   13  O   UNL     1     -45.058 -54.630  15.333  1.00  0.00    -0.273 OA
HETATM   14  H   UNL     1     -45.984 -52.769  12.931  1.00  0.00     0.162 HD
BRANCH  12  15
HETATM   15  C   UNL     1     -46.846 -52.922  15.351  1.00  0.00     0.078 C 
HETATM   16  C   UNL     1     -46.898 -51.418  14.966  1.00  0.00     0.014 C 
HETATM   17  C   UNL     1     -47.333 -51.122  16.412  1.00  0.00     0.002 C 
HETATM   18  C   UNL     1     -46.663 -52.447  16.818  1.00  0.00     0.014 C 
ENDBRANCH  12  15
ENDBRANCH  10  11
ENDBRANCH   1  10
TORSDOF 5
ENDMDL
