MODEL 1
REMARK VINA RESULT:      -5.9      0.000      0.000
REMARK  5 active torsions:
REMARK  status: ('A' for Active; 'I' for Inactive)
REMARK    1  A    between atoms: O_2  and  C_3 
REMARK    2  A    between atoms: C_9  and  N_10 
REMARK       I    between atoms: N_10  and  C_11 
REMARK       I    between atoms: C_11  and  N_13 
REMARK    3  A    between atoms: N_13  and  C_14 
REMARK    4  A    between atoms: C_14  and  C_15 
REMARK    5  A    between atoms: C_15  and  N_16 
ROOT
HETATM    1  N   UNL     1     -42.796 -52.618  12.103  1.00  0.00    -0.305 N 
HETATM    2  C   UNL     1     -42.360 -51.360  12.433  1.00  0.00     0.320 C 
HETATM    3  O   UNL     1     -42.539 -50.806  13.515  1.00  0.00    -0.247 OA
HETATM    4  N   UNL     1     -41.690 -50.707  11.416  1.00  0.00    -0.341 N 
HETATM    5  H   UNL     1     -42.444 -53.057  11.262  1.00  0.00     0.171 HD
HETATM    6  H   UNL     1     -41.157 -51.279  10.780  1.00  0.00     0.164 HD
ENDROOT
BRANCH   1   7
HETATM    7  C   UNL     1     -43.613 -53.437  12.930  1.00  0.00     0.087 A 
HETATM    8  C   UNL     1     -45.005 -53.421  12.807  1.00  0.00     0.169 A 
HETATM    9  N   UNL     1     -45.851 -54.149  13.581  1.00  0.00    -0.345 N 
HETATM   10  C   UNL     1     -45.294 -54.967  14.497  1.00  0.00     0.090 A 
ATOM     11  HN  UNL     1     -46.863 -54.080  13.474  1.00  0.00     0.167 HD
HETATM   12  C   UNL     1     -43.931 -55.086  14.680  1.00  0.00     0.019 A 
HETATM   13  C   UNL     1     -43.088 -54.301  13.896  1.00  0.00     0.035 A 
BRANCH   8  14
HETATM   14  O   UNL     1     -45.555 -52.642  11.802  1.00  0.00    -0.339 OA
HETATM   15  C   UNL     1     -46.628 -51.842  12.306  1.00  0.00     0.211 C 
ENDBRANCH   8  14
ENDBRANCH   1   7
BRANCH   4  16
HETATM   16  C   UNL     1     -41.167 -49.391  11.765  1.00  0.00     0.154 C 
BRANCH  16  17
HETATM   17  C   UNL     1     -41.540 -48.247  10.812  1.00  0.00     0.292 C 
BRANCH  17  18
HETATM   18  N   UNL     1     -42.823 -47.604  11.177  1.00  0.00     0.094 N 
HETATM   19  C   UNL     1     -43.757 -47.441  10.035  1.00  0.00     0.298 C 
HETATM   20  C   UNL     1     -43.289 -46.397   9.013  1.00  0.00     0.198 C 
HETATM   21  O   UNL     1     -43.123 -45.117   9.636  1.00  0.00    -0.388 OA
HETATM   22  C   UNL     1     -42.206 -45.189  10.736  1.00  0.00     0.198 C 
HETATM   23  C   UNL     1     -42.615 -46.261  11.762  1.00  0.00     0.298 C 
ENDBRANCH  17  18
ENDBRANCH  16  17
ENDBRANCH   4  16
TORSDOF 5
ENDMDL
MODEL 2
REMARK VINA RESULT:      -5.9      1.784      7.525
REMARK  5 active torsions:
REMARK  status: ('A' for Active; 'I' for Inactive)
REMARK    1  A    between atoms: O_2  and  C_3 
REMARK    2  A    between atoms: C_9  and  N_10 
REMARK       I    between atoms: N_10  and  C_11 
REMARK       I    between atoms: C_11  and  N_13 
REMARK    3  A    between atoms: N_13  and  C_14 
REMARK    4  A    between atoms: C_14  and  C_15 
REMARK    5  A    between atoms: C_15  and  N_16 
ROOT
HETATM    1  N   UNL     1     -41.030 -49.249  10.652  1.00  0.00    -0.305 N 
HETATM    2  C   UNL     1     -41.320 -50.104  11.684  1.00  0.00     0.320 C 
HETATM    3  O   UNL     1     -41.732 -49.768  12.792  1.00  0.00    -0.247 OA
HETATM    4  N   UNL     1     -41.092 -51.437  11.399  1.00  0.00    -0.341 N 
HETATM    5  H   UNL     1     -40.876 -49.629   9.726  1.00  0.00     0.171 HD
HETATM    6  H   UNL     1     -41.227 -51.729  10.443  1.00  0.00     0.164 HD
ENDROOT
BRANCH   1   7
HETATM    7  C   UNL     1     -41.063 -47.830  10.739  1.00  0.00     0.087 A 
HETATM    8  C   UNL     1     -42.149 -47.105  10.244  1.00  0.00     0.169 A 
HETATM    9  N   UNL     1     -42.239 -45.750  10.262  1.00  0.00    -0.345 N 
HETATM   10  C   UNL     1     -41.221 -45.075  10.836  1.00  0.00     0.090 A 
ATOM     11  HN  UNL     1     -43.039 -45.263   9.859  1.00  0.00     0.167 HD
HETATM   12  C   UNL     1     -40.117 -45.693  11.387  1.00  0.00     0.019 A 
HETATM   13  C   UNL     1     -40.035 -47.082  11.323  1.00  0.00     0.035 A 
BRANCH   8  14
HETATM   14  O   UNL     1     -43.224 -47.818   9.737  1.00  0.00    -0.339 OA
HETATM   15  C   UNL     1     -43.557 -47.372   8.420  1.00  0.00     0.211 C 
ENDBRANCH   8  14
ENDBRANCH   1   7
BRANCH   4  16
HETATM   16  C   UNL     1     -41.449 -52.368  12.462  1.00  0.00     0.154 C 
BRANCH  16  17
HETATM   17  C   UNL     1     -42.870 -52.944  12.399  1.00  0.00     0.292 C 
BRANCH  17  18
HETATM   18  N   UNL     1     -43.627 -52.718  13.651  1.00  0.00     0.094 N 
HETATM   19  C   UNL     1     -43.020 -53.363  14.842  1.00  0.00     0.298 C 
HETATM   20  C   UNL     1     -43.117 -54.894  14.820  1.00  0.00     0.198 C 
HETATM   21  O   UNL     1     -44.485 -55.314  14.737  1.00  0.00    -0.388 OA
HETATM   22  C   UNL     1     -45.133 -54.752  13.588  1.00  0.00     0.198 C 
HETATM   23  C   UNL     1     -45.017 -53.218  13.549  1.00  0.00     0.298 C 
ENDBRANCH  17  18
ENDBRANCH  16  17
ENDBRANCH   4  16
TORSDOF 5
ENDMDL
MODEL 3
REMARK VINA RESULT:      -5.9      2.523      7.330
REMARK  5 active torsions:
REMARK  status: ('A' for Active; 'I' for Inactive)
REMARK    1  A    between atoms: O_2  and  C_3 
REMARK    2  A    between atoms: C_9  and  N_10 
REMARK       I    between atoms: N_10  and  C_11 
REMARK       I    between atoms: C_11  and  N_13 
REMARK    3  A    between atoms: N_13  and  C_14 
REMARK    4  A    between atoms: C_14  and  C_15 
REMARK    5  A    between atoms: C_15  and  N_16 
ROOT
HETATM    1  N   UNL     1     -42.190 -48.186   9.546  1.00  0.00    -0.305 N 
HETATM    2  C   UNL     1     -41.711 -48.587  10.767  1.00  0.00     0.320 C 
HETATM    3  O   UNL     1     -42.217 -48.318  11.854  1.00  0.00    -0.247 OA
HETATM    4  N   UNL     1     -40.551 -49.335  10.704  1.00  0.00    -0.341 N 
HETATM    5  H   UNL     1     -41.814 -48.609   8.707  1.00  0.00     0.171 HD
HETATM    6  H   UNL     1     -40.429 -49.922   9.893  1.00  0.00     0.164 HD
ENDROOT
BRANCH   1   7
HETATM    7  C   UNL     1     -43.292 -47.309   9.355  1.00  0.00     0.087 A 
HETATM    8  C   UNL     1     -43.142 -45.926   9.488  1.00  0.00     0.169 A 
HETATM    9  N   UNL     1     -44.152 -45.028   9.353  1.00  0.00    -0.345 N 
HETATM   10  C   UNL     1     -45.367 -45.516   9.027  1.00  0.00     0.090 A 
ATOM     11  HN  UNL     1     -43.999 -44.030   9.490  1.00  0.00     0.167 HD
HETATM   12  C   UNL     1     -45.619 -46.860   8.838  1.00  0.00     0.019 A 
HETATM   13  C   UNL     1     -44.572 -47.761   9.018  1.00  0.00     0.035 A 
BRANCH   8  14
HETATM   14  O   UNL     1     -41.869 -45.436   9.735  1.00  0.00    -0.339 OA
HETATM   15  C   UNL     1     -41.834 -44.705  10.964  1.00  0.00     0.211 C 
ENDBRANCH   8  14
ENDBRANCH   1   7
BRANCH   4  16
HETATM   16  C   UNL     1     -40.057 -49.820  11.987  1.00  0.00     0.154 C 
BRANCH  16  17
HETATM   17  C   UNL     1     -40.118 -51.339  12.198  1.00  0.00     0.292 C 
BRANCH  17  18
HETATM   18  N   UNL     1     -40.779 -51.706  13.471  1.00  0.00     0.094 N 
HETATM   19  C   UNL     1     -40.492 -53.092  13.916  1.00  0.00     0.298 C 
HETATM   20  C   UNL     1     -41.146 -54.162  13.032  1.00  0.00     0.198 C 
HETATM   21  O   UNL     1     -42.569 -53.992  13.000  1.00  0.00    -0.388 OA
HETATM   22  C   UNL     1     -42.926 -52.679  12.548  1.00  0.00     0.198 C 
HETATM   23  C   UNL     1     -42.251 -51.576  13.382  1.00  0.00     0.298 C 
ENDBRANCH  17  18
ENDBRANCH  16  17
ENDBRANCH   4  16
TORSDOF 5
ENDMDL
MODEL 4
REMARK VINA RESULT:      -5.7      1.668      2.512
REMARK  5 active torsions:
REMARK  status: ('A' for Active; 'I' for Inactive)
REMARK    1  A    between atoms: O_2  and  C_3 
REMARK    2  A    between atoms: C_9  and  N_10 
REMARK       I    between atoms: N_10  and  C_11 
REMARK       I    between atoms: C_11  and  N_13 
REMARK    3  A    between atoms: N_13  and  C_14 
REMARK    4  A    between atoms: C_14  and  C_15 
REMARK    5  A    between atoms: C_15  and  N_16 
ROOT
HETATM    1  N   UNL     1     -41.984 -52.816  11.956  1.00  0.00    -0.305 N 
HETATM    2  C   UNL     1     -41.598 -51.517  12.164  1.00  0.00     0.320 C 
HETATM    3  O   UNL     1     -41.906 -50.830  13.136  1.00  0.00    -0.247 OA
HETATM    4  N   UNL     1     -40.818 -50.987  11.154  1.00  0.00    -0.341 N 
HETATM    5  H   UNL     1     -41.532 -53.353  11.226  1.00  0.00     0.171 HD
HETATM    6  H   UNL     1     -40.211 -51.625  10.664  1.00  0.00     0.164 HD
ENDROOT
BRANCH   1   7
HETATM    7  C   UNL     1     -42.886 -53.539  12.785  1.00  0.00     0.087 A 
HETATM    8  C   UNL     1     -42.427 -54.256  13.892  1.00  0.00     0.169 A 
HETATM    9  N   UNL     1     -43.221 -54.995  14.710  1.00  0.00    -0.345 N 
HETATM   10  C   UNL     1     -44.544 -54.992  14.447  1.00  0.00     0.090 A 
ATOM     11  HN  UNL     1     -42.834 -55.527  15.489  1.00  0.00     0.167 HD
HETATM   12  C   UNL     1     -45.107 -54.291  13.400  1.00  0.00     0.019 A 
HETATM   13  C   UNL     1     -44.265 -53.570  12.556  1.00  0.00     0.035 A 
BRANCH   8  14
HETATM   14  O   UNL     1     -41.077 -54.176  14.199  1.00  0.00    -0.339 OA
HETATM   15  C   UNL     1     -40.881 -53.557  15.473  1.00  0.00     0.211 C 
ENDBRANCH   8  14
ENDBRANCH   1   7
BRANCH   4  16
HETATM   16  C   UNL     1     -40.349 -49.625  11.383  1.00  0.00     0.154 C 
BRANCH  16  17
HETATM   17  C   UNL     1     -41.222 -48.508  10.796  1.00  0.00     0.292 C 
BRANCH  17  18
HETATM   18  N   UNL     1     -41.421 -47.389  11.745  1.00  0.00     0.094 N 
HETATM   19  C   UNL     1     -42.626 -46.572  11.463  1.00  0.00     0.298 C 
HETATM   20  C   UNL     1     -42.506 -45.734  10.183  1.00  0.00     0.198 C 
HETATM   21  O   UNL     1     -41.380 -44.851  10.259  1.00  0.00    -0.388 OA
HETATM   22  C   UNL     1     -40.167 -45.575  10.502  1.00  0.00     0.198 C 
HETATM   23  C   UNL     1     -40.263 -46.466  11.753  1.00  0.00     0.298 C 
ENDBRANCH  17  18
ENDBRANCH  16  17
ENDBRANCH   4  16
TORSDOF 5
ENDMDL
MODEL 5
REMARK VINA RESULT:      -5.6      2.031      7.576
REMARK  5 active torsions:
REMARK  status: ('A' for Active; 'I' for Inactive)
REMARK    1  A    between atoms: O_2  and  C_3 
REMARK    2  A    between atoms: C_9  and  N_10 
REMARK       I    between atoms: N_10  and  C_11 
REMARK       I    between atoms: C_11  and  N_13 
REMARK    3  A    between atoms: N_13  and  C_14 
REMARK    4  A    between atoms: C_14  and  C_15 
REMARK    5  A    between atoms: C_15  and  N_16 
ROOT
HETATM    1  N   UNL     1     -41.100 -47.850  10.343  1.00  0.00    -0.305 N 
HETATM    2  C   UNL     1     -40.841 -48.797  11.301  1.00  0.00     0.320 C 
HETATM    3  O   UNL     1     -40.892 -48.614  12.515  1.00  0.00    -0.247 OA
HETATM    4  N   UNL     1     -40.478 -50.031  10.796  1.00  0.00    -0.341 N 
HETATM    5  H   UNL     1     -41.213 -48.142   9.380  1.00  0.00     0.171 HD
HETATM    6  H   UNL     1     -40.882 -50.300   9.913  1.00  0.00     0.164 HD
ENDROOT
BRANCH   1   7
HETATM    7  C   UNL     1     -41.370 -46.480  10.609  1.00  0.00     0.087 A 
HETATM    8  C   UNL     1     -42.665 -45.967  10.498  1.00  0.00     0.169 A 
HETATM    9  N   UNL     1     -42.995 -44.666  10.703  1.00  0.00    -0.345 N 
HETATM   10  C   UNL     1     -42.002 -43.833  11.078  1.00  0.00     0.090 A 
ATOM     11  HN  UNL     1     -43.951 -44.333  10.580  1.00  0.00     0.167 HD
HETATM   12  C   UNL     1     -40.695 -44.241  11.250  1.00  0.00     0.019 A 
HETATM   13  C   UNL     1     -40.379 -45.574  10.999  1.00  0.00     0.035 A 
BRANCH   8  14
HETATM   14  O   UNL     1     -43.687 -46.855  10.198  1.00  0.00    -0.339 OA
HETATM   15  C   UNL     1     -44.331 -46.495   8.973  1.00  0.00     0.211 C 
ENDBRANCH   8  14
ENDBRANCH   1   7
BRANCH   4  16
HETATM   16  C   UNL     1     -40.254 -51.068  11.797  1.00  0.00     0.154 C 
BRANCH  16  17
HETATM   17  C   UNL     1     -41.363 -52.120  11.931  1.00  0.00     0.292 C 
BRANCH  17  18
HETATM   18  N   UNL     1     -42.162 -51.945  13.165  1.00  0.00     0.094 N 
HETATM   19  C   UNL     1     -41.768 -52.857  14.267  1.00  0.00     0.298 C 
HETATM   20  C   UNL     1     -42.129 -54.324  13.999  1.00  0.00     0.198 C 
HETATM   21  O   UNL     1     -43.538 -54.469  13.786  1.00  0.00    -0.388 OA
HETATM   22  C   UNL     1     -43.990 -53.635  12.710  1.00  0.00     0.198 C 
HETATM   23  C   UNL     1     -43.605 -52.159  12.919  1.00  0.00     0.298 C 
ENDBRANCH  17  18
ENDBRANCH  16  17
ENDBRANCH   4  16
TORSDOF 5
ENDMDL
MODEL 6
REMARK VINA RESULT:      -5.4      3.221      4.534
REMARK  5 active torsions:
REMARK  status: ('A' for Active; 'I' for Inactive)
REMARK    1  A    between atoms: O_2  and  C_3 
REMARK    2  A    between atoms: C_9  and  N_10 
REMARK       I    between atoms: N_10  and  C_11 
REMARK       I    between atoms: C_11  and  N_13 
REMARK    3  A    between atoms: N_13  and  C_14 
REMARK    4  A    between atoms: C_14  and  C_15 
REMARK    5  A    between atoms: C_15  and  N_16 
ROOT
HETATM    1  N   UNL     1     -40.477 -50.607  11.279  1.00  0.00    -0.305 N 
HETATM    2  C   UNL     1     -41.459 -49.649  11.285  1.00  0.00     0.320 C 
HETATM    3  O   UNL     1     -42.357 -49.556  12.119  1.00  0.00    -0.247 OA
HETATM    4  N   UNL     1     -41.390 -48.759  10.230  1.00  0.00    -0.341 N 
HETATM    5  H   UNL     1     -39.681 -50.493  10.664  1.00  0.00     0.171 HD
HETATM    6  H   UNL     1     -40.471 -48.543   9.875  1.00  0.00     0.164 HD
ENDROOT
BRANCH   1   7
HETATM    7  C   UNL     1     -40.407 -51.704  12.181  1.00  0.00     0.087 A 
HETATM    8  C   UNL     1     -39.472 -51.722  13.220  1.00  0.00     0.169 A 
HETATM    9  N   UNL     1     -39.323 -52.745  14.100  1.00  0.00    -0.345 N 
HETATM   10  C   UNL     1     -40.168 -53.789  13.975  1.00  0.00     0.090 A 
ATOM     11  HN  UNL     1     -38.604 -52.726  14.822  1.00  0.00     0.167 HD
HETATM   12  C   UNL     1     -41.150 -53.859  13.008  1.00  0.00     0.019 A 
HETATM   13  C   UNL     1     -41.258 -52.811  12.097  1.00  0.00     0.035 A 
BRANCH   8  14
HETATM   14  O   UNL     1     -38.671 -50.603  13.386  1.00  0.00    -0.339 OA
HETATM   15  C   UNL     1     -37.323 -50.878  12.997  1.00  0.00     0.211 C 
ENDBRANCH   8  14
ENDBRANCH   1   7
BRANCH   4  16
HETATM   16  C   UNL     1     -42.390 -47.698  10.250  1.00  0.00     0.154 C 
BRANCH  16  17
HETATM   17  C   UNL     1     -41.875 -46.298  10.613  1.00  0.00     0.292 C 
BRANCH  17  18
HETATM   18  N   UNL     1     -40.415 -46.280  10.860  1.00  0.00     0.094 N 
HETATM   19  C   UNL     1     -40.052 -46.268  12.299  1.00  0.00     0.298 C 
HETATM   20  C   UNL     1     -40.393 -44.946  13.000  1.00  0.00     0.198 C 
HETATM   21  O   UNL     1     -39.725 -43.849  12.364  1.00  0.00    -0.388 OA
HETATM   22  C   UNL     1     -40.052 -43.778  10.970  1.00  0.00     0.198 C 
HETATM   23  C   UNL     1     -39.768 -45.103  10.240  1.00  0.00     0.298 C 
ENDBRANCH  17  18
ENDBRANCH  16  17
ENDBRANCH   4  16
TORSDOF 5
ENDMDL
MODEL 7
REMARK VINA RESULT:      -5.3      2.161      3.049
REMARK  5 active torsions:
REMARK  status: ('A' for Active; 'I' for Inactive)
REMARK    1  A    between atoms: O_2  and  C_3 
REMARK    2  A    between atoms: C_9  and  N_10 
REMARK       I    between atoms: N_10  and  C_11 
REMARK       I    between atoms: C_11  and  N_13 
REMARK    3  A    between atoms: N_13  and  C_14 
REMARK    4  A    between atoms: C_14  and  C_15 
REMARK    5  A    between atoms: C_15  and  N_16 
ROOT
HETATM    1  N   UNL     1     -40.908 -51.355  11.621  1.00  0.00    -0.305 N 
HETATM    2  C   UNL     1     -41.396 -50.088  11.819  1.00  0.00     0.320 C 
HETATM    3  O   UNL     1     -41.730 -49.615  12.903  1.00  0.00    -0.247 OA
HETATM    4  N   UNL     1     -41.519 -49.340  10.663  1.00  0.00    -0.341 N 
HETATM    5  H   UNL     1     -40.490 -51.588  10.729  1.00  0.00     0.171 HD
HETATM    6  H   UNL     1     -40.848 -49.518   9.931  1.00  0.00     0.164 HD
ENDROOT
BRANCH   1   7
HETATM    7  C   UNL     1     -40.808 -52.352  12.630  1.00  0.00     0.087 A 
HETATM    8  C   UNL     1     -41.892 -53.180  12.932  1.00  0.00     0.169 A 
HETATM    9  N   UNL     1     -41.883 -54.132  13.901  1.00  0.00    -0.345 N 
HETATM   10  C   UNL     1     -40.731 -54.305  14.580  1.00  0.00     0.090 A 
ATOM     11  HN  UNL     1     -42.711 -54.691  14.106  1.00  0.00     0.167 HD
HETATM   12  C   UNL     1     -39.591 -53.566  14.340  1.00  0.00     0.019 A 
HETATM   13  C   UNL     1     -39.638 -52.573  13.364  1.00  0.00     0.035 A 
BRANCH   8  14
HETATM   14  O   UNL     1     -43.039 -53.048  12.164  1.00  0.00    -0.339 OA
HETATM   15  C   UNL     1     -44.119 -52.533  12.947  1.00  0.00     0.211 C 
ENDBRANCH   8  14
ENDBRANCH   1   7
BRANCH   4  16
HETATM   16  C   UNL     1     -41.981 -47.972  10.858  1.00  0.00     0.154 C 
BRANCH  16  17
HETATM   17  C   UNL     1     -43.463 -47.715  10.550  1.00  0.00     0.292 C 
BRANCH  17  18
HETATM   18  N   UNL     1     -43.724 -47.585   9.098  1.00  0.00     0.094 N 
HETATM   19  C   UNL     1     -43.467 -46.225   8.564  1.00  0.00     0.298 C 
HETATM   20  C   UNL     1     -44.482 -45.181   9.047  1.00  0.00     0.198 C 
HETATM   21  O   UNL     1     -45.813 -45.559   8.675  1.00  0.00    -0.388 OA
HETATM   22  C   UNL     1     -46.147 -46.857   9.185  1.00  0.00     0.198 C 
HETATM   23  C   UNL     1     -45.124 -47.926   8.760  1.00  0.00     0.298 C 
ENDBRANCH  17  18
ENDBRANCH  16  17
ENDBRANCH   4  16
TORSDOF 5
ENDMDL
MODEL 8
REMARK VINA RESULT:      -5.2      2.198      6.674
REMARK  5 active torsions:
REMARK  status: ('A' for Active; 'I' for Inactive)
REMARK    1  A    between atoms: O_2  and  C_3 
REMARK    2  A    between atoms: C_9  and  N_10 
REMARK       I    between atoms: N_10  and  C_11 
REMARK       I    between atoms: C_11  and  N_13 
REMARK    3  A    between atoms: N_13  and  C_14 
REMARK    4  A    between atoms: C_14  and  C_15 
REMARK    5  A    between atoms: C_15  and  N_16 
ROOT
HETATM    1  N   UNL     1     -41.475 -51.433  11.426  1.00  0.00    -0.305 N 
HETATM    2  C   UNL     1     -42.172 -52.145  12.368  1.00  0.00     0.320 C 
HETATM    3  O   UNL     1     -42.090 -51.986  13.584  1.00  0.00    -0.247 OA
HETATM    4  N   UNL     1     -43.002 -53.118  11.845  1.00  0.00    -0.341 N 
HETATM    5  H   UNL     1     -41.745 -51.507  10.453  1.00  0.00     0.171 HD
HETATM    6  H   UNL     1     -43.412 -52.932  10.943  1.00  0.00     0.164 HD
ENDROOT
BRANCH   1   7
HETATM    7  C   UNL     1     -40.471 -50.468  11.716  1.00  0.00     0.087 A 
HETATM    8  C   UNL     1     -40.740 -49.100  11.624  1.00  0.00     0.169 A 
HETATM    9  N   UNL     1     -39.826 -48.122  11.854  1.00  0.00    -0.345 N 
HETATM   10  C   UNL     1     -38.592 -48.512  12.233  1.00  0.00     0.090 A 
ATOM     11  HN  UNL     1     -40.063 -47.136  11.744  1.00  0.00     0.167 HD
HETATM   12  C   UNL     1     -38.229 -49.834  12.388  1.00  0.00     0.019 A 
HETATM   13  C   UNL     1     -39.176 -50.818  12.112  1.00  0.00     0.035 A 
BRANCH   8  14
HETATM   14  O   UNL     1     -42.037 -48.717  11.319  1.00  0.00    -0.339 OA
HETATM   15  C   UNL     1     -42.063 -47.898  10.147  1.00  0.00     0.211 C 
ENDBRANCH   8  14
ENDBRANCH   1   7
BRANCH   4  16
HETATM   16  C   UNL     1     -43.796 -53.847  12.827  1.00  0.00     0.154 C 
BRANCH  16  17
HETATM   17  C   UNL     1     -45.222 -53.327  13.055  1.00  0.00     0.292 C 
BRANCH  17  18
HETATM   18  N   UNL     1     -45.719 -53.625  14.418  1.00  0.00     0.094 N 
HETATM   19  C   UNL     1     -47.018 -52.981  14.734  1.00  0.00     0.298 C 
HETATM   20  C   UNL     1     -46.920 -51.457  14.882  1.00  0.00     0.198 C 
HETATM   21  O   UNL     1     -45.989 -51.107  15.914  1.00  0.00    -0.388 OA
HETATM   22  C   UNL     1     -44.696 -51.671  15.660  1.00  0.00     0.198 C 
HETATM   23  C   UNL     1     -44.758 -53.196  15.459  1.00  0.00     0.298 C 
ENDBRANCH  17  18
ENDBRANCH  16  17
ENDBRANCH   4  16
TORSDOF 5
ENDMDL
MODEL 9
REMARK VINA RESULT:      -5.1      2.855      7.969
REMARK  5 active torsions:
REMARK  status: ('A' for Active; 'I' for Inactive)
REMARK    1  A    between atoms: O_2  and  C_3 
REMARK    2  A    between atoms: C_9  and  N_10 
REMARK       I    between atoms: N_10  and  C_11 
REMARK       I    between atoms: C_11  and  N_13 
REMARK    3  A    between atoms: N_13  and  C_14 
REMARK    4  A    between atoms: C_14  and  C_15 
REMARK    5  A    between atoms: C_15  and  N_16 
ROOT
HETATM    1  N   UNL     1     -40.570 -50.507  11.027  1.00  0.00    -0.305 N 
HETATM    2  C   UNL     1     -41.189 -51.372  11.893  1.00  0.00     0.320 C 
HETATM    3  O   UNL     1     -41.985 -51.050  12.772  1.00  0.00    -0.247 OA
HETATM    4  N   UNL     1     -40.832 -52.696  11.724  1.00  0.00    -0.341 N 
HETATM    5  H   UNL     1     -40.079 -50.880  10.224  1.00  0.00     0.171 HD
HETATM    6  H   UNL     1     -40.602 -52.992  10.788  1.00  0.00     0.164 HD
ENDROOT
BRANCH   1   7
HETATM    7  C   UNL     1     -40.676 -49.090  11.080  1.00  0.00     0.087 A 
HETATM    8  C   UNL     1     -39.720 -48.322  11.750  1.00  0.00     0.169 A 
HETATM    9  N   UNL     1     -39.770 -46.970  11.872  1.00  0.00    -0.345 N 
HETATM   10  C   UNL     1     -40.795 -46.337  11.266  1.00  0.00     0.090 A 
ATOM     11  HN  UNL     1     -39.063 -46.457  12.398  1.00  0.00     0.167 HD
HETATM   12  C   UNL     1     -41.775 -46.994  10.550  1.00  0.00     0.019 A 
HETATM   13  C   UNL     1     -41.718 -48.384  10.471  1.00  0.00     0.035 A 
BRANCH   8  14
HETATM   14  O   UNL     1     -38.627 -48.981  12.291  1.00  0.00    -0.339 OA
HETATM   15  C   UNL     1     -38.639 -48.901  13.719  1.00  0.00     0.211 C 
ENDBRANCH   8  14
ENDBRANCH   1   7
BRANCH   4  16
HETATM   16  C   UNL     1     -41.523 -53.639  12.596  1.00  0.00     0.154 C 
BRANCH  16  17
HETATM   17  C   UNL     1     -40.743 -54.102  13.834  1.00  0.00     0.292 C 
BRANCH  17  18
HETATM   18  N   UNL     1     -41.323 -53.583  15.094  1.00  0.00     0.094 N 
HETATM   19  C   UNL     1     -40.885 -54.322  16.303  1.00  0.00     0.298 C 
HETATM   20  C   UNL     1     -41.457 -55.743  16.387  1.00  0.00     0.198 C 
HETATM   21  O   UNL     1     -42.890 -55.714  16.380  1.00  0.00    -0.388 OA
HETATM   22  C   UNL     1     -43.391 -55.038  15.219  1.00  0.00     0.198 C 
HETATM   23  C   UNL     1     -42.802 -53.622  15.073  1.00  0.00     0.298 C 
ENDBRANCH  17  18
ENDBRANCH  16  17
ENDBRANCH   4  16
TORSDOF 5
ENDMDL
