MODEL 1
REMARK VINA RESULT:      -5.5      0.000      0.000
REMARK  9 active torsions:
REMARK  status: ('A' for Active; 'I' for Inactive)
REMARK    1  A    between atoms: N_5  and  C_6 
REMARK    2  A    between atoms: C_6  and  C_7 
REMARK    3  A    between atoms: C_7  and  O_8 
REMARK    4  A    between atoms: C_7  and  C_9 
REMARK    5  A    between atoms: C_9  and  O_10 
REMARK    6  A    between atoms: O_10  and  C_11 
REMARK    7  A    between atoms: C_11  and  C_12 
REMARK    8  A    between atoms: C_20  and  C_21 
REMARK    9  A    between atoms: C_21  and  N_22 
ROOT
HETATM    1  C   UNL     1     -41.431 -55.444  16.236  1.00  0.00     0.070 C 
HETATM    2  C   UNL     1     -42.204 -54.882  15.066  1.00  0.00     0.029 A 
HETATM    3  N   UNL     1     -43.435 -55.262  14.941  1.00  0.00    -0.300 N 
ATOM      4  HN  UNL     1     -43.834 -55.945  15.584  1.00  0.00     0.187 HD
HETATM    5  N   UNL     1     -44.195 -54.729  13.927  1.00  0.00    -0.254 N 
HETATM    6  C   UNL     1     -43.700 -53.859  12.959  1.00  0.00     0.282 A 
HETATM    7  O   UNL     1     -44.355 -53.431  12.014  1.00  0.00    -0.265 OA
HETATM    8  C   UNL     1     -42.290 -53.470  13.137  1.00  0.00     0.103 A 
HETATM    9  C   UNL     1     -41.528 -53.944  14.142  1.00  0.00    -0.013 A 
HETATM   10  C   UNL     1     -40.079 -53.627  14.382  1.00  0.00     0.052 C 
ENDROOT
BRANCH   5  11
HETATM   11  C   UNL     1     -45.586 -55.182  13.841  1.00  0.00     0.186 C 
BRANCH  11  12
HETATM   12  C   UNL     1     -46.505 -54.577  14.920  1.00  0.00     0.162 C 
BRANCH  12  13
HETATM   13  O   UNL     1     -45.871 -54.564  16.203  1.00  0.00    -0.392 OA
HETATM   14  H   UNL     1     -46.166 -53.723  16.615  1.00  0.00     0.210 HD
ENDBRANCH  12  13
BRANCH  12  15
HETATM   15  C   UNL     1     -46.976 -53.161  14.549  1.00  0.00     0.201 C 
BRANCH  15  16
HETATM   16  O   UNL     1     -46.343 -52.143  15.321  1.00  0.00    -0.384 OA
BRANCH  16  17
HETATM   17  C   UNL     1     -45.722 -51.141  14.519  1.00  0.00     0.206 C 
BRANCH  17  18
HETATM   18  C   UNL     1     -44.317 -50.927  15.004  1.00  0.00    -0.035 A 
HETATM   19  C   UNL     1     -43.842 -51.615  16.131  1.00  0.00     0.009 A 
HETATM   20  C   UNL     1     -42.525 -51.448  16.555  1.00  0.00     0.001 A 
HETATM   21  C   UNL     1     -41.674 -50.592  15.860  1.00  0.00     0.000 A 
HETATM   22  C   UNL     1     -42.137 -49.904  14.739  1.00  0.00     0.001 A 
HETATM   23  C   UNL     1     -43.454 -50.072  14.311  1.00  0.00     0.009 A 
ENDBRANCH  17  18
ENDBRANCH  16  17
ENDBRANCH  15  16
ENDBRANCH  12  15
ENDBRANCH  11  12
ENDBRANCH   5  11
BRANCH   8  24
HETATM   24  C   UNL     1     -41.634 -52.543  12.127  1.00  0.00    -0.031 C 
BRANCH  24  25
HETATM   25  N   UNL     1     -41.090 -51.775  11.288  1.00  0.00    -0.365 N 
ATOM     26  HN2 UNL     1     -41.538 -52.382  11.973  1.00  0.00     0.165 HD
ATOM     27  HN1 UNL     1     -40.650 -51.153  10.610  1.00  0.00     0.165 HD
ENDBRANCH  24  25
ENDBRANCH   8  24
TORSDOF 9
ENDMDL
MODEL 2
REMARK VINA RESULT:      -5.3      2.641      5.755
REMARK  9 active torsions:
REMARK  status: ('A' for Active; 'I' for Inactive)
REMARK    1  A    between atoms: N_5  and  C_6 
REMARK    2  A    between atoms: C_6  and  C_7 
REMARK    3  A    between atoms: C_7  and  O_8 
REMARK    4  A    between atoms: C_7  and  C_9 
REMARK    5  A    between atoms: C_9  and  O_10 
REMARK    6  A    between atoms: O_10  and  C_11 
REMARK    7  A    between atoms: C_11  and  C_12 
REMARK    8  A    between atoms: C_20  and  C_21 
REMARK    9  A    between atoms: C_21  and  N_22 
ROOT
HETATM    1  C   UNL     1     -46.557 -51.588  12.344  1.00  0.00     0.070 C 
HETATM    2  C   UNL     1     -45.440 -51.118  13.247  1.00  0.00     0.029 A 
HETATM    3  N   UNL     1     -44.349 -50.725  12.673  1.00  0.00    -0.300 N 
ATOM      4  HN  UNL     1     -44.248 -50.780  11.660  1.00  0.00     0.187 HD
HETATM    5  N   UNL     1     -43.329 -50.232  13.451  1.00  0.00    -0.254 N 
HETATM    6  C   UNL     1     -43.357 -50.204  14.843  1.00  0.00     0.282 A 
HETATM    7  O   UNL     1     -42.425 -49.827  15.546  1.00  0.00    -0.265 OA
HETATM    8  C   UNL     1     -44.615 -50.677  15.448  1.00  0.00     0.103 A 
HETATM    9  C   UNL     1     -45.648 -51.131  14.713  1.00  0.00    -0.013 A 
HETATM   10  C   UNL     1     -46.951 -51.659  15.244  1.00  0.00     0.052 C 
ENDROOT
BRANCH   5  11
HETATM   11  C   UNL     1     -42.123 -49.787  12.748  1.00  0.00     0.186 C 
BRANCH  11  12
HETATM   12  C   UNL     1     -41.372 -50.920  12.022  1.00  0.00     0.162 C 
BRANCH  12  13
HETATM   13  O   UNL     1     -40.758 -50.454  10.816  1.00  0.00    -0.392 OA
HETATM   14  H   UNL     1     -40.036 -51.097  10.644  1.00  0.00     0.210 HD
ENDBRANCH  12  13
BRANCH  12  15
HETATM   15  C   UNL     1     -40.323 -51.588  12.925  1.00  0.00     0.201 C 
BRANCH  15  16
HETATM   16  O   UNL     1     -40.585 -52.971  13.156  1.00  0.00    -0.384 OA
BRANCH  16  17
HETATM   17  C   UNL     1     -41.095 -53.230  14.462  1.00  0.00     0.206 C 
BRANCH  17  18
HETATM   18  C   UNL     1     -42.484 -53.788  14.343  1.00  0.00    -0.035 A 
HETATM   19  C   UNL     1     -43.248 -54.044  15.492  1.00  0.00     0.009 A 
HETATM   20  C   UNL     1     -44.552 -54.523  15.380  1.00  0.00     0.001 A 
HETATM   21  C   UNL     1     -45.103 -54.750  14.121  1.00  0.00     0.000 A 
HETATM   22  C   UNL     1     -44.352 -54.500  12.972  1.00  0.00     0.001 A 
HETATM   23  C   UNL     1     -43.047 -54.019  13.083  1.00  0.00     0.009 A 
ENDBRANCH  17  18
ENDBRANCH  16  17
ENDBRANCH  15  16
ENDBRANCH  12  15
ENDBRANCH  11  12
ENDBRANCH   5  11
BRANCH   8  24
HETATM   24  C   UNL     1     -44.751 -50.716  16.962  1.00  0.00    -0.031 C 
BRANCH  24  25
HETATM   25  N   UNL     1     -44.864 -50.747  18.217  1.00  0.00    -0.365 N 
ATOM     26  HN2 UNL     1     -44.758 -50.731  17.203  1.00  0.00     0.165 HD
ATOM     27  HN1 UNL     1     -44.956 -50.773  19.233  1.00  0.00     0.165 HD
ENDBRANCH  24  25
ENDBRANCH   8  24
TORSDOF 9
ENDMDL
MODEL 3
REMARK VINA RESULT:      -5.2      2.147      4.287
REMARK  9 active torsions:
REMARK  status: ('A' for Active; 'I' for Inactive)
REMARK    1  A    between atoms: N_5  and  C_6 
REMARK    2  A    between atoms: C_6  and  C_7 
REMARK    3  A    between atoms: C_7  and  O_8 
REMARK    4  A    between atoms: C_7  and  C_9 
REMARK    5  A    between atoms: C_9  and  O_10 
REMARK    6  A    between atoms: O_10  and  C_11 
REMARK    7  A    between atoms: C_11  and  C_12 
REMARK    8  A    between atoms: C_20  and  C_21 
REMARK    9  A    between atoms: C_21  and  N_22 
ROOT
HETATM    1  C   UNL     1     -41.516 -53.462  17.149  1.00  0.00     0.070 C 
HETATM    2  C   UNL     1     -42.211 -53.618  15.816  1.00  0.00     0.029 A 
HETATM    3  N   UNL     1     -41.557 -53.237  14.766  1.00  0.00    -0.300 N 
ATOM      4  HN  UNL     1     -40.635 -52.811  14.857  1.00  0.00     0.187 HD
HETATM    5  N   UNL     1     -42.126 -53.416  13.528  1.00  0.00    -0.254 N 
HETATM    6  C   UNL     1     -43.412 -53.911  13.327  1.00  0.00     0.282 A 
HETATM    7  O   UNL     1     -43.951 -54.012  12.229  1.00  0.00    -0.265 OA
HETATM    8  C   UNL     1     -44.120 -54.315  14.555  1.00  0.00     0.103 A 
HETATM    9  C   UNL     1     -43.577 -54.188  15.781  1.00  0.00    -0.013 A 
HETATM   10  C   UNL     1     -44.235 -54.544  17.084  1.00  0.00     0.052 C 
ENDROOT
BRANCH   5  11
HETATM   11  C   UNL     1     -41.335 -52.982  12.373  1.00  0.00     0.186 C 
BRANCH  11  12
HETATM   12  C   UNL     1     -40.560 -51.671  12.608  1.00  0.00     0.162 C 
BRANCH  12  13
HETATM   13  O   UNL     1     -39.408 -51.583  11.763  1.00  0.00    -0.392 OA
HETATM   14  H   UNL     1     -39.331 -50.627  11.551  1.00  0.00     0.210 HD
ENDBRANCH  12  13
BRANCH  12  15
HETATM   15  C   UNL     1     -41.450 -50.432  12.419  1.00  0.00     0.201 C 
BRANCH  15  16
HETATM   16  O   UNL     1     -42.418 -50.277  13.454  1.00  0.00    -0.384 OA
BRANCH  16  17
HETATM   17  C   UNL     1     -43.757 -50.253  12.964  1.00  0.00     0.206 C 
BRANCH  17  18
HETATM   18  C   UNL     1     -44.686 -50.697  14.057  1.00  0.00    -0.035 A 
HETATM   19  C   UNL     1     -44.314 -50.564  15.404  1.00  0.00     0.009 A 
HETATM   20  C   UNL     1     -45.194 -50.937  16.418  1.00  0.00     0.001 A 
HETATM   21  C   UNL     1     -46.450 -51.446  16.097  1.00  0.00     0.000 A 
HETATM   22  C   UNL     1     -46.829 -51.583  14.762  1.00  0.00     0.001 A 
HETATM   23  C   UNL     1     -45.950 -51.208  13.745  1.00  0.00     0.009 A 
ENDBRANCH  17  18
ENDBRANCH  16  17
ENDBRANCH  15  16
ENDBRANCH  12  15
ENDBRANCH  11  12
ENDBRANCH   5  11
BRANCH   8  24
HETATM   24  C   UNL     1     -45.541 -54.846  14.461  1.00  0.00    -0.031 C 
BRANCH  24  25
HETATM   25  N   UNL     1     -46.720 -55.286  14.382  1.00  0.00    -0.365 N 
ATOM     26  HN2 UNL     1     -45.768 -54.924  14.429  1.00  0.00     0.165 HD
ATOM     27  HN1 UNL     1     -47.674 -55.642  14.318  1.00  0.00     0.165 HD
ENDBRANCH  24  25
ENDBRANCH   8  24
TORSDOF 9
ENDMDL
MODEL 4
REMARK VINA RESULT:      -5.0      2.202      4.410
REMARK  9 active torsions:
REMARK  status: ('A' for Active; 'I' for Inactive)
REMARK    1  A    between atoms: N_5  and  C_6 
REMARK    2  A    between atoms: C_6  and  C_7 
REMARK    3  A    between atoms: C_7  and  O_8 
REMARK    4  A    between atoms: C_7  and  C_9 
REMARK    5  A    between atoms: C_9  and  O_10 
REMARK    6  A    between atoms: O_10  and  C_11 
REMARK    7  A    between atoms: C_11  and  C_12 
REMARK    8  A    between atoms: C_20  and  C_21 
REMARK    9  A    between atoms: C_21  and  N_22 
ROOT
HETATM    1  C   UNL     1     -41.829 -53.471  18.189  1.00  0.00     0.070 C 
HETATM    2  C   UNL     1     -42.048 -53.715  16.714  1.00  0.00     0.029 A 
HETATM    3  N   UNL     1     -41.027 -53.551  15.935  1.00  0.00    -0.300 N 
ATOM      4  HN  UNL     1     -40.136 -53.227  16.311  1.00  0.00     0.187 HD
HETATM    5  N   UNL     1     -41.164 -53.821  14.594  1.00  0.00    -0.254 N 
HETATM    6  C   UNL     1     -42.366 -54.184  13.993  1.00  0.00     0.282 A 
HETATM    7  O   UNL     1     -42.511 -54.362  12.788  1.00  0.00    -0.265 OA
HETATM    8  C   UNL     1     -43.501 -54.342  14.920  1.00  0.00     0.103 A 
HETATM    9  C   UNL     1     -43.392 -54.123  16.244  1.00  0.00    -0.013 A 
HETATM   10  C   UNL     1     -44.498 -54.230  17.256  1.00  0.00     0.052 C 
ENDROOT
BRANCH   5  11
HETATM   11  C   UNL     1     -39.973 -53.633  13.762  1.00  0.00     0.186 C 
BRANCH  11  12
HETATM   12  C   UNL     1     -39.913 -52.262  13.061  1.00  0.00     0.162 C 
BRANCH  12  13
HETATM   13  O   UNL     1     -40.556 -52.297  11.783  1.00  0.00    -0.392 OA
HETATM   14  H   UNL     1     -41.516 -52.311  11.991  1.00  0.00     0.210 HD
ENDBRANCH  12  13
BRANCH  12  15
HETATM   15  C   UNL     1     -40.518 -51.144  13.926  1.00  0.00     0.201 C 
BRANCH  15  16
HETATM   16  O   UNL     1     -41.873 -50.852  13.593  1.00  0.00    -0.384 OA
BRANCH  16  17
HETATM   17  C   UNL     1     -42.601 -50.277  14.675  1.00  0.00     0.206 C 
BRANCH  17  18
HETATM   18  C   UNL     1     -44.044 -50.676  14.562  1.00  0.00    -0.035 A 
HETATM   19  C   UNL     1     -44.600 -50.983  13.310  1.00  0.00     0.009 A 
HETATM   20  C   UNL     1     -45.928 -51.394  13.210  1.00  0.00     0.001 A 
HETATM   21  C   UNL     1     -46.711 -51.500  14.358  1.00  0.00     0.000 A 
HETATM   22  C   UNL     1     -46.168 -51.197  15.606  1.00  0.00     0.001 A 
HETATM   23  C   UNL     1     -44.838 -50.787  15.708  1.00  0.00     0.009 A 
ENDBRANCH  17  18
ENDBRANCH  16  17
ENDBRANCH  15  16
ENDBRANCH  12  15
ENDBRANCH  11  12
ENDBRANCH   5  11
BRANCH   8  24
HETATM   24  C   UNL     1     -44.870 -54.712  14.373  1.00  0.00    -0.031 C 
BRANCH  24  25
HETATM   25  N   UNL     1     -46.006 -55.019  13.920  1.00  0.00    -0.365 N 
ATOM     26  HN2 UNL     1     -45.085 -54.787  14.290  1.00  0.00     0.165 HD
ATOM     27  HN1 UNL     1     -46.924 -55.267  13.552  1.00  0.00     0.165 HD
ENDBRANCH  24  25
ENDBRANCH   8  24
TORSDOF 9
ENDMDL
MODEL 5
REMARK VINA RESULT:      -4.9      2.105      3.909
REMARK  9 active torsions:
REMARK  status: ('A' for Active; 'I' for Inactive)
REMARK    1  A    between atoms: N_5  and  C_6 
REMARK    2  A    between atoms: C_6  and  C_7 
REMARK    3  A    between atoms: C_7  and  O_8 
REMARK    4  A    between atoms: C_7  and  C_9 
REMARK    5  A    between atoms: C_9  and  O_10 
REMARK    6  A    between atoms: O_10  and  C_11 
REMARK    7  A    between atoms: C_11  and  C_12 
REMARK    8  A    between atoms: C_20  and  C_21 
REMARK    9  A    between atoms: C_21  and  N_22 
ROOT
HETATM    1  C   UNL     1     -43.829 -49.686  15.800  1.00  0.00     0.070 C 
HETATM    2  C   UNL     1     -43.116 -50.950  15.377  1.00  0.00     0.029 A 
HETATM    3  N   UNL     1     -42.891 -51.831  16.299  1.00  0.00    -0.300 N 
ATOM      4  HN  UNL     1     -43.148 -51.644  17.267  1.00  0.00     0.187 HD
HETATM    5  N   UNL     1     -42.299 -53.021  15.949  1.00  0.00    -0.254 N 
HETATM    6  C   UNL     1     -41.844 -53.316  14.666  1.00  0.00     0.282 A 
HETATM    7  O   UNL     1     -41.256 -54.349  14.361  1.00  0.00    -0.265 OA
HETATM    8  C   UNL     1     -42.110 -52.274  13.658  1.00  0.00     0.103 A 
HETATM    9  C   UNL     1     -42.721 -51.113  13.960  1.00  0.00    -0.013 A 
HETATM   10  C   UNL     1     -43.005 -49.986  13.007  1.00  0.00     0.052 C 
ENDROOT
BRANCH   5  11
HETATM   11  C   UNL     1     -42.082 -53.988  17.028  1.00  0.00     0.186 C 
BRANCH  11  12
HETATM   12  C   UNL     1     -43.315 -54.857  17.342  1.00  0.00     0.162 C 
BRANCH  12  13
HETATM   13  O   UNL     1     -42.941 -56.109  17.927  1.00  0.00    -0.392 OA
HETATM   14  H   UNL     1     -43.330 -56.785  17.331  1.00  0.00     0.210 HD
ENDBRANCH  12  13
BRANCH  12  15
HETATM   15  C   UNL     1     -44.319 -54.129  18.249  1.00  0.00     0.201 C 
BRANCH  15  16
HETATM   16  O   UNL     1     -45.281 -53.369  17.520  1.00  0.00    -0.384 OA
BRANCH  16  17
HETATM   17  C   UNL     1     -45.974 -54.140  16.541  1.00  0.00     0.206 C 
BRANCH  17  18
HETATM   18  C   UNL     1     -46.093 -53.336  15.278  1.00  0.00    -0.035 A 
HETATM   19  C   UNL     1     -46.700 -52.071  15.297  1.00  0.00     0.009 A 
HETATM   20  C   UNL     1     -46.772 -51.308  14.132  1.00  0.00     0.001 A 
HETATM   21  C   UNL     1     -46.241 -51.802  12.943  1.00  0.00     0.000 A 
HETATM   22  C   UNL     1     -45.636 -53.058  12.915  1.00  0.00     0.001 A 
HETATM   23  C   UNL     1     -45.560 -53.822  14.080  1.00  0.00     0.009 A 
ENDBRANCH  17  18
ENDBRANCH  16  17
ENDBRANCH  15  16
ENDBRANCH  12  15
ENDBRANCH  11  12
ENDBRANCH   5  11
BRANCH   8  24
HETATM   24  C   UNL     1     -41.635 -52.475  12.229  1.00  0.00    -0.031 C 
BRANCH  24  25
HETATM   25  N   UNL     1     -41.240 -52.642  11.043  1.00  0.00    -0.365 N 
ATOM     26  HN2 UNL     1     -41.543 -52.504  12.007  1.00  0.00     0.165 HD
ATOM     27  HN1 UNL     1     -40.921 -52.776  10.083  1.00  0.00     0.165 HD
ENDBRANCH  24  25
ENDBRANCH   8  24
TORSDOF 9
ENDMDL
MODEL 6
REMARK VINA RESULT:      -4.9      2.490      5.500
REMARK  9 active torsions:
REMARK  status: ('A' for Active; 'I' for Inactive)
REMARK    1  A    between atoms: N_5  and  C_6 
REMARK    2  A    between atoms: C_6  and  C_7 
REMARK    3  A    between atoms: C_7  and  O_8 
REMARK    4  A    between atoms: C_7  and  C_9 
REMARK    5  A    between atoms: C_9  and  O_10 
REMARK    6  A    between atoms: O_10  and  C_11 
REMARK    7  A    between atoms: C_11  and  C_12 
REMARK    8  A    between atoms: C_20  and  C_21 
REMARK    9  A    between atoms: C_21  and  N_22 
ROOT
HETATM    1  C   UNL     1     -41.300 -51.683  17.275  1.00  0.00     0.070 C 
HETATM    2  C   UNL     1     -42.114 -51.240  16.082  1.00  0.00     0.029 A 
HETATM    3  N   UNL     1     -41.472 -50.670  15.113  1.00  0.00    -0.300 N 
ATOM      4  HN  UNL     1     -40.470 -50.494  15.189  1.00  0.00     0.187 HD
HETATM    5  N   UNL     1     -42.162 -50.305  13.982  1.00  0.00    -0.254 N 
HETATM    6  C   UNL     1     -43.541 -50.434  13.837  1.00  0.00     0.282 A 
HETATM    7  O   UNL     1     -44.173 -50.051  12.857  1.00  0.00    -0.265 OA
HETATM    8  C   UNL     1     -44.228 -51.074  14.974  1.00  0.00     0.103 A 
HETATM    9  C   UNL     1     -43.575 -51.477  16.081  1.00  0.00    -0.013 A 
HETATM   10  C   UNL     1     -44.196 -52.109  17.295  1.00  0.00     0.052 C 
ENDROOT
BRANCH   5  11
HETATM   11  C   UNL     1     -41.383 -49.678  12.911  1.00  0.00     0.186 C 
BRANCH  11  12
HETATM   12  C   UNL     1     -40.941 -50.659  11.808  1.00  0.00     0.162 C 
BRANCH  12  13
HETATM   13  O   UNL     1     -40.378 -49.969  10.687  1.00  0.00    -0.392 OA
HETATM   14  H   UNL     1     -39.722 -49.354  11.081  1.00  0.00     0.210 HD
ENDBRANCH  12  13
BRANCH  12  15
HETATM   15  C   UNL     1     -39.950 -51.710  12.333  1.00  0.00     0.201 C 
BRANCH  15  16
HETATM   16  O   UNL     1     -40.420 -53.047  12.175  1.00  0.00    -0.384 OA
BRANCH  16  17
HETATM   17  C   UNL     1     -40.563 -53.737  13.414  1.00  0.00     0.206 C 
BRANCH  17  18
HETATM   18  C   UNL     1     -42.014 -54.059  13.630  1.00  0.00    -0.035 A 
HETATM   19  C   UNL     1     -42.969 -53.716  12.661  1.00  0.00     0.009 A 
HETATM   20  C   UNL     1     -44.310 -54.053  12.843  1.00  0.00     0.001 A 
HETATM   21  C   UNL     1     -44.706 -54.732  13.993  1.00  0.00     0.000 A 
HETATM   22  C   UNL     1     -43.765 -55.076  14.962  1.00  0.00     0.001 A 
HETATM   23  C   UNL     1     -42.422 -54.742  14.780  1.00  0.00     0.009 A 
ENDBRANCH  17  18
ENDBRANCH  16  17
ENDBRANCH  15  16
ENDBRANCH  12  15
ENDBRANCH  11  12
ENDBRANCH   5  11
BRANCH   8  24
HETATM   24  C   UNL     1     -45.737 -51.245  14.938  1.00  0.00    -0.031 C 
BRANCH  24  25
HETATM   25  N   UNL     1     -46.990 -51.386  14.909  1.00  0.00    -0.365 N 
ATOM     26  HN2 UNL     1     -45.975 -51.289  14.929  1.00  0.00     0.165 HD
ATOM     27  HN1 UNL     1     -48.003 -51.500  14.885  1.00  0.00     0.165 HD
ENDBRANCH  24  25
ENDBRANCH   8  24
TORSDOF 9
ENDMDL
MODEL 7
REMARK VINA RESULT:      -4.9      3.651      6.432
REMARK  9 active torsions:
REMARK  status: ('A' for Active; 'I' for Inactive)
REMARK    1  A    between atoms: N_5  and  C_6 
REMARK    2  A    between atoms: C_6  and  C_7 
REMARK    3  A    between atoms: C_7  and  O_8 
REMARK    4  A    between atoms: C_7  and  C_9 
REMARK    5  A    between atoms: C_9  and  O_10 
REMARK    6  A    between atoms: O_10  and  C_11 
REMARK    7  A    between atoms: C_11  and  C_12 
REMARK    8  A    between atoms: C_20  and  C_21 
REMARK    9  A    between atoms: C_21  and  N_22 
ROOT
HETATM    1  C   UNL     1     -42.366 -47.921   9.721  1.00  0.00     0.070 C 
HETATM    2  C   UNL     1     -41.389 -48.198  10.840  1.00  0.00     0.029 A 
HETATM    3  N   UNL     1     -41.129 -49.440  11.097  1.00  0.00    -0.300 N 
ATOM      4  HN  UNL     1     -41.606 -50.184  10.588  1.00  0.00     0.187 HD
HETATM    5  N   UNL     1     -40.201 -49.738  12.066  1.00  0.00    -0.254 N 
HETATM    6  C   UNL     1     -39.572 -48.783  12.860  1.00  0.00     0.282 A 
HETATM    7  O   UNL     1     -38.792 -49.046  13.770  1.00  0.00    -0.265 OA
HETATM    8  C   UNL     1     -39.913 -47.386  12.539  1.00  0.00     0.103 A 
HETATM    9  C   UNL     1     -40.790 -47.058  11.571  1.00  0.00    -0.013 A 
HETATM   10  C   UNL     1     -41.219 -45.667  11.197  1.00  0.00     0.052 C 
ENDROOT
BRANCH   5  11
HETATM   11  C   UNL     1     -39.934 -51.159  12.304  1.00  0.00     0.186 C 
BRANCH  11  12
HETATM   12  C   UNL     1     -41.163 -52.066  12.096  1.00  0.00     0.162 C 
BRANCH  12  13
HETATM   13  O   UNL     1     -41.239 -52.545  10.749  1.00  0.00    -0.392 OA
HETATM   14  H   UNL     1     -41.276 -51.732  10.200  1.00  0.00     0.210 HD
ENDBRANCH  12  13
BRANCH  12  15
HETATM   15  C   UNL     1     -41.182 -53.247  13.079  1.00  0.00     0.201 C 
BRANCH  15  16
HETATM   16  O   UNL     1     -42.400 -53.989  13.036  1.00  0.00    -0.384 OA
BRANCH  16  17
HETATM   17  C   UNL     1     -43.163 -53.874  14.235  1.00  0.00     0.206 C 
BRANCH  17  18
HETATM   18  C   UNL     1     -44.398 -53.068  13.954  1.00  0.00    -0.035 A 
HETATM   19  C   UNL     1     -44.914 -52.197  14.926  1.00  0.00     0.009 A 
HETATM   20  C   UNL     1     -46.036 -51.417  14.649  1.00  0.00     0.001 A 
HETATM   21  C   UNL     1     -46.651 -51.503  13.403  1.00  0.00     0.000 A 
HETATM   22  C   UNL     1     -46.147 -52.366  12.430  1.00  0.00     0.001 A 
HETATM   23  C   UNL     1     -45.023 -53.145  12.705  1.00  0.00     0.009 A 
ENDBRANCH  17  18
ENDBRANCH  16  17
ENDBRANCH  15  16
ENDBRANCH  12  15
ENDBRANCH  11  12
ENDBRANCH   5  11
BRANCH   8  24
HETATM   24  C   UNL     1     -39.306 -46.258  13.357  1.00  0.00    -0.031 C 
BRANCH  24  25
HETATM   25  N   UNL     1     -38.802 -45.323  14.036  1.00  0.00    -0.365 N 
ATOM     26  HN2 UNL     1     -39.198 -46.076  13.474  1.00  0.00     0.165 HD
ATOM     27  HN1 UNL     1     -38.394 -44.566  14.585  1.00  0.00     0.165 HD
ENDBRANCH  24  25
ENDBRANCH   8  24
TORSDOF 9
ENDMDL
MODEL 8
REMARK VINA RESULT:      -4.8      3.438      6.044
REMARK  9 active torsions:
REMARK  status: ('A' for Active; 'I' for Inactive)
REMARK    1  A    between atoms: N_5  and  C_6 
REMARK    2  A    between atoms: C_6  and  C_7 
REMARK    3  A    between atoms: C_7  and  O_8 
REMARK    4  A    between atoms: C_7  and  C_9 
REMARK    5  A    between atoms: C_9  and  O_10 
REMARK    6  A    between atoms: O_10  and  C_11 
REMARK    7  A    between atoms: C_11  and  C_12 
REMARK    8  A    between atoms: C_20  and  C_21 
REMARK    9  A    between atoms: C_21  and  N_22 
ROOT
HETATM    1  C   UNL     1     -41.615 -48.101  10.531  1.00  0.00     0.070 C 
HETATM    2  C   UNL     1     -41.774 -48.835  11.843  1.00  0.00     0.029 A 
HETATM    3  N   UNL     1     -42.265 -50.031  11.788  1.00  0.00    -0.300 N 
ATOM      4  HN  UNL     1     -42.569 -50.426  10.899  1.00  0.00     0.187 HD
HETATM    5  N   UNL     1     -42.372 -50.759  12.950  1.00  0.00    -0.254 N 
HETATM    6  C   UNL     1     -42.059 -50.260  14.211  1.00  0.00     0.282 A 
HETATM    7  O   UNL     1     -42.214 -50.881  15.258  1.00  0.00    -0.265 OA
HETATM    8  C   UNL     1     -41.519 -48.889  14.220  1.00  0.00     0.103 A 
HETATM    9  C   UNL     1     -41.366 -48.162  13.097  1.00  0.00    -0.013 A 
HETATM   10  C   UNL     1     -40.854 -46.752  13.015  1.00  0.00     0.052 C 
ENDROOT
BRANCH   5  11
HETATM   11  C   UNL     1     -42.920 -52.112  12.828  1.00  0.00     0.186 C 
BRANCH  11  12
HETATM   12  C   UNL     1     -41.946 -53.123  12.192  1.00  0.00     0.162 C 
BRANCH  12  13
HETATM   13  O   UNL     1     -41.236 -52.547  11.091  1.00  0.00    -0.392 OA
HETATM   14  H   UNL     1     -41.200 -53.263  10.420  1.00  0.00     0.210 HD
ENDBRANCH  12  13
BRANCH  12  15
HETATM   15  C   UNL     1     -40.955 -53.695  13.218  1.00  0.00     0.201 C 
BRANCH  15  16
HETATM   16  O   UNL     1     -39.632 -53.188  13.058  1.00  0.00    -0.384 OA
BRANCH  16  17
HETATM   17  C   UNL     1     -39.101 -52.630  14.258  1.00  0.00     0.206 C 
BRANCH  17  18
HETATM   18  C   UNL     1     -38.573 -51.255  13.967  1.00  0.00    -0.035 A 
HETATM   19  C   UNL     1     -38.530 -50.776  12.649  1.00  0.00     0.009 A 
HETATM   20  C   UNL     1     -38.078 -49.483  12.384  1.00  0.00     0.001 A 
HETATM   21  C   UNL     1     -37.667 -48.662  13.431  1.00  0.00     0.000 A 
HETATM   22  C   UNL     1     -37.705 -49.130  14.744  1.00  0.00     0.001 A 
HETATM   23  C   UNL     1     -38.159 -50.422  15.012  1.00  0.00     0.009 A 
ENDBRANCH  17  18
ENDBRANCH  16  17
ENDBRANCH  15  16
ENDBRANCH  12  15
ENDBRANCH  11  12
ENDBRANCH   5  11
BRANCH   8  24
HETATM   24  C   UNL     1     -41.166 -48.230  15.544  1.00  0.00    -0.031 C 
BRANCH  24  25
HETATM   25  N   UNL     1     -40.874 -47.684  16.642  1.00  0.00    -0.365 N 
ATOM     26  HN2 UNL     1     -41.120 -48.112  15.750  1.00  0.00     0.165 HD
ATOM     27  HN1 UNL     1     -40.637 -47.242  17.530  1.00  0.00     0.165 HD
ENDBRANCH  24  25
ENDBRANCH   8  24
TORSDOF 9
ENDMDL
MODEL 9
REMARK VINA RESULT:      -4.8      2.672      5.347
REMARK  9 active torsions:
REMARK  status: ('A' for Active; 'I' for Inactive)
REMARK    1  A    between atoms: N_5  and  C_6 
REMARK    2  A    between atoms: C_6  and  C_7 
REMARK    3  A    between atoms: C_7  and  O_8 
REMARK    4  A    between atoms: C_7  and  C_9 
REMARK    5  A    between atoms: C_9  and  O_10 
REMARK    6  A    between atoms: O_10  and  C_11 
REMARK    7  A    between atoms: C_11  and  C_12 
REMARK    8  A    between atoms: C_20  and  C_21 
REMARK    9  A    between atoms: C_21  and  N_22 
ROOT
HETATM    1  C   UNL     1     -45.521 -50.848  17.711  1.00  0.00     0.070 C 
HETATM    2  C   UNL     1     -44.987 -50.699  16.305  1.00  0.00     0.029 A 
HETATM    3  N   UNL     1     -43.813 -50.167  16.178  1.00  0.00    -0.300 N 
ATOM      4  HN  UNL     1     -43.307 -49.828  16.996  1.00  0.00     0.187 HD
HETATM    5  N   UNL     1     -43.262 -50.068  14.923  1.00  0.00    -0.254 N 
HETATM    6  C   UNL     1     -43.923 -50.430  13.752  1.00  0.00     0.282 A 
HETATM    7  O   UNL     1     -43.463 -50.283  12.624  1.00  0.00    -0.265 OA
HETATM    8  C   UNL     1     -45.262 -51.015  13.950  1.00  0.00     0.103 A 
HETATM    9  C   UNL     1     -45.815 -51.161  15.169  1.00  0.00    -0.013 A 
HETATM   10  C   UNL     1     -47.181 -51.717  15.462  1.00  0.00     0.052 C 
ENDROOT
BRANCH   5  11
HETATM   11  C   UNL     1     -41.926 -49.472  14.838  1.00  0.00     0.186 C 
BRANCH  11  12
HETATM   12  C   UNL     1     -40.790 -50.434  15.238  1.00  0.00     0.162 C 
BRANCH  12  13
HETATM   13  O   UNL     1     -41.161 -51.250  16.354  1.00  0.00    -0.392 OA
HETATM   14  H   UNL     1     -40.385 -51.834  16.500  1.00  0.00     0.210 HD
ENDBRANCH  12  13
BRANCH  12  15
HETATM   15  C   UNL     1     -40.341 -51.318  14.063  1.00  0.00     0.201 C 
BRANCH  15  16
HETATM   16  O   UNL     1     -40.626 -52.701  14.264  1.00  0.00    -0.384 OA
BRANCH  16  17
HETATM   17  C   UNL     1     -41.363 -53.279  13.189  1.00  0.00     0.206 C 
BRANCH  17  18
HETATM   18  C   UNL     1     -42.685 -53.767  13.708  1.00  0.00    -0.035 A 
HETATM   19  C   UNL     1     -43.700 -54.148  12.817  1.00  0.00     0.009 A 
HETATM   20  C   UNL     1     -44.912 -54.640  13.299  1.00  0.00     0.001 A 
HETATM   21  C   UNL     1     -45.120 -54.753  14.672  1.00  0.00     0.000 A 
HETATM   22  C   UNL     1     -44.118 -54.376  15.565  1.00  0.00     0.001 A 
HETATM   23  C   UNL     1     -42.903 -53.886  15.084  1.00  0.00     0.009 A 
ENDBRANCH  17  18
ENDBRANCH  16  17
ENDBRANCH  15  16
ENDBRANCH  12  15
ENDBRANCH  11  12
ENDBRANCH   5  11
BRANCH   8  24
HETATM   24  C   UNL     1     -46.088 -51.423  12.742  1.00  0.00    -0.031 C 
BRANCH  24  25
HETATM   25  N   UNL     1     -46.773 -51.763  11.739  1.00  0.00    -0.365 N 
ATOM     26  HN2 UNL     1     -46.231 -51.496  12.560  1.00  0.00     0.165 HD
ATOM     27  HN1 UNL     1     -47.327 -52.037  10.928  1.00  0.00     0.165 HD
ENDBRANCH  24  25
ENDBRANCH   8  24
TORSDOF 9
ENDMDL
