MODEL 1
REMARK VINA RESULT:      -6.5      0.000      0.000
REMARK  8 active torsions:
REMARK  status: ('A' for Active; 'I' for Inactive)
REMARK    1  A    between atoms: N_8  and  C_9 
REMARK    2  A    between atoms: C_9  and  C_10 
REMARK    3  A    between atoms: C_10  and  O_11 
REMARK    4  A    between atoms: C_10  and  C_12 
REMARK    5  A    between atoms: C_12  and  N_13 
REMARK    6  A    between atoms: N_16  and  C_17 
REMARK    7  A    between atoms: C_17  and  C_18 
REMARK    8  A    between atoms: C_18  and  O_19 
ROOT
HETATM    1  C   UNL     1     -40.370 -49.883  11.631  1.00  0.00     0.164 C 
ENDROOT
BRANCH   1   2
HETATM    2  C   UNL     1     -41.811 -50.018  12.157  1.00  0.00     0.163 C 
BRANCH   2   3
HETATM    3  N   UNL     1     -42.188 -51.399  12.406  1.00  0.00    -0.339 N 
HETATM    4  C   UNL     1     -41.405 -52.484  12.120  1.00  0.00     0.184 A 
HETATM    5  N   UNL     1     -41.985 -53.607  12.472  1.00  0.00    -0.350 N 
HETATM    6  C   UNL     1     -43.191 -53.234  13.010  1.00  0.00     0.060 A 
ATOM      7  HN  UNL     1     -41.617 -54.553  12.367  1.00  0.00     0.166 HD
HETATM    8  C   UNL     1     -44.195 -54.034  13.572  1.00  0.00     0.039 A 
HETATM    9  C   UNL     1     -43.364 -51.855  12.954  1.00  0.00     0.062 A 
HETATM   10  C   UNL     1     -45.365 -53.433  14.076  1.00  0.00    -0.054 A 
HETATM   11  C   UNL     1     -46.409 -54.310  14.715  1.00  0.00     0.049 C 
HETATM   12  C   UNL     1     -45.532 -52.034  13.987  1.00  0.00    -0.054 A 
HETATM   13  C   UNL     1     -44.528 -51.225  13.413  1.00  0.00     0.039 A 
HETATM   14  C   UNL     1     -46.778 -51.373  14.518  1.00  0.00     0.049 C 
ENDBRANCH   2   3
ENDBRANCH   1   2
BRANCH   1  15
HETATM   15  O   UNL     1     -40.345 -49.903  10.196  1.00  0.00    -0.392 OA
HETATM   16  H   UNL     1     -40.016 -50.768   9.899  1.00  0.00     0.210 HD
ENDBRANCH   1  15
BRANCH   1  17
HETATM   17  C   UNL     1     -39.696 -48.568  12.108  1.00  0.00     0.305 C 
BRANCH  17  18
HETATM   18  N   UNL     1     -40.538 -47.386  11.943  1.00  0.00     0.094 N 
HETATM   19  C   UNL     1     -40.647 -46.549  13.150  1.00  0.00     0.302 C 
HETATM   20  C   UNL     1     -41.748 -45.481  12.930  1.00  0.00     0.302 C 
HETATM   21  N   UNL     1     -41.533 -44.596  11.754  1.00  0.00     0.093 N 
HETATM   22  C   UNL     1     -41.199 -45.434  10.582  1.00  0.00     0.302 C 
HETATM   23  C   UNL     1     -40.126 -46.526  10.820  1.00  0.00     0.302 C 
BRANCH  21  24
HETATM   24  C   UNL     1     -40.516 -43.573  12.069  1.00  0.00     0.298 C 
BRANCH  24  25
HETATM   25  C   UNL     1     -40.986 -42.135  11.796  1.00  0.00     0.194 C 
BRANCH  25  26
HETATM   26  O   UNL     1     -41.368 -41.979  10.432  1.00  0.00    -0.399 OA
HETATM   27  H   UNL     1     -41.071 -41.081  10.182  1.00  0.00     0.209 HD
ENDBRANCH  25  26
ENDBRANCH  24  25
ENDBRANCH  21  24
ENDBRANCH  17  18
ENDBRANCH   1  17
TORSDOF 8
ENDMDL
MODEL 2
REMARK VINA RESULT:      -6.3      2.814      4.214
REMARK  8 active torsions:
REMARK  status: ('A' for Active; 'I' for Inactive)
REMARK    1  A    between atoms: N_8  and  C_9 
REMARK    2  A    between atoms: C_9  and  C_10 
REMARK    3  A    between atoms: C_10  and  O_11 
REMARK    4  A    between atoms: C_10  and  C_12 
REMARK    5  A    between atoms: C_12  and  N_13 
REMARK    6  A    between atoms: N_16  and  C_17 
REMARK    7  A    between atoms: C_17  and  C_18 
REMARK    8  A    between atoms: C_18  and  O_19 
ROOT
HETATM    1  C   UNL     1     -40.396 -49.813  11.644  1.00  0.00     0.164 C 
ENDROOT
BRANCH   1   2
HETATM    2  C   UNL     1     -41.849 -49.991  12.123  1.00  0.00     0.163 C 
BRANCH   2   3
HETATM    3  N   UNL     1     -42.191 -51.383  12.365  1.00  0.00    -0.339 N 
HETATM    4  C   UNL     1     -41.392 -52.447  12.049  1.00  0.00     0.184 A 
HETATM    5  N   UNL     1     -41.940 -53.587  12.401  1.00  0.00    -0.350 N 
HETATM    6  C   UNL     1     -43.141 -53.245  12.971  1.00  0.00     0.060 A 
ATOM      7  HN  UNL     1     -41.556 -54.524  12.277  1.00  0.00     0.166 HD
HETATM    8  C   UNL     1     -44.115 -54.072  13.547  1.00  0.00     0.039 A 
HETATM    9  C   UNL     1     -43.344 -51.869  12.935  1.00  0.00     0.062 A 
HETATM   10  C   UNL     1     -45.285 -53.501  14.084  1.00  0.00    -0.054 A 
HETATM   11  C   UNL     1     -46.296 -54.407  14.738  1.00  0.00     0.049 C 
HETATM   12  C   UNL     1     -45.483 -52.105  14.015  1.00  0.00    -0.054 A 
HETATM   13  C   UNL     1     -44.510 -51.269  13.428  1.00  0.00     0.039 A 
HETATM   14  C   UNL     1     -46.730 -51.476  14.582  1.00  0.00     0.049 C 
ENDBRANCH   2   3
ENDBRANCH   1   2
BRANCH   1  15
HETATM   15  O   UNL     1     -40.312 -49.919  10.215  1.00  0.00    -0.392 OA
HETATM   16  H   UNL     1     -39.409 -49.696   9.935  1.00  0.00     0.210 HD
ENDBRANCH   1  15
BRANCH   1  17
HETATM   17  C   UNL     1     -39.808 -48.439  12.063  1.00  0.00     0.305 C 
BRANCH  17  18
HETATM   18  N   UNL     1     -39.429 -48.369  13.471  1.00  0.00     0.094 N 
HETATM   19  C   UNL     1     -38.547 -49.462  13.915  1.00  0.00     0.302 C 
HETATM   20  C   UNL     1     -38.422 -49.420  15.458  1.00  0.00     0.302 C 
HETATM   21  N   UNL     1     -37.904 -48.138  16.007  1.00  0.00     0.093 N 
HETATM   22  C   UNL     1     -38.647 -47.020  15.386  1.00  0.00     0.302 C 
HETATM   23  C   UNL     1     -38.803 -47.089  13.846  1.00  0.00     0.302 C 
BRANCH  21  24
HETATM   24  C   UNL     1     -36.441 -48.062  15.823  1.00  0.00     0.298 C 
BRANCH  24  25
HETATM   25  C   UNL     1     -35.651 -48.934  16.813  1.00  0.00     0.194 C 
BRANCH  25  26
HETATM   26  O   UNL     1     -34.816 -49.856  16.119  1.00  0.00    -0.399 OA
HETATM   27  H   UNL     1     -34.005 -49.928  16.662  1.00  0.00     0.209 HD
ENDBRANCH  25  26
ENDBRANCH  24  25
ENDBRANCH  21  24
ENDBRANCH  17  18
ENDBRANCH   1  17
TORSDOF 8
ENDMDL
MODEL 3
REMARK VINA RESULT:      -6.1      1.906      2.197
REMARK  8 active torsions:
REMARK  status: ('A' for Active; 'I' for Inactive)
REMARK    1  A    between atoms: N_8  and  C_9 
REMARK    2  A    between atoms: C_9  and  C_10 
REMARK    3  A    between atoms: C_10  and  O_11 
REMARK    4  A    between atoms: C_10  and  C_12 
REMARK    5  A    between atoms: C_12  and  N_13 
REMARK    6  A    between atoms: N_16  and  C_17 
REMARK    7  A    between atoms: C_17  and  C_18 
REMARK    8  A    between atoms: C_18  and  O_19 
ROOT
HETATM    1  C   UNL     1     -40.093 -50.966  12.128  1.00  0.00     0.164 C 
ENDROOT
BRANCH   1   2
HETATM    2  C   UNL     1     -40.850 -50.921  13.470  1.00  0.00     0.163 C 
BRANCH   2   3
HETATM    3  N   UNL     1     -41.446 -52.199  13.818  1.00  0.00    -0.339 N 
HETATM    4  C   UNL     1     -40.739 -53.336  14.103  1.00  0.00     0.184 A 
HETATM    5  N   UNL     1     -41.532 -54.336  14.407  1.00  0.00    -0.350 N 
HETATM    6  C   UNL     1     -42.803 -53.825  14.319  1.00  0.00     0.060 A 
ATOM      7  HN  UNL     1     -41.262 -55.288  14.656  1.00  0.00     0.166 HD
HETATM    8  C   UNL     1     -44.030 -54.453  14.574  1.00  0.00     0.039 A 
HETATM    9  C   UNL     1     -42.785 -52.493  13.920  1.00  0.00     0.062 A 
HETATM   10  C   UNL     1     -45.229 -53.728  14.424  1.00  0.00    -0.054 A 
HETATM   11  C   UNL     1     -46.531 -54.413  14.746  1.00  0.00     0.049 C 
HETATM   12  C   UNL     1     -45.190 -52.384  13.993  1.00  0.00    -0.054 A 
HETATM   13  C   UNL     1     -43.957 -51.750  13.727  1.00  0.00     0.039 A 
HETATM   14  C   UNL     1     -46.462 -51.594  13.824  1.00  0.00     0.049 C 
ENDBRANCH   2   3
ENDBRANCH   1   2
BRANCH   1  15
HETATM   15  O   UNL     1     -40.852 -51.677  11.138  1.00  0.00    -0.392 OA
HETATM   16  H   UNL     1     -41.625 -51.143  10.890  1.00  0.00     0.210 HD
ENDBRANCH   1  15
BRANCH   1  17
HETATM   17  C   UNL     1     -39.793 -49.545  11.579  1.00  0.00     0.305 C 
BRANCH  17  18
HETATM   18  N   UNL     1     -40.877 -48.592  11.799  1.00  0.00     0.094 N 
HETATM   19  C   UNL     1     -40.429 -47.202  11.996  1.00  0.00     0.302 C 
HETATM   20  C   UNL     1     -41.630 -46.342  12.462  1.00  0.00     0.302 C 
HETATM   21  N   UNL     1     -42.794 -46.341  11.535  1.00  0.00     0.093 N 
HETATM   22  C   UNL     1     -43.104 -47.738  11.158  1.00  0.00     0.302 C 
HETATM   23  C   UNL     1     -41.892 -48.604  10.731  1.00  0.00     0.302 C 
BRANCH  21  24
HETATM   24  C   UNL     1     -42.525 -45.456  10.385  1.00  0.00     0.298 C 
BRANCH  24  25
HETATM   25  C   UNL     1     -43.487 -45.673   9.204  1.00  0.00     0.194 C 
BRANCH  25  26
HETATM   26  O   UNL     1     -42.767 -46.014   8.023  1.00  0.00    -0.399 OA
HETATM   27  H   UNL     1     -43.324 -45.699   7.282  1.00  0.00     0.209 HD
ENDBRANCH  25  26
ENDBRANCH  24  25
ENDBRANCH  21  24
ENDBRANCH  17  18
ENDBRANCH   1  17
TORSDOF 8
ENDMDL
MODEL 4
REMARK VINA RESULT:      -6.0      2.110      2.632
REMARK  8 active torsions:
REMARK  status: ('A' for Active; 'I' for Inactive)
REMARK    1  A    between atoms: N_8  and  C_9 
REMARK    2  A    between atoms: C_9  and  C_10 
REMARK    3  A    between atoms: C_10  and  O_11 
REMARK    4  A    between atoms: C_10  and  C_12 
REMARK    5  A    between atoms: C_12  and  N_13 
REMARK    6  A    between atoms: N_16  and  C_17 
REMARK    7  A    between atoms: C_17  and  C_18 
REMARK    8  A    between atoms: C_18  and  O_19 
ROOT
HETATM    1  C   UNL     1     -39.410 -50.412  13.766  1.00  0.00     0.164 C 
ENDROOT
BRANCH   1   2
HETATM    2  C   UNL     1     -40.100 -51.726  14.177  1.00  0.00     0.163 C 
BRANCH   2   3
HETATM    3  N   UNL     1     -41.358 -51.937  13.482  1.00  0.00    -0.339 N 
HETATM    4  C   UNL     1     -41.475 -52.464  12.225  1.00  0.00     0.184 A 
HETATM    5  N   UNL     1     -42.730 -52.564  11.855  1.00  0.00    -0.350 N 
HETATM    6  C   UNL     1     -43.455 -52.084  12.917  1.00  0.00     0.060 A 
ATOM      7  HN  UNL     1     -43.088 -52.920  10.969  1.00  0.00     0.166 HD
HETATM    8  C   UNL     1     -44.845 -51.993  13.071  1.00  0.00     0.039 A 
HETATM    9  C   UNL     1     -42.622 -51.653  13.944  1.00  0.00     0.062 A 
HETATM   10  C   UNL     1     -45.382 -51.466  14.262  1.00  0.00    -0.054 A 
HETATM   11  C   UNL     1     -46.879 -51.419  14.421  1.00  0.00     0.049 C 
HETATM   12  C   UNL     1     -44.518 -51.010  15.282  1.00  0.00    -0.054 A 
HETATM   13  C   UNL     1     -43.118 -51.092  15.128  1.00  0.00     0.039 A 
HETATM   14  C   UNL     1     -45.073 -50.441  16.562  1.00  0.00     0.049 C 
ENDBRANCH   2   3
ENDBRANCH   1   2
BRANCH   1  15
HETATM   15  O   UNL     1     -38.838 -50.524  12.454  1.00  0.00    -0.392 OA
HETATM   16  H   UNL     1     -38.800 -51.462  12.206  1.00  0.00     0.210 HD
ENDBRANCH   1  15
BRANCH   1  17
HETATM   17  C   UNL     1     -40.395 -49.212  13.763  1.00  0.00     0.305 C 
BRANCH  17  18
HETATM   18  N   UNL     1     -40.513 -48.555  12.465  1.00  0.00     0.094 N 
HETATM   19  C   UNL     1     -41.807 -48.771  11.794  1.00  0.00     0.302 C 
HETATM   20  C   UNL     1     -41.720 -48.244  10.340  1.00  0.00     0.302 C 
HETATM   21  N   UNL     1     -41.355 -46.807  10.218  1.00  0.00     0.093 N 
HETATM   22  C   UNL     1     -40.179 -46.541  11.075  1.00  0.00     0.302 C 
HETATM   23  C   UNL     1     -40.256 -47.105  12.516  1.00  0.00     0.302 C 
BRANCH  21  24
HETATM   24  C   UNL     1     -42.524 -45.959  10.522  1.00  0.00     0.298 C 
BRANCH  24  25
HETATM   25  C   UNL     1     -43.526 -45.854   9.361  1.00  0.00     0.194 C 
BRANCH  25  26
HETATM   26  O   UNL     1     -42.848 -45.846   8.108  1.00  0.00    -0.399 OA
HETATM   27  H   UNL     1     -42.206 -46.584   8.157  1.00  0.00     0.209 HD
ENDBRANCH  25  26
ENDBRANCH  24  25
ENDBRANCH  21  24
ENDBRANCH  17  18
ENDBRANCH   1  17
TORSDOF 8
ENDMDL
MODEL 5
REMARK VINA RESULT:      -6.0      3.695      7.629
REMARK  8 active torsions:
REMARK  status: ('A' for Active; 'I' for Inactive)
REMARK    1  A    between atoms: N_8  and  C_9 
REMARK    2  A    between atoms: C_9  and  C_10 
REMARK    3  A    between atoms: C_10  and  O_11 
REMARK    4  A    between atoms: C_10  and  C_12 
REMARK    5  A    between atoms: C_12  and  N_13 
REMARK    6  A    between atoms: N_16  and  C_17 
REMARK    7  A    between atoms: C_17  and  C_18 
REMARK    8  A    between atoms: C_18  and  O_19 
ROOT
HETATM    1  C   UNL     1     -39.848 -54.289  14.331  1.00  0.00     0.164 C 
ENDROOT
BRANCH   1   2
HETATM    2  C   UNL     1     -39.234 -52.886  14.163  1.00  0.00     0.163 C 
BRANCH   2   3
HETATM    3  N   UNL     1     -39.868 -52.122  13.102  1.00  0.00    -0.339 N 
HETATM    4  C   UNL     1     -40.670 -52.655  12.131  1.00  0.00     0.184 A 
HETATM    5  N   UNL     1     -41.126 -51.732  11.317  1.00  0.00    -0.350 N 
HETATM    6  C   UNL     1     -40.599 -50.552  11.783  1.00  0.00     0.060 A 
ATOM      7  HN  UNL     1     -41.738 -51.862  10.512  1.00  0.00     0.166 HD
HETATM    8  C   UNL     1     -40.789 -49.248  11.306  1.00  0.00     0.039 A 
HETATM    9  C   UNL     1     -39.778 -50.767  12.885  1.00  0.00     0.062 A 
HETATM   10  C   UNL     1     -40.147 -48.171  11.949  1.00  0.00    -0.054 A 
HETATM   11  C   UNL     1     -40.402 -46.775  11.444  1.00  0.00     0.049 C 
HETATM   12  C   UNL     1     -39.298 -48.413  13.050  1.00  0.00    -0.054 A 
HETATM   13  C   UNL     1     -39.097 -49.726  13.528  1.00  0.00     0.039 A 
HETATM   14  C   UNL     1     -38.600 -47.274  13.748  1.00  0.00     0.049 C 
ENDBRANCH   2   3
ENDBRANCH   1   2
BRANCH   1  15
HETATM   15  O   UNL     1     -38.841 -55.306  14.212  1.00  0.00    -0.392 OA
HETATM   16  H   UNL     1     -39.117 -56.083  14.726  1.00  0.00     0.210 HD
ENDBRANCH   1  15
BRANCH   1  17
HETATM   17  C   UNL     1     -40.547 -54.459  15.707  1.00  0.00     0.305 C 
BRANCH  17  18
HETATM   18  N   UNL     1     -41.995 -54.276  15.654  1.00  0.00     0.094 N 
HETATM   19  C   UNL     1     -42.445 -52.918  16.005  1.00  0.00     0.302 C 
HETATM   20  C   UNL     1     -43.987 -52.917  16.155  1.00  0.00     0.302 C 
HETATM   21  N   UNL     1     -44.732 -53.370  14.950  1.00  0.00     0.093 N 
HETATM   22  C   UNL     1     -44.129 -54.630  14.463  1.00  0.00     0.302 C 
HETATM   23  C   UNL     1     -42.583 -54.637  14.353  1.00  0.00     0.302 C 
BRANCH  21  24
HETATM   24  C   UNL     1     -44.767 -52.293  13.941  1.00  0.00     0.298 C 
BRANCH  24  25
HETATM   25  C   UNL     1     -46.088 -52.229  13.156  1.00  0.00     0.194 C 
BRANCH  25  26
HETATM   26  O   UNL     1     -45.912 -52.720  11.830  1.00  0.00    -0.399 OA
HETATM   27  H   UNL     1     -46.795 -52.658  11.413  1.00  0.00     0.209 HD
ENDBRANCH  25  26
ENDBRANCH  24  25
ENDBRANCH  21  24
ENDBRANCH  17  18
ENDBRANCH   1  17
TORSDOF 8
ENDMDL
MODEL 6
REMARK VINA RESULT:      -5.9      3.205      7.836
REMARK  8 active torsions:
REMARK  status: ('A' for Active; 'I' for Inactive)
REMARK    1  A    between atoms: N_8  and  C_9 
REMARK    2  A    between atoms: C_9  and  C_10 
REMARK    3  A    between atoms: C_10  and  O_11 
REMARK    4  A    between atoms: C_10  and  C_12 
REMARK    5  A    between atoms: C_12  and  N_13 
REMARK    6  A    between atoms: N_16  and  C_17 
REMARK    7  A    between atoms: C_17  and  C_18 
REMARK    8  A    between atoms: C_18  and  O_19 
ROOT
HETATM    1  C   UNL     1     -39.972 -51.957  13.711  1.00  0.00     0.164 C 
ENDROOT
BRANCH   1   2
HETATM    2  C   UNL     1     -39.493 -50.494  13.770  1.00  0.00     0.163 C 
BRANCH   2   3
HETATM    3  N   UNL     1     -39.964 -49.706  12.644  1.00  0.00    -0.339 N 
HETATM    4  C   UNL     1     -40.550 -50.224  11.521  1.00  0.00     0.184 A 
HETATM    5  N   UNL     1     -40.899 -49.282  10.677  1.00  0.00    -0.350 N 
HETATM    6  C   UNL     1     -40.526 -48.106  11.279  1.00  0.00     0.060 A 
ATOM      7  HN  UNL     1     -41.349 -49.399   9.769  1.00  0.00     0.166 HD
HETATM    8  C   UNL     1     -40.693 -46.789  10.829  1.00  0.00     0.039 A 
HETATM    9  C   UNL     1     -39.907 -48.339  12.502  1.00  0.00     0.062 A 
HETATM   10  C   UNL     1     -40.234 -45.718  11.621  1.00  0.00    -0.054 A 
HETATM   11  C   UNL     1     -40.465 -44.311  11.137  1.00  0.00     0.049 C 
HETATM   12  C   UNL     1     -39.585 -45.978  12.848  1.00  0.00    -0.054 A 
HETATM   13  C   UNL     1     -39.407 -47.302  13.301  1.00  0.00     0.039 A 
HETATM   14  C   UNL     1     -39.084 -44.846  13.708  1.00  0.00     0.049 C 
ENDBRANCH   2   3
ENDBRANCH   1   2
BRANCH   1  15
HETATM   15  O   UNL     1     -38.900 -52.830  13.327  1.00  0.00    -0.392 OA
HETATM   16  H   UNL     1     -38.519 -53.231  14.127  1.00  0.00     0.210 HD
ENDBRANCH   1  15
BRANCH   1  17
HETATM   17  C   UNL     1     -40.529 -52.444  15.076  1.00  0.00     0.305 C 
BRANCH  17  18
HETATM   18  N   UNL     1     -41.921 -52.879  15.018  1.00  0.00     0.094 N 
HETATM   19  C   UNL     1     -42.874 -51.812  14.667  1.00  0.00     0.302 C 
HETATM   20  C   UNL     1     -44.318 -52.329  14.881  1.00  0.00     0.302 C 
HETATM   21  N   UNL     1     -44.665 -53.551  14.107  1.00  0.00     0.093 N 
HETATM   22  C   UNL     1     -43.587 -54.548  14.283  1.00  0.00     0.302 C 
HETATM   23  C   UNL     1     -42.142 -54.015  14.106  1.00  0.00     0.302 C 
BRANCH  21  24
HETATM   24  C   UNL     1     -44.932 -53.200  12.698  1.00  0.00     0.298 C 
BRANCH  24  25
HETATM   25  C   UNL     1     -46.077 -52.188  12.524  1.00  0.00     0.194 C 
BRANCH  25  26
HETATM   26  O   UNL     1     -46.838 -52.481  11.356  1.00  0.00    -0.399 OA
HETATM   27  H   UNL     1     -46.398 -51.992  10.632  1.00  0.00     0.209 HD
ENDBRANCH  25  26
ENDBRANCH  24  25
ENDBRANCH  21  24
ENDBRANCH  17  18
ENDBRANCH   1  17
TORSDOF 8
ENDMDL
MODEL 7
REMARK VINA RESULT:      -5.9      2.726      3.694
REMARK  8 active torsions:
REMARK  status: ('A' for Active; 'I' for Inactive)
REMARK    1  A    between atoms: N_8  and  C_9 
REMARK    2  A    between atoms: C_9  and  C_10 
REMARK    3  A    between atoms: C_10  and  O_11 
REMARK    4  A    between atoms: C_10  and  C_12 
REMARK    5  A    between atoms: C_12  and  N_13 
REMARK    6  A    between atoms: N_16  and  C_17 
REMARK    7  A    between atoms: C_17  and  C_18 
REMARK    8  A    between atoms: C_18  and  O_19 
ROOT
HETATM    1  C   UNL     1     -39.881 -49.851  11.547  1.00  0.00     0.164 C 
ENDROOT
BRANCH   1   2
HETATM    2  C   UNL     1     -40.896 -50.435  12.548  1.00  0.00     0.163 C 
BRANCH   2   3
HETATM    3  N   UNL     1     -40.726 -51.864  12.746  1.00  0.00    -0.339 N 
HETATM    4  C   UNL     1     -41.161 -52.829  11.879  1.00  0.00     0.184 A 
HETATM    5  N   UNL     1     -40.852 -54.034  12.298  1.00  0.00    -0.350 N 
HETATM    6  C   UNL     1     -40.188 -53.840  13.484  1.00  0.00     0.060 A 
ATOM      7  HN  UNL     1     -41.061 -54.921  11.841  1.00  0.00     0.166 HD
HETATM    8  C   UNL     1     -39.608 -54.788  14.338  1.00  0.00     0.039 A 
HETATM    9  C   UNL     1     -40.120 -52.490  13.810  1.00  0.00     0.062 A 
HETATM   10  C   UNL     1     -38.963 -54.362  15.516  1.00  0.00    -0.054 A 
HETATM   11  C   UNL     1     -38.310 -55.396  16.395  1.00  0.00     0.049 C 
HETATM   12  C   UNL     1     -38.927 -52.989  15.842  1.00  0.00    -0.054 A 
HETATM   13  C   UNL     1     -39.517 -52.032  14.989  1.00  0.00     0.039 A 
HETATM   14  C   UNL     1     -38.245 -52.515  17.099  1.00  0.00     0.049 C 
ENDBRANCH   2   3
ENDBRANCH   1   2
BRANCH   1  15
HETATM   15  O   UNL     1     -40.395 -49.904  10.208  1.00  0.00    -0.392 OA
HETATM   16  H   UNL     1     -41.281 -49.504  10.195  1.00  0.00     0.210 HD
ENDBRANCH   1  15
BRANCH   1  17
HETATM   17  C   UNL     1     -39.525 -48.375  11.871  1.00  0.00     0.305 C 
BRANCH  17  18
HETATM   18  N   UNL     1     -40.690 -47.499  11.959  1.00  0.00     0.094 N 
HETATM   19  C   UNL     1     -40.785 -46.746  13.222  1.00  0.00     0.302 C 
HETATM   20  C   UNL     1     -42.170 -46.056  13.299  1.00  0.00     0.302 C 
HETATM   21  N   UNL     1     -42.471 -45.133  12.171  1.00  0.00     0.093 N 
HETATM   22  C   UNL     1     -42.159 -45.820  10.899  1.00  0.00     0.302 C 
HETATM   23  C   UNL     1     -40.789 -46.543  10.843  1.00  0.00     0.302 C 
BRANCH  21  24
HETATM   24  C   UNL     1     -41.753 -43.857  12.355  1.00  0.00     0.298 C 
BRANCH  24  25
HETATM   25  C   UNL     1     -42.040 -42.826  11.250  1.00  0.00     0.194 C 
BRANCH  25  26
HETATM   26  O   UNL     1     -40.850 -42.510  10.533  1.00  0.00    -0.399 OA
HETATM   27  H   UNL     1     -40.953 -42.941   9.661  1.00  0.00     0.209 HD
ENDBRANCH  25  26
ENDBRANCH  24  25
ENDBRANCH  21  24
ENDBRANCH  17  18
ENDBRANCH   1  17
TORSDOF 8
ENDMDL
MODEL 8
REMARK VINA RESULT:      -5.8      2.126      3.515
REMARK  8 active torsions:
REMARK  status: ('A' for Active; 'I' for Inactive)
REMARK    1  A    between atoms: N_8  and  C_9 
REMARK    2  A    between atoms: C_9  and  C_10 
REMARK    3  A    between atoms: C_10  and  O_11 
REMARK    4  A    between atoms: C_10  and  C_12 
REMARK    5  A    between atoms: C_12  and  N_13 
REMARK    6  A    between atoms: N_16  and  C_17 
REMARK    7  A    between atoms: C_17  and  C_18 
REMARK    8  A    between atoms: C_18  and  O_19 
ROOT
HETATM    1  C   UNL     1     -40.715 -53.362  12.954  1.00  0.00     0.164 C 
ENDROOT
BRANCH   1   2
HETATM    2  C   UNL     1     -41.872 -54.341  13.232  1.00  0.00     0.163 C 
BRANCH   2   3
HETATM    3  N   UNL     1     -42.609 -54.007  14.438  1.00  0.00    -0.339 N 
HETATM    4  C   UNL     1     -42.202 -54.309  15.709  1.00  0.00     0.184 A 
HETATM    5  N   UNL     1     -43.049 -53.867  16.608  1.00  0.00    -0.350 N 
HETATM    6  C   UNL     1     -44.045 -53.252  15.890  1.00  0.00     0.060 A 
ATOM      7  HN  UNL     1     -42.983 -53.961  17.622  1.00  0.00     0.166 HD
HETATM    8  C   UNL     1     -45.184 -52.580  16.353  1.00  0.00     0.039 A 
HETATM    9  C   UNL     1     -43.814 -53.350  14.522  1.00  0.00     0.062 A 
HETATM   10  C   UNL     1     -46.082 -52.011  15.427  1.00  0.00    -0.054 A 
HETATM   11  C   UNL     1     -47.275 -51.257  15.950  1.00  0.00     0.049 C 
HETATM   12  C   UNL     1     -45.843 -52.144  14.042  1.00  0.00    -0.054 A 
HETATM   13  C   UNL     1     -44.701 -52.828  13.572  1.00  0.00     0.039 A 
HETATM   14  C   UNL     1     -46.793 -51.545  13.037  1.00  0.00     0.049 C 
ENDBRANCH   2   3
ENDBRANCH   1   2
BRANCH   1  15
HETATM   15  O   UNL     1     -40.434 -53.290  11.548  1.00  0.00    -0.392 OA
HETATM   16  H   UNL     1     -40.349 -52.356  11.292  1.00  0.00     0.210 HD
ENDBRANCH   1  15
BRANCH   1  17
HETATM   17  C   UNL     1     -41.031 -51.928  13.458  1.00  0.00     0.305 C 
BRANCH  17  18
HETATM   18  N   UNL     1     -40.608 -50.878  12.537  1.00  0.00     0.094 N 
HETATM   19  C   UNL     1     -41.653 -49.885  12.232  1.00  0.00     0.302 C 
HETATM   20  C   UNL     1     -41.172 -48.981  11.070  1.00  0.00     0.302 C 
HETATM   21  N   UNL     1     -39.894 -48.264  11.325  1.00  0.00     0.093 N 
HETATM   22  C   UNL     1     -38.903 -49.229  11.848  1.00  0.00     0.302 C 
HETATM   23  C   UNL     1     -39.403 -50.157  12.984  1.00  0.00     0.302 C 
BRANCH  21  24
HETATM   24  C   UNL     1     -40.130 -47.107  12.211  1.00  0.00     0.298 C 
BRANCH  24  25
HETATM   25  C   UNL     1     -40.142 -45.759  11.471  1.00  0.00     0.194 C 
BRANCH  25  26
HETATM   26  O   UNL     1     -39.668 -45.911  10.136  1.00  0.00    -0.399 OA
HETATM   27  H   UNL     1     -40.353 -46.440   9.678  1.00  0.00     0.209 HD
ENDBRANCH  25  26
ENDBRANCH  24  25
ENDBRANCH  21  24
ENDBRANCH  17  18
ENDBRANCH   1  17
TORSDOF 8
ENDMDL
MODEL 9
REMARK VINA RESULT:      -5.8      3.063      8.708
REMARK  8 active torsions:
REMARK  status: ('A' for Active; 'I' for Inactive)
REMARK    1  A    between atoms: N_8  and  C_9 
REMARK    2  A    between atoms: C_9  and  C_10 
REMARK    3  A    between atoms: C_10  and  O_11 
REMARK    4  A    between atoms: C_10  and  C_12 
REMARK    5  A    between atoms: C_12  and  N_13 
REMARK    6  A    between atoms: N_16  and  C_17 
REMARK    7  A    between atoms: C_17  and  C_18 
REMARK    8  A    between atoms: C_18  and  O_19 
ROOT
HETATM    1  C   UNL     1     -41.701 -49.006  11.607  1.00  0.00     0.164 C 
ENDROOT
BRANCH   1   2
HETATM    2  C   UNL     1     -41.721 -48.283  10.247  1.00  0.00     0.163 C 
BRANCH   2   3
HETATM    3  N   UNL     1     -42.202 -46.916  10.349  1.00  0.00    -0.339 N 
HETATM    4  C   UNL     1     -43.400 -46.472   9.857  1.00  0.00     0.184 A 
HETATM    5  N   UNL     1     -43.587 -45.198  10.110  1.00  0.00    -0.350 N 
HETATM    6  C   UNL     1     -42.465 -44.802  10.797  1.00  0.00     0.060 A 
ATOM      7  HN  UNL     1     -44.391 -44.627   9.853  1.00  0.00     0.166 HD
HETATM    8  C   UNL     1     -42.157 -43.546  11.338  1.00  0.00     0.039 A 
HETATM    9  C   UNL     1     -41.561 -45.850  10.935  1.00  0.00     0.062 A 
HETATM   10  C   UNL     1     -40.936 -43.361  12.016  1.00  0.00    -0.054 A 
HETATM   11  C   UNL     1     -40.647 -42.015  12.627  1.00  0.00     0.049 C 
HETATM   12  C   UNL     1     -40.021 -44.430  12.123  1.00  0.00    -0.054 A 
HETATM   13  C   UNL     1     -40.324 -45.694  11.572  1.00  0.00     0.039 A 
HETATM   14  C   UNL     1     -38.709 -44.250  12.843  1.00  0.00     0.049 C 
ENDBRANCH   2   3
ENDBRANCH   1   2
BRANCH   1  15
HETATM   15  O   UNL     1     -42.990 -49.559  11.912  1.00  0.00    -0.392 OA
HETATM   16  H   UNL     1     -43.391 -49.894  11.092  1.00  0.00     0.210 HD
ENDBRANCH   1  15
BRANCH   1  17
HETATM   17  C   UNL     1     -40.661 -50.158  11.640  1.00  0.00     0.305 C 
BRANCH  17  18
HETATM   18  N   UNL     1     -40.996 -51.222  12.582  1.00  0.00     0.094 N 
HETATM   19  C   UNL     1     -41.111 -52.557  11.969  1.00  0.00     0.302 C 
HETATM   20  C   UNL     1     -41.706 -53.543  13.006  1.00  0.00     0.302 C 
HETATM   21  N   UNL     1     -40.930 -53.664  14.269  1.00  0.00     0.093 N 
HETATM   22  C   UNL     1     -40.620 -52.307  14.769  1.00  0.00     0.302 C 
HETATM   23  C   UNL     1     -40.062 -51.314  13.717  1.00  0.00     0.302 C 
BRANCH  21  24
HETATM   24  C   UNL     1     -39.740 -54.510  14.054  1.00  0.00     0.298 C 
BRANCH  24  25
HETATM   25  C   UNL     1     -39.027 -54.909  15.356  1.00  0.00     0.194 C 
BRANCH  25  26
HETATM   26  O   UNL     1     -38.013 -55.877  15.101  1.00  0.00    -0.399 OA
HETATM   27  H   UNL     1     -38.006 -55.993  14.129  1.00  0.00     0.209 HD
ENDBRANCH  25  26
ENDBRANCH  24  25
ENDBRANCH  21  24
ENDBRANCH  17  18
ENDBRANCH   1  17
TORSDOF 8
ENDMDL
