MODEL 1
REMARK VINA RESULT:      -6.6      0.000      0.000
REMARK  5 active torsions:
REMARK  status: ('A' for Active; 'I' for Inactive)
REMARK    1  A    between atoms: C_2  and  C_3 
REMARK    2  A    between atoms: C_2  and  N_11 
REMARK    3  A    between atoms: C_3  and  N_4 
REMARK    4  A    between atoms: N_11  and  C_12 
REMARK    5  A    between atoms: C_12  and  C_13 
REMARK       I    between atoms: C_13  and  N_15 
ROOT
HETATM    1  N   UNL     1     -40.993 -50.266  11.129  1.00  0.00     0.098 N 
HETATM    2  H   UNL     1     -39.984 -50.126  11.110  1.00  0.00     0.317 HD
ENDROOT
BRANCH   1   3
HETATM    3  C   UNL     1     -41.729 -49.064  11.571  1.00  0.00     0.236 C 
HETATM    4  C   UNL     1     -41.212 -48.542  12.922  1.00  0.00     0.044 C 
BRANCH   3   5
HETATM    5  C   UNL     1     -41.645 -47.922  10.541  1.00  0.00     0.183 C 
BRANCH   5   6
HETATM    6  N   UNL     1     -42.854 -47.762   9.758  1.00  0.00    -0.301 N 
HETATM    7  C   UNL     1     -44.088 -47.431  10.238  1.00  0.00     0.118 A 
HETATM    8  C   UNL     1     -44.933 -47.402   9.150  1.00  0.00    -0.028 A 
HETATM    9  C   UNL     1     -46.369 -47.054   9.128  1.00  0.00     0.051 C 
HETATM   10  C   UNL     1     -44.106 -47.775   8.066  1.00  0.00     0.115 A 
HETATM   11  N   UNL     1     -42.844 -48.014   8.435  1.00  0.00    -0.310 N 
ATOM     12  HN  UNL     1     -42.062 -48.314   7.854  1.00  0.00     0.186 HD
ENDBRANCH   5   6
ENDBRANCH   3   5
ENDBRANCH   1   3
BRANCH   1  13
HETATM   13  C   UNL     1     -41.313 -51.436  11.954  1.00  0.00     0.372 C 
BRANCH  13  14
HETATM   14  C   UNL     1     -40.097 -52.063  12.647  1.00  0.00     0.248 C 
HETATM   15  O   UNL     1     -38.978 -51.556  12.636  1.00  0.00    -0.271 OA
HETATM   16  N   UNL     1     -40.378 -53.239  13.342  1.00  0.00    -0.346 N 
HETATM   17  C   UNL     1     -41.692 -53.888  13.416  1.00  0.00     0.157 C 
HETATM   18  C   UNL     1     -39.304 -54.005  13.971  1.00  0.00     0.157 C 
HETATM   19  C   UNL     1     -42.015 -54.269  14.868  1.00  0.00     0.136 C 
HETATM   20  C   UNL     1     -43.340 -55.013  14.937  1.00  0.00     0.041 C 
HETATM   21  O   UNL     1     -40.981 -55.113  15.399  1.00  0.00    -0.378 OA
HETATM   22  C   UNL     1     -39.706 -54.434  15.398  1.00  0.00     0.136 C 
HETATM   23  C   UNL     1     -38.680 -55.388  15.989  1.00  0.00     0.041 C 
ENDBRANCH  13  14
ENDBRANCH   1  13
TORSDOF 5
ENDMDL
MODEL 2
REMARK VINA RESULT:      -6.5      2.441      3.010
REMARK  5 active torsions:
REMARK  status: ('A' for Active; 'I' for Inactive)
REMARK    1  A    between atoms: C_2  and  C_3 
REMARK    2  A    between atoms: C_2  and  N_11 
REMARK    3  A    between atoms: C_3  and  N_4 
REMARK    4  A    between atoms: N_11  and  C_12 
REMARK    5  A    between atoms: C_12  and  C_13 
REMARK       I    between atoms: C_13  and  N_15 
ROOT
HETATM    1  N   UNL     1     -41.543 -49.847  11.253  1.00  0.00     0.098 N 
HETATM    2  H   UNL     1     -40.773 -50.002  10.604  1.00  0.00     0.317 HD
ENDROOT
BRANCH   1   3
HETATM    3  C   UNL     1     -41.700 -48.426  11.627  1.00  0.00     0.236 C 
HETATM    4  C   UNL     1     -40.588 -47.959  12.580  1.00  0.00     0.044 C 
BRANCH   3   5
HETATM    5  C   UNL     1     -41.707 -47.501  10.395  1.00  0.00     0.183 C 
BRANCH   5   6
HETATM    6  N   UNL     1     -42.940 -47.562   9.635  1.00  0.00    -0.301 N 
HETATM    7  C   UNL     1     -44.195 -47.326  10.115  1.00  0.00     0.118 A 
HETATM    8  C   UNL     1     -45.057 -47.507   9.055  1.00  0.00    -0.028 A 
HETATM    9  C   UNL     1     -46.523 -47.329   9.040  1.00  0.00     0.051 C 
HETATM   10  C   UNL     1     -44.211 -47.894   7.990  1.00  0.00     0.115 A 
HETATM   11  N   UNL     1     -42.923 -47.948   8.344  1.00  0.00    -0.310 N 
ATOM     12  HN  UNL     1     -42.121 -48.215   7.774  1.00  0.00     0.186 HD
ENDBRANCH   5   6
ENDBRANCH   3   5
ENDBRANCH   1   3
BRANCH   1  13
HETATM   13  C   UNL     1     -41.376 -50.705  12.430  1.00  0.00     0.372 C 
BRANCH  13  14
HETATM   14  C   UNL     1     -41.925 -52.125  12.252  1.00  0.00     0.248 C 
HETATM   15  O   UNL     1     -41.299 -53.026  11.697  1.00  0.00    -0.271 OA
HETATM   16  N   UNL     1     -43.181 -52.329  12.822  1.00  0.00    -0.346 N 
HETATM   17  C   UNL     1     -43.974 -51.309  13.516  1.00  0.00     0.157 C 
HETATM   18  C   UNL     1     -43.878 -53.603  12.648  1.00  0.00     0.157 C 
HETATM   19  C   UNL     1     -44.515 -51.867  14.841  1.00  0.00     0.136 C 
HETATM   20  C   UNL     1     -45.402 -50.838  15.525  1.00  0.00     0.041 C 
HETATM   21  O   UNL     1     -45.284 -53.055  14.598  1.00  0.00    -0.378 OA
HETATM   22  C   UNL     1     -44.472 -54.084  13.989  1.00  0.00     0.136 C 
HETATM   23  C   UNL     1     -45.357 -55.304  13.786  1.00  0.00     0.041 C 
ENDBRANCH  13  14
ENDBRANCH   1  13
TORSDOF 5
ENDMDL
MODEL 3
REMARK VINA RESULT:      -6.1      2.285      3.945
REMARK  5 active torsions:
REMARK  status: ('A' for Active; 'I' for Inactive)
REMARK    1  A    between atoms: C_2  and  C_3 
REMARK    2  A    between atoms: C_2  and  N_11 
REMARK    3  A    between atoms: C_3  and  N_4 
REMARK    4  A    between atoms: N_11  and  C_12 
REMARK    5  A    between atoms: C_12  and  C_13 
REMARK       I    between atoms: C_13  and  N_15 
ROOT
HETATM    1  N   UNL     1     -40.910 -46.397  10.219  1.00  0.00     0.098 N 
HETATM    2  H   UNL     1     -40.136 -45.786   9.959  1.00  0.00     0.317 HD
ENDROOT
BRANCH   1   3
HETATM    3  C   UNL     1     -42.118 -45.648  10.622  1.00  0.00     0.236 C 
HETATM    4  C   UNL     1     -41.765 -44.360  11.383  1.00  0.00     0.044 C 
BRANCH   3   5
HETATM    5  C   UNL     1     -42.999 -45.275   9.414  1.00  0.00     0.183 C 
BRANCH   5   6
HETATM    6  N   UNL     1     -43.720 -46.403   8.858  1.00  0.00    -0.301 N 
HETATM    7  C   UNL     1     -44.985 -46.793   9.186  1.00  0.00     0.118 A 
HETATM    8  C   UNL     1     -45.259 -47.909   8.426  1.00  0.00    -0.028 A 
HETATM    9  C   UNL     1     -46.514 -48.687   8.377  1.00  0.00     0.051 C 
HETATM   10  C   UNL     1     -44.064 -48.128   7.701  1.00  0.00     0.115 A 
HETATM   11  N   UNL     1     -43.119 -47.225   7.975  1.00  0.00    -0.310 N 
ATOM     12  HN  UNL     1     -42.170 -47.171   7.606  1.00  0.00     0.186 HD
ENDBRANCH   5   6
ENDBRANCH   3   5
ENDBRANCH   1   3
BRANCH   1  13
HETATM   13  C   UNL     1     -40.473 -47.330  11.262  1.00  0.00     0.372 C 
BRANCH  13  14
HETATM   14  C   UNL     1     -41.366 -48.568  11.406  1.00  0.00     0.248 C 
HETATM   15  O   UNL     1     -42.478 -48.663  10.891  1.00  0.00    -0.271 OA
HETATM   16  N   UNL     1     -40.787 -49.610  12.130  1.00  0.00    -0.346 N 
HETATM   17  C   UNL     1     -39.459 -49.575  12.754  1.00  0.00     0.157 C 
HETATM   18  C   UNL     1     -41.553 -50.817  12.438  1.00  0.00     0.157 C 
HETATM   19  C   UNL     1     -38.685 -50.860  12.426  1.00  0.00     0.136 C 
HETATM   20  C   UNL     1     -37.339 -50.862  13.134  1.00  0.00     0.041 C 
HETATM   21  O   UNL     1     -39.434 -52.010  12.849  1.00  0.00    -0.378 OA
HETATM   22  C   UNL     1     -40.707 -52.079  12.168  1.00  0.00     0.136 C 
HETATM   23  C   UNL     1     -41.421 -53.328  12.662  1.00  0.00     0.041 C 
ENDBRANCH  13  14
ENDBRANCH   1  13
TORSDOF 5
ENDMDL
MODEL 4
REMARK VINA RESULT:      -6.1      3.503      5.328
REMARK  5 active torsions:
REMARK  status: ('A' for Active; 'I' for Inactive)
REMARK    1  A    between atoms: C_2  and  C_3 
REMARK    2  A    between atoms: C_2  and  N_11 
REMARK    3  A    between atoms: C_3  and  N_4 
REMARK    4  A    between atoms: N_11  and  C_12 
REMARK    5  A    between atoms: C_12  and  C_13 
REMARK       I    between atoms: C_13  and  N_15 
ROOT
HETATM    1  N   UNL     1     -43.167 -53.119  11.812  1.00  0.00     0.098 N 
HETATM    2  H   UNL     1     -42.888 -53.685  11.012  1.00  0.00     0.317 HD
ENDROOT
BRANCH   1   3
HETATM    3  C   UNL     1     -42.030 -52.764  12.686  1.00  0.00     0.236 C 
HETATM    4  C   UNL     1     -41.406 -54.004  13.346  1.00  0.00     0.044 C 
BRANCH   3   5
HETATM    5  C   UNL     1     -40.925 -52.011  11.920  1.00  0.00     0.183 C 
BRANCH   5   6
HETATM    6  N   UNL     1     -41.228 -50.610  11.700  1.00  0.00    -0.301 N 
HETATM    7  C   UNL     1     -42.148 -49.868  12.382  1.00  0.00     0.118 A 
HETATM    8  C   UNL     1     -42.108 -48.603  11.837  1.00  0.00    -0.028 A 
HETATM    9  C   UNL     1     -42.881 -47.414  12.250  1.00  0.00     0.051 C 
HETATM   10  C   UNL     1     -41.154 -48.709  10.798  1.00  0.00     0.115 A 
HETATM   11  N   UNL     1     -40.630 -49.935  10.700  1.00  0.00    -0.310 N 
ATOM     12  HN  UNL     1     -39.942 -50.277  10.029  1.00  0.00     0.186 HD
ENDBRANCH   5   6
ENDBRANCH   3   5
ENDBRANCH   1   3
BRANCH   1  13
HETATM   13  C   UNL     1     -44.231 -53.804  12.553  1.00  0.00     0.372 C 
BRANCH  13  14
HETATM   14  C   UNL     1     -45.410 -52.900  12.932  1.00  0.00     0.248 C 
HETATM   15  O   UNL     1     -46.268 -52.538  12.130  1.00  0.00    -0.271 OA
HETATM   16  N   UNL     1     -45.461 -52.563  14.284  1.00  0.00    -0.346 N 
HETATM   17  C   UNL     1     -44.487 -52.976  15.300  1.00  0.00     0.157 C 
HETATM   18  C   UNL     1     -46.470 -51.628  14.779  1.00  0.00     0.157 C 
HETATM   19  C   UNL     1     -45.211 -53.501  16.548  1.00  0.00     0.136 C 
HETATM   20  C   UNL     1     -44.205 -53.857  17.633  1.00  0.00     0.041 C 
HETATM   21  O   UNL     1     -46.106 -52.500  17.057  1.00  0.00    -0.378 OA
HETATM   22  C   UNL     1     -47.113 -52.160  16.077  1.00  0.00     0.136 C 
HETATM   23  C   UNL     1     -48.023 -51.114  16.703  1.00  0.00     0.041 C 
ENDBRANCH  13  14
ENDBRANCH   1  13
TORSDOF 5
ENDMDL
MODEL 5
REMARK VINA RESULT:      -6.0      1.728      2.651
REMARK  5 active torsions:
REMARK  status: ('A' for Active; 'I' for Inactive)
REMARK    1  A    between atoms: C_2  and  C_3 
REMARK    2  A    between atoms: C_2  and  N_11 
REMARK    3  A    between atoms: C_3  and  N_4 
REMARK    4  A    between atoms: N_11  and  C_12 
REMARK    5  A    between atoms: C_12  and  C_13 
REMARK       I    between atoms: C_13  and  N_15 
ROOT
HETATM    1  N   UNL     1     -41.144 -48.537  12.946  1.00  0.00     0.098 N 
HETATM    2  H   UNL     1     -41.515 -48.516  13.895  1.00  0.00     0.317 HD
ENDROOT
BRANCH   1   3
HETATM    3  C   UNL     1     -41.754 -47.516  12.070  1.00  0.00     0.236 C 
HETATM    4  C   UNL     1     -41.183 -46.115  12.342  1.00  0.00     0.044 C 
BRANCH   3   5
HETATM    5  C   UNL     1     -41.558 -47.842  10.577  1.00  0.00     0.183 C 
BRANCH   5   6
HETATM    6  N   UNL     1     -42.777 -47.736   9.800  1.00  0.00    -0.301 N 
HETATM    7  C   UNL     1     -44.026 -47.484  10.289  1.00  0.00     0.118 A 
HETATM    8  C   UNL     1     -44.875 -47.482   9.204  1.00  0.00    -0.028 A 
HETATM    9  C   UNL     1     -46.328 -47.214   9.192  1.00  0.00     0.051 C 
HETATM   10  C   UNL     1     -44.032 -47.786   8.110  1.00  0.00     0.115 A 
HETATM   11  N   UNL     1     -42.758 -47.961   8.472  1.00  0.00    -0.310 N 
ATOM     12  HN  UNL     1     -41.961 -48.205   7.883  1.00  0.00     0.186 HD
ENDBRANCH   5   6
ENDBRANCH   3   5
ENDBRANCH   1   3
BRANCH   1  13
HETATM   13  C   UNL     1     -41.286 -49.887  12.392  1.00  0.00     0.372 C 
BRANCH  13  14
HETATM   14  C   UNL     1     -42.540 -50.630  12.869  1.00  0.00     0.248 C 
HETATM   15  O   UNL     1     -43.683 -50.233  12.652  1.00  0.00    -0.271 OA
HETATM   16  N   UNL     1     -42.278 -51.830  13.529  1.00  0.00    -0.346 N 
HETATM   17  C   UNL     1     -40.944 -52.374  13.805  1.00  0.00     0.157 C 
HETATM   18  C   UNL     1     -43.366 -52.601  14.129  1.00  0.00     0.157 C 
HETATM   19  C   UNL     1     -40.888 -53.861  13.425  1.00  0.00     0.136 C 
HETATM   20  C   UNL     1     -39.530 -54.447  13.782  1.00  0.00     0.041 C 
HETATM   21  O   UNL     1     -41.906 -54.589  14.128  1.00  0.00    -0.378 OA
HETATM   22  C   UNL     1     -43.223 -54.099  13.787  1.00  0.00     0.136 C 
HETATM   23  C   UNL     1     -44.234 -54.933  14.558  1.00  0.00     0.041 C 
ENDBRANCH  13  14
ENDBRANCH   1  13
TORSDOF 5
ENDMDL
MODEL 6
REMARK VINA RESULT:      -6.0      2.438      3.157
REMARK  5 active torsions:
REMARK  status: ('A' for Active; 'I' for Inactive)
REMARK    1  A    between atoms: C_2  and  C_3 
REMARK    2  A    between atoms: C_2  and  N_11 
REMARK    3  A    between atoms: C_3  and  N_4 
REMARK    4  A    between atoms: N_11  and  C_12 
REMARK    5  A    between atoms: C_12  and  C_13 
REMARK       I    between atoms: C_13  and  N_15 
ROOT
HETATM    1  N   UNL     1     -40.546 -50.693  11.038  1.00  0.00     0.098 N 
HETATM    2  H   UNL     1     -39.535 -50.814  11.091  1.00  0.00     0.317 HD
ENDROOT
BRANCH   1   3
HETATM    3  C   UNL     1     -40.977 -49.323  11.384  1.00  0.00     0.236 C 
HETATM    4  C   UNL     1     -42.230 -49.325  12.274  1.00  0.00     0.044 C 
BRANCH   3   5
HETATM    5  C   UNL     1     -39.868 -48.531  12.104  1.00  0.00     0.183 C 
BRANCH   5   6
HETATM    6  N   UNL     1     -39.886 -47.113  11.805  1.00  0.00    -0.301 N 
HETATM    7  C   UNL     1     -39.725 -46.098  12.702  1.00  0.00     0.118 A 
HETATM    8  C   UNL     1     -39.825 -44.926  11.985  1.00  0.00    -0.028 A 
HETATM    9  C   UNL     1     -39.679 -43.543  12.485  1.00  0.00     0.051 C 
HETATM   10  C   UNL     1     -40.091 -45.355  10.664  1.00  0.00     0.115 A 
HETATM   11  N   UNL     1     -40.148 -46.686  10.554  1.00  0.00    -0.310 N 
ATOM     12  HN  UNL     1     -40.343 -47.244   9.723  1.00  0.00     0.186 HD
ENDBRANCH   5   6
ENDBRANCH   3   5
ENDBRANCH   1   3
BRANCH   1  13
HETATM   13  C   UNL     1     -41.208 -51.700  11.872  1.00  0.00     0.372 C 
BRANCH  13  14
HETATM   14  C   UNL     1     -40.264 -52.438  12.828  1.00  0.00     0.248 C 
HETATM   15  O   UNL     1     -39.111 -52.075  13.053  1.00  0.00    -0.271 OA
HETATM   16  N   UNL     1     -40.840 -53.534  13.469  1.00  0.00    -0.346 N 
HETATM   17  C   UNL     1     -42.213 -54.012  13.266  1.00  0.00     0.157 C 
HETATM   18  C   UNL     1     -40.037 -54.397  14.334  1.00  0.00     0.157 C 
HETATM   19  C   UNL     1     -42.888 -54.278  14.620  1.00  0.00     0.136 C 
HETATM   20  C   UNL     1     -44.283 -54.847  14.411  1.00  0.00     0.041 C 
HETATM   21  O   UNL     1     -42.113 -55.216  15.382  1.00  0.00    -0.378 OA
HETATM   22  C   UNL     1     -40.789 -54.702  15.647  1.00  0.00     0.136 C 
HETATM   23  C   UNL     1     -40.049 -55.746  16.469  1.00  0.00     0.041 C 
ENDBRANCH  13  14
ENDBRANCH   1  13
TORSDOF 5
ENDMDL
MODEL 7
REMARK VINA RESULT:      -5.9      3.705      5.856
REMARK  5 active torsions:
REMARK  status: ('A' for Active; 'I' for Inactive)
REMARK    1  A    between atoms: C_2  and  C_3 
REMARK    2  A    between atoms: C_2  and  N_11 
REMARK    3  A    between atoms: C_3  and  N_4 
REMARK    4  A    between atoms: N_11  and  C_12 
REMARK    5  A    between atoms: C_12  and  C_13 
REMARK       I    between atoms: C_13  and  N_15 
ROOT
HETATM    1  N   UNL     1     -40.920 -51.896  11.370  1.00  0.00     0.098 N 
HETATM    2  H   UNL     1     -41.118 -51.885  10.370  1.00  0.00     0.317 HD
ENDROOT
BRANCH   1   3
HETATM    3  C   UNL     1     -42.075 -52.338  12.178  1.00  0.00     0.236 C 
HETATM    4  C   UNL     1     -41.673 -53.389  13.224  1.00  0.00     0.044 C 
BRANCH   3   5
HETATM    5  C   UNL     1     -42.758 -51.163  12.904  1.00  0.00     0.183 C 
BRANCH   5   6
HETATM    6  N   UNL     1     -44.137 -51.432  13.263  1.00  0.00    -0.301 N 
HETATM    7  C   UNL     1     -44.747 -51.084  14.433  1.00  0.00     0.118 A 
HETATM    8  C   UNL     1     -46.043 -51.545  14.347  1.00  0.00    -0.028 A 
HETATM    9  C   UNL     1     -47.128 -51.386  15.337  1.00  0.00     0.051 C 
HETATM   10  C   UNL     1     -46.091 -52.196  13.093  1.00  0.00     0.115 A 
HETATM   11  N   UNL     1     -44.927 -52.146  12.438  1.00  0.00    -0.310 N 
ATOM     12  HN  UNL     1     -44.693 -52.550  11.532  1.00  0.00     0.186 HD
ENDBRANCH   5   6
ENDBRANCH   3   5
ENDBRANCH   1   3
BRANCH   1  13
HETATM   13  C   UNL     1     -40.434 -50.577  11.789  1.00  0.00     0.372 C 
BRANCH  13  14
HETATM   14  C   UNL     1     -39.238 -50.628  12.747  1.00  0.00     0.248 C 
HETATM   15  O   UNL     1     -38.437 -51.560  12.779  1.00  0.00    -0.271 OA
HETATM   16  N   UNL     1     -39.100 -49.496  13.551  1.00  0.00    -0.346 N 
HETATM   17  C   UNL     1     -40.003 -48.340  13.551  1.00  0.00     0.157 C 
HETATM   18  C   UNL     1     -38.067 -49.440  14.584  1.00  0.00     0.157 C 
HETATM   19  C   UNL     1     -39.195 -47.035  13.502  1.00  0.00     0.136 C 
HETATM   20  C   UNL     1     -40.125 -45.834  13.581  1.00  0.00     0.041 C 
HETATM   21  O   UNL     1     -38.274 -46.983  14.602  1.00  0.00    -0.378 OA
HETATM   22  C   UNL     1     -37.336 -48.081  14.547  1.00  0.00     0.136 C 
HETATM   23  C   UNL     1     -36.394 -47.937  15.732  1.00  0.00     0.041 C 
ENDBRANCH  13  14
ENDBRANCH   1  13
TORSDOF 5
ENDMDL
MODEL 8
REMARK VINA RESULT:      -5.8      3.251      6.003
REMARK  5 active torsions:
REMARK  status: ('A' for Active; 'I' for Inactive)
REMARK    1  A    between atoms: C_2  and  C_3 
REMARK    2  A    between atoms: C_2  and  N_11 
REMARK    3  A    between atoms: C_3  and  N_4 
REMARK    4  A    between atoms: N_11  and  C_12 
REMARK    5  A    between atoms: C_12  and  C_13 
REMARK       I    between atoms: C_13  and  N_15 
ROOT
HETATM    1  N   UNL     1     -42.482 -52.381  12.753  1.00  0.00     0.098 N 
HETATM    2  H   UNL     1     -42.478 -51.895  13.649  1.00  0.00     0.317 HD
ENDROOT
BRANCH   1   3
HETATM    3  C   UNL     1     -42.723 -53.832  12.890  1.00  0.00     0.236 C 
HETATM    4  C   UNL     1     -42.334 -54.347  14.285  1.00  0.00     0.044 C 
BRANCH   3   5
HETATM    5  C   UNL     1     -44.195 -54.202  12.626  1.00  0.00     0.183 C 
BRANCH   5   6
HETATM    6  N   UNL     1     -45.131 -53.181  13.053  1.00  0.00    -0.301 N 
HETATM    7  C   UNL     1     -45.580 -52.979  14.326  1.00  0.00     0.118 A 
HETATM    8  C   UNL     1     -46.456 -51.917  14.266  1.00  0.00    -0.028 A 
HETATM    9  C   UNL     1     -47.180 -51.277  15.383  1.00  0.00     0.051 C 
HETATM   10  C   UNL     1     -46.493 -51.583  12.892  1.00  0.00     0.115 A 
HETATM   11  N   UNL     1     -45.702 -52.362  12.148  1.00  0.00    -0.310 N 
ATOM     12  HN  UNL     1     -45.564 -52.342  11.138  1.00  0.00     0.186 HD
ENDBRANCH   5   6
ENDBRANCH   3   5
ENDBRANCH   1   3
BRANCH   1  13
HETATM   13  C   UNL     1     -41.235 -52.101  12.035  1.00  0.00     0.372 C 
BRANCH  13  14
HETATM   14  C   UNL     1     -40.062 -51.719  12.945  1.00  0.00     0.248 C 
HETATM   15  O   UNL     1     -39.301 -52.543  13.447  1.00  0.00    -0.271 OA
HETATM   16  N   UNL     1     -39.894 -50.345  13.117  1.00  0.00    -0.346 N 
HETATM   17  C   UNL     1     -40.749 -49.306  12.533  1.00  0.00     0.157 C 
HETATM   18  C   UNL     1     -38.881 -49.829  14.036  1.00  0.00     0.157 C 
HETATM   19  C   UNL     1     -39.888 -48.205  11.898  1.00  0.00     0.136 C 
HETATM   20  C   UNL     1     -40.770 -47.087  11.360  1.00  0.00     0.041 C 
HETATM   21  O   UNL     1     -38.988 -47.657  12.874  1.00  0.00    -0.378 OA
HETATM   22  C   UNL     1     -38.095 -48.672  13.383  1.00  0.00     0.136 C 
HETATM   23  C   UNL     1     -37.172 -48.004  14.391  1.00  0.00     0.041 C 
ENDBRANCH  13  14
ENDBRANCH   1  13
TORSDOF 5
ENDMDL
MODEL 9
REMARK VINA RESULT:      -5.7      3.188      4.397
REMARK  5 active torsions:
REMARK  status: ('A' for Active; 'I' for Inactive)
REMARK    1  A    between atoms: C_2  and  C_3 
REMARK    2  A    between atoms: C_2  and  N_11 
REMARK    3  A    between atoms: C_3  and  N_4 
REMARK    4  A    between atoms: N_11  and  C_12 
REMARK    5  A    between atoms: C_12  and  C_13 
REMARK       I    between atoms: C_13  and  N_15 
ROOT
HETATM    1  N   UNL     1     -41.154 -46.063  12.623  1.00  0.00     0.098 N 
HETATM    2  H   UNL     1     -42.059 -45.909  13.065  1.00  0.00     0.317 HD
ENDROOT
BRANCH   1   3
HETATM    3  C   UNL     1     -41.239 -46.111  11.148  1.00  0.00     0.236 C 
HETATM    4  C   UNL     1     -39.927 -45.664  10.485  1.00  0.00     0.044 C 
BRANCH   3   5
HETATM    5  C   UNL     1     -41.591 -47.521  10.635  1.00  0.00     0.183 C 
BRANCH   5   6
HETATM    6  N   UNL     1     -42.789 -47.554   9.821  1.00  0.00    -0.301 N 
HETATM    7  C   UNL     1     -44.066 -47.351  10.256  1.00  0.00     0.118 A 
HETATM    8  C   UNL     1     -44.880 -47.486   9.153  1.00  0.00    -0.028 A 
HETATM    9  C   UNL     1     -46.346 -47.318   9.083  1.00  0.00     0.051 C 
HETATM   10  C   UNL     1     -43.986 -47.814   8.107  1.00  0.00     0.115 A 
HETATM   11  N   UNL     1     -42.714 -47.875   8.514  1.00  0.00    -0.310 N 
ATOM     12  HN  UNL     1     -41.886 -48.109   7.967  1.00  0.00     0.186 HD
ENDBRANCH   5   6
ENDBRANCH   3   5
ENDBRANCH   1   3
BRANCH   1  13
HETATM   13  C   UNL     1     -40.536 -47.273  13.174  1.00  0.00     0.372 C 
BRANCH  13  14
HETATM   14  C   UNL     1     -39.262 -47.009  13.986  1.00  0.00     0.248 C 
HETATM   15  O   UNL     1     -38.992 -45.918  14.484  1.00  0.00    -0.271 OA
HETATM   16  N   UNL     1     -38.453 -48.132  14.162  1.00  0.00    -0.346 N 
HETATM   17  C   UNL     1     -38.723 -49.467  13.617  1.00  0.00     0.157 C 
HETATM   18  C   UNL     1     -37.158 -48.017  14.830  1.00  0.00     0.157 C 
HETATM   19  C   UNL     1     -38.526 -50.534  14.703  1.00  0.00     0.136 C 
HETATM   20  C   UNL     1     -38.728 -51.925  14.121  1.00  0.00     0.041 C 
HETATM   21  O   UNL     1     -37.199 -50.447  15.246  1.00  0.00    -0.378 OA
HETATM   22  C   UNL     1     -36.971 -49.155  15.854  1.00  0.00     0.136 C 
HETATM   23  C   UNL     1     -35.558 -49.158  16.415  1.00  0.00     0.041 C 
ENDBRANCH  13  14
ENDBRANCH   1  13
TORSDOF 5
ENDMDL
