MODEL 1
REMARK VINA RESULT:      -5.0      0.000      0.000
REMARK  8 active torsions:
REMARK  status: ('A' for Active; 'I' for Inactive)
REMARK    1  A    between atoms: C_2  and  C_3 
REMARK    2  A    between atoms: C_3  and  C_4 
REMARK    3  A    between atoms: C_3  and  C_6 
REMARK    4  A    between atoms: C_3  and  N_8 
REMARK    5  A    between atoms: C_6  and  O_7 
REMARK    6  A    between atoms: N_8  and  C_9 
REMARK    7  A    between atoms: C_9  and  C_10 
REMARK    8  A    between atoms: C_10  and  N_11 
ROOT
HETATM    1  N   UNL     1     -41.556 -50.532  11.491  1.00  0.00     0.097 N 
HETATM    2  H   UNL     1     -42.550 -50.331  11.579  1.00  0.00     0.317 HD
ENDROOT
BRANCH   1   3
HETATM    3  C   UNL     1     -41.056 -51.148  12.758  1.00  0.00     0.177 C 
BRANCH   3   4
HETATM    4  C   UNL     1     -42.203 -50.991  13.810  1.00  0.00     0.039 C 
HETATM    5  C   UNL     1     -43.579 -50.609  13.271  1.00  0.00     0.007 C 
ENDBRANCH   3   4
BRANCH   3   6
HETATM    6  C   UNL     1     -39.755 -50.420  13.221  1.00  0.00     0.039 C 
HETATM    7  C   UNL     1     -38.484 -51.262  13.232  1.00  0.00     0.007 C 
ENDBRANCH   3   6
BRANCH   3   8
HETATM    8  C   UNL     1     -40.762 -52.683  12.593  1.00  0.00     0.205 C 
BRANCH   8   9
HETATM    9  O   UNL     1     -40.677 -53.114  11.237  1.00  0.00    -0.398 OA
HETATM   10  H   UNL     1     -40.960 -54.041  11.197  1.00  0.00     0.209 HD
ENDBRANCH   8   9
ENDBRANCH   3   8
ENDBRANCH   1   3
BRANCH   1  11
HETATM   11  C   UNL     1     -40.849 -49.310  11.075  1.00  0.00     0.292 C 
BRANCH  11  12
HETATM   12  C   UNL     1     -41.648 -48.029  11.333  1.00  0.00     0.178 C 
BRANCH  12  13
HETATM   13  N   UNL     1     -42.738 -47.926  10.372  1.00  0.00    -0.301 N 
HETATM   14  C   UNL     1     -44.054 -47.686  10.655  1.00  0.00     0.130 A 
HETATM   15  C   UNL     1     -44.656 -47.488   9.441  1.00  0.00     0.044 A 
HETATM   16 BR   UNL     1     -46.432 -47.052   9.086  1.00  0.00    -0.048 Br
HETATM   17  C   UNL     1     -43.646 -47.655   8.484  1.00  0.00     0.127 A 
HETATM   18  N   UNL     1     -42.471 -47.936   9.049  1.00  0.00    -0.309 N 
ATOM     19  HN  UNL     1     -41.579 -48.115   8.588  1.00  0.00     0.186 HD
ENDBRANCH  12  13
ENDBRANCH  11  12
ENDBRANCH   1  11
TORSDOF 8
ENDMDL
MODEL 2
REMARK VINA RESULT:      -4.8      1.929      2.520
REMARK  8 active torsions:
REMARK  status: ('A' for Active; 'I' for Inactive)
REMARK    1  A    between atoms: C_2  and  C_3 
REMARK    2  A    between atoms: C_3  and  C_4 
REMARK    3  A    between atoms: C_3  and  C_6 
REMARK    4  A    between atoms: C_3  and  N_8 
REMARK    5  A    between atoms: C_6  and  O_7 
REMARK    6  A    between atoms: N_8  and  C_9 
REMARK    7  A    between atoms: C_9  and  C_10 
REMARK    8  A    between atoms: C_10  and  N_11 
ROOT
HETATM    1  N   UNL     1     -39.488 -48.348  11.289  1.00  0.00     0.097 N 
HETATM    2  H   UNL     1     -38.982 -48.481  10.416  1.00  0.00     0.317 HD
ENDROOT
BRANCH   1   3
HETATM    3  C   UNL     1     -38.936 -49.266  12.333  1.00  0.00     0.177 C 
BRANCH   3   4
HETATM    4  C   UNL     1     -40.126 -50.161  12.811  1.00  0.00     0.039 C 
HETATM    5  C   UNL     1     -39.886 -51.668  12.832  1.00  0.00     0.007 C 
ENDBRANCH   3   4
BRANCH   3   6
HETATM    6  C   UNL     1     -38.344 -48.429  13.511  1.00  0.00     0.039 C 
HETATM    7  C   UNL     1     -38.951 -47.046  13.720  1.00  0.00     0.007 C 
ENDBRANCH   3   6
BRANCH   3   8
HETATM    8  C   UNL     1     -37.823 -50.213  11.757  1.00  0.00     0.205 C 
BRANCH   8   9
HETATM    9  O   UNL     1     -37.574 -50.035  10.364  1.00  0.00    -0.398 OA
HETATM   10  H   UNL     1     -37.981 -50.775   9.888  1.00  0.00     0.209 HD
ENDBRANCH   8   9
ENDBRANCH   3   8
ENDBRANCH   1   3
BRANCH   1  11
HETATM   11  C   UNL     1     -40.932 -48.493  11.039  1.00  0.00     0.292 C 
BRANCH  11  12
HETATM   12  C   UNL     1     -41.602 -47.192  10.582  1.00  0.00     0.178 C 
BRANCH  12  13
HETATM   13  N   UNL     1     -42.810 -47.499   9.830  1.00  0.00    -0.301 N 
HETATM   14  C   UNL     1     -44.099 -47.359  10.266  1.00  0.00     0.130 A 
HETATM   15  C   UNL     1     -44.881 -47.583   9.164  1.00  0.00     0.044 A 
HETATM   16 BR   UNL     1     -46.737 -47.491   9.023  1.00  0.00    -0.048 Br
HETATM   17  C   UNL     1     -43.994 -47.879   8.122  1.00  0.00     0.127 A 
HETATM   18  N   UNL     1     -42.724 -47.841   8.527  1.00  0.00    -0.309 N 
ATOM     19  HN  UNL     1     -41.883 -48.026   7.980  1.00  0.00     0.186 HD
ENDBRANCH  12  13
ENDBRANCH  11  12
ENDBRANCH   1  11
TORSDOF 8
ENDMDL
MODEL 3
REMARK VINA RESULT:      -4.8      4.119      5.702
REMARK  8 active torsions:
REMARK  status: ('A' for Active; 'I' for Inactive)
REMARK    1  A    between atoms: C_2  and  C_3 
REMARK    2  A    between atoms: C_3  and  C_4 
REMARK    3  A    between atoms: C_3  and  C_6 
REMARK    4  A    between atoms: C_3  and  N_8 
REMARK    5  A    between atoms: C_6  and  O_7 
REMARK    6  A    between atoms: N_8  and  C_9 
REMARK    7  A    between atoms: C_9  and  C_10 
REMARK    8  A    between atoms: C_10  and  N_11 
ROOT
HETATM    1  N   UNL     1     -44.360 -52.682  12.424  1.00  0.00     0.097 N 
HETATM    2  H   UNL     1     -44.523 -52.509  11.434  1.00  0.00     0.317 HD
ENDROOT
BRANCH   1   3
HETATM    3  C   UNL     1     -45.602 -52.369  13.197  1.00  0.00     0.177 C 
BRANCH   3   4
HETATM    4  C   UNL     1     -45.203 -51.290  14.257  1.00  0.00     0.039 C 
HETATM    5  C   UNL     1     -46.079 -51.198  15.503  1.00  0.00     0.007 C 
ENDBRANCH   3   4
BRANCH   3   6
HETATM    6  C   UNL     1     -46.138 -53.667  13.880  1.00  0.00     0.039 C 
HETATM    7  C   UNL     1     -45.296 -54.923  13.683  1.00  0.00     0.007 C 
ENDBRANCH   3   6
BRANCH   3   8
HETATM    8  C   UNL     1     -46.726 -51.757  12.286  1.00  0.00     0.205 C 
BRANCH   8   9
HETATM    9  O   UNL     1     -47.152 -52.619  11.233  1.00  0.00    -0.398 OA
HETATM   10  H   UNL     1     -46.800 -52.272  10.398  1.00  0.00     0.209 HD
ENDBRANCH   8   9
ENDBRANCH   3   8
ENDBRANCH   1   3
BRANCH   1  11
HETATM   11  C   UNL     1     -43.161 -51.945  12.854  1.00  0.00     0.292 C 
BRANCH  11  12
HETATM   12  C   UNL     1     -41.897 -52.339  12.082  1.00  0.00     0.178 C 
BRANCH  12  13
HETATM   13  N   UNL     1     -40.923 -51.258  12.147  1.00  0.00    -0.301 N 
HETATM   14  C   UNL     1     -40.145 -50.925  13.221  1.00  0.00     0.130 A 
HETATM   15  C   UNL     1     -39.265 -49.986  12.755  1.00  0.00     0.044 A 
HETATM   16 BR   UNL     1     -37.877 -49.144  13.670  1.00  0.00    -0.048 Br
HETATM   17  C   UNL     1     -39.598 -49.788  11.409  1.00  0.00     0.127 A 
HETATM   18  N   UNL     1     -40.621 -50.556  11.034  1.00  0.00    -0.309 N 
ATOM     19  HN  UNL     1     -41.070 -50.603  10.119  1.00  0.00     0.186 HD
ENDBRANCH  12  13
ENDBRANCH  11  12
ENDBRANCH   1  11
TORSDOF 8
ENDMDL
MODEL 4
REMARK VINA RESULT:      -4.7      3.022      5.361
REMARK  8 active torsions:
REMARK  status: ('A' for Active; 'I' for Inactive)
REMARK    1  A    between atoms: C_2  and  C_3 
REMARK    2  A    between atoms: C_3  and  C_4 
REMARK    3  A    between atoms: C_3  and  C_6 
REMARK    4  A    between atoms: C_3  and  N_8 
REMARK    5  A    between atoms: C_6  and  O_7 
REMARK    6  A    between atoms: N_8  and  C_9 
REMARK    7  A    between atoms: C_9  and  C_10 
REMARK    8  A    between atoms: C_10  and  N_11 
ROOT
HETATM    1  N   UNL     1     -41.250 -49.031  10.689  1.00  0.00     0.097 N 
HETATM    2  H   UNL     1     -40.282 -48.848  10.433  1.00  0.00     0.317 HD
ENDROOT
BRANCH   1   3
HETATM    3  C   UNL     1     -42.031 -47.756  10.639  1.00  0.00     0.177 C 
BRANCH   3   4
HETATM    4  C   UNL     1     -42.911 -47.725  11.932  1.00  0.00     0.039 C 
HETATM    5  C   UNL     1     -42.815 -46.471  12.796  1.00  0.00     0.007 C 
ENDBRANCH   3   4
BRANCH   3   6
HETATM    6  C   UNL     1     -42.911 -47.728   9.350  1.00  0.00     0.039 C 
HETATM    7  C   UNL     1     -44.387 -47.404   9.555  1.00  0.00     0.007 C 
ENDBRANCH   3   6
BRANCH   3   8
HETATM    8  C   UNL     1     -41.098 -46.492  10.661  1.00  0.00     0.205 C 
BRANCH   8   9
HETATM    9  O   UNL     1     -41.284 -45.616   9.552  1.00  0.00    -0.398 OA
HETATM   10  H   UNL     1     -41.335 -46.155   8.747  1.00  0.00     0.209 HD
ENDBRANCH   8   9
ENDBRANCH   3   8
ENDBRANCH   1   3
BRANCH   1  11
HETATM   11  C   UNL     1     -41.285 -49.728  11.986  1.00  0.00     0.292 C 
BRANCH  11  12
HETATM   12  C   UNL     1     -41.325 -51.254  11.854  1.00  0.00     0.178 C 
BRANCH  12  13
HETATM   13  N   UNL     1     -42.579 -51.762  12.393  1.00  0.00    -0.301 N 
HETATM   14  C   UNL     1     -43.427 -51.105  13.241  1.00  0.00     0.130 A 
HETATM   15  C   UNL     1     -44.546 -51.890  13.315  1.00  0.00     0.044 A 
HETATM   16 BR   UNL     1     -46.128 -51.567  14.245  1.00  0.00    -0.048 Br
HETATM   17  C   UNL     1     -44.281 -53.007  12.513  1.00  0.00     0.127 A 
HETATM   18  N   UNL     1     -43.071 -52.940  11.955  1.00  0.00    -0.309 N 
ATOM     19  HN  UNL     1     -42.624 -53.619  11.339  1.00  0.00     0.186 HD
ENDBRANCH  12  13
ENDBRANCH  11  12
ENDBRANCH   1  11
TORSDOF 8
ENDMDL
MODEL 5
REMARK VINA RESULT:      -4.7      4.233      5.894
REMARK  8 active torsions:
REMARK  status: ('A' for Active; 'I' for Inactive)
REMARK    1  A    between atoms: C_2  and  C_3 
REMARK    2  A    between atoms: C_3  and  C_4 
REMARK    3  A    between atoms: C_3  and  C_6 
REMARK    4  A    between atoms: C_3  and  N_8 
REMARK    5  A    between atoms: C_6  and  O_7 
REMARK    6  A    between atoms: N_8  and  C_9 
REMARK    7  A    between atoms: C_9  and  C_10 
REMARK    8  A    between atoms: C_10  and  N_11 
ROOT
HETATM    1  N   UNL     1     -43.489 -52.442  12.168  1.00  0.00     0.097 N 
HETATM    2  H   UNL     1     -43.226 -52.542  11.189  1.00  0.00     0.317 HD
ENDROOT
BRANCH   1   3
HETATM    3  C   UNL     1     -42.287 -52.653  13.033  1.00  0.00     0.177 C 
BRANCH   3   4
HETATM    4  C   UNL     1     -42.283 -54.167  13.424  1.00  0.00     0.039 C 
HETATM    5  C   UNL     1     -42.016 -54.496  14.890  1.00  0.00     0.007 C 
ENDBRANCH   3   4
BRANCH   3   6
HETATM    6  C   UNL     1     -42.380 -51.739  14.295  1.00  0.00     0.039 C 
HETATM    7  C   UNL     1     -43.107 -50.412  14.109  1.00  0.00     0.007 C 
ENDBRANCH   3   6
BRANCH   3   8
HETATM    8  C   UNL     1     -40.948 -52.349  12.268  1.00  0.00     0.205 C 
BRANCH   8   9
HETATM    9  O   UNL     1     -40.533 -53.394  11.391  1.00  0.00    -0.398 OA
HETATM   10  H   UNL     1     -41.111 -53.381  10.612  1.00  0.00     0.209 HD
ENDBRANCH   8   9
ENDBRANCH   3   8
ENDBRANCH   1   3
BRANCH   1  11
HETATM   11  C   UNL     1     -44.624 -53.332  12.458  1.00  0.00     0.292 C 
BRANCH  11  12
HETATM   12  C   UNL     1     -45.940 -52.582  12.690  1.00  0.00     0.178 C 
BRANCH  12  13
HETATM   13  N   UNL     1     -46.162 -52.408  14.119  1.00  0.00    -0.301 N 
HETATM   14  C   UNL     1     -46.931 -51.445  14.713  1.00  0.00     0.130 A 
HETATM   15  C   UNL     1     -46.991 -51.794  16.035  1.00  0.00     0.044 A 
HETATM   16 BR   UNL     1     -47.927 -50.957  17.413  1.00  0.00    -0.048 Br
HETATM   17  C   UNL     1     -46.214 -52.952  16.159  1.00  0.00     0.127 A 
HETATM   18  N   UNL     1     -45.693 -53.326  14.989  1.00  0.00    -0.309 N 
ATOM     19  HN  UNL     1     -45.083 -54.121  14.798  1.00  0.00     0.186 HD
ENDBRANCH  12  13
ENDBRANCH  11  12
ENDBRANCH   1  11
TORSDOF 8
ENDMDL
MODEL 6
REMARK VINA RESULT:      -4.7      4.774      6.813
REMARK  8 active torsions:
REMARK  status: ('A' for Active; 'I' for Inactive)
REMARK    1  A    between atoms: C_2  and  C_3 
REMARK    2  A    between atoms: C_3  and  C_4 
REMARK    3  A    between atoms: C_3  and  C_6 
REMARK    4  A    between atoms: C_3  and  N_8 
REMARK    5  A    between atoms: C_6  and  O_7 
REMARK    6  A    between atoms: N_8  and  C_9 
REMARK    7  A    between atoms: C_9  and  C_10 
REMARK    8  A    between atoms: C_10  and  N_11 
ROOT
HETATM    1  N   UNL     1     -44.920 -53.139  14.996  1.00  0.00     0.097 N 
HETATM    2  H   UNL     1     -45.715 -53.271  15.619  1.00  0.00     0.317 HD
ENDROOT
BRANCH   1   3
HETATM    3  C   UNL     1     -45.242 -52.078  13.993  1.00  0.00     0.177 C 
BRANCH   3   4
HETATM    4  C   UNL     1     -44.193 -50.937  14.202  1.00  0.00     0.039 C 
HETATM    5  C   UNL     1     -43.275 -50.626  13.024  1.00  0.00     0.007 C 
ENDBRANCH   3   4
BRANCH   3   6
HETATM    6  C   UNL     1     -46.698 -51.562  14.220  1.00  0.00     0.039 C 
HETATM    7  C   UNL     1     -47.158 -51.474  15.671  1.00  0.00     0.007 C 
ENDBRANCH   3   6
BRANCH   3   8
HETATM    8  C   UNL     1     -45.099 -52.599  12.517  1.00  0.00     0.205 C 
BRANCH   8   9
HETATM    9  O   UNL     1     -46.327 -52.637  11.794  1.00  0.00    -0.398 OA
HETATM   10  H   UNL     1     -47.044 -52.801  12.426  1.00  0.00     0.209 HD
ENDBRANCH   8   9
ENDBRANCH   3   8
ENDBRANCH   1   3
BRANCH   1  11
HETATM   11  C   UNL     1     -44.534 -54.438  14.422  1.00  0.00     0.292 C 
BRANCH  11  12
HETATM   12  C   UNL     1     -43.137 -54.900  14.850  1.00  0.00     0.178 C 
BRANCH  12  13
HETATM   13  N   UNL     1     -42.126 -54.087  14.189  1.00  0.00    -0.301 N 
HETATM   14  C   UNL     1     -41.205 -53.278  14.797  1.00  0.00     0.130 A 
HETATM   15  C   UNL     1     -40.359 -52.877  13.797  1.00  0.00     0.044 A 
HETATM   16 BR   UNL     1     -38.837 -51.810  13.927  1.00  0.00    -0.048 Br
HETATM   17  C   UNL     1     -40.855 -53.458  12.624  1.00  0.00     0.127 A 
HETATM   18  N   UNL     1     -41.945 -54.191  12.856  1.00  0.00    -0.309 N 
ATOM     19  HN  UNL     1     -42.509 -54.710  12.183  1.00  0.00     0.186 HD
ENDBRANCH  12  13
ENDBRANCH  11  12
ENDBRANCH   1  11
TORSDOF 8
ENDMDL
MODEL 7
REMARK VINA RESULT:      -4.7      4.440      6.020
REMARK  8 active torsions:
REMARK  status: ('A' for Active; 'I' for Inactive)
REMARK    1  A    between atoms: C_2  and  C_3 
REMARK    2  A    between atoms: C_3  and  C_4 
REMARK    3  A    between atoms: C_3  and  C_6 
REMARK    4  A    between atoms: C_3  and  N_8 
REMARK    5  A    between atoms: C_6  and  O_7 
REMARK    6  A    between atoms: N_8  and  C_9 
REMARK    7  A    between atoms: C_9  and  C_10 
REMARK    8  A    between atoms: C_10  and  N_11 
ROOT
HETATM    1  N   UNL     1     -43.696 -51.304  12.512  1.00  0.00     0.097 N 
HETATM    2  H   UNL     1     -44.307 -50.608  12.090  1.00  0.00     0.317 HD
ENDROOT
BRANCH   1   3
HETATM    3  C   UNL     1     -44.429 -52.019  13.602  1.00  0.00     0.177 C 
BRANCH   3   4
HETATM    4  C   UNL     1     -45.906 -51.506  13.552  1.00  0.00     0.039 C 
HETATM    5  C   UNL     1     -46.655 -51.445  14.880  1.00  0.00     0.007 C 
ENDBRANCH   3   4
BRANCH   3   6
HETATM    6  C   UNL     1     -43.763 -51.704  14.979  1.00  0.00     0.039 C 
HETATM    7  C   UNL     1     -43.265 -52.908  15.772  1.00  0.00     0.007 C 
ENDBRANCH   3   6
BRANCH   3   8
HETATM    8  C   UNL     1     -44.451 -53.574  13.378  1.00  0.00     0.205 C 
BRANCH   8   9
HETATM    9  O   UNL     1     -44.068 -53.976  12.065  1.00  0.00    -0.398 OA
HETATM   10  H   UNL     1     -43.132 -54.230  12.089  1.00  0.00     0.209 HD
ENDBRANCH   8   9
ENDBRANCH   3   8
ENDBRANCH   1   3
BRANCH   1  11
HETATM   11  C   UNL     1     -42.441 -50.659  12.929  1.00  0.00     0.292 C 
BRANCH  11  12
HETATM   12  C   UNL     1     -41.220 -51.134  12.134  1.00  0.00     0.178 C 
BRANCH  12  13
HETATM   13  N   UNL     1     -40.738 -52.396  12.679  1.00  0.00    -0.301 N 
HETATM   14  C   UNL     1     -40.074 -52.573  13.862  1.00  0.00     0.130 A 
HETATM   15  C   UNL     1     -40.000 -53.928  14.037  1.00  0.00     0.044 A 
HETATM   16 BR   UNL     1     -39.278 -54.872  15.473  1.00  0.00    -0.048 Br
HETATM   17  C   UNL     1     -40.611 -54.492  12.910  1.00  0.00     0.127 A 
HETATM   18  N   UNL     1     -41.055 -53.558  12.069  1.00  0.00    -0.309 N 
ATOM     19  HN  UNL     1     -41.525 -53.690  11.173  1.00  0.00     0.186 HD
ENDBRANCH  12  13
ENDBRANCH  11  12
ENDBRANCH   1  11
TORSDOF 8
ENDMDL
MODEL 8
REMARK VINA RESULT:      -4.6      3.745      5.553
REMARK  8 active torsions:
REMARK  status: ('A' for Active; 'I' for Inactive)
REMARK    1  A    between atoms: C_2  and  C_3 
REMARK    2  A    between atoms: C_3  and  C_4 
REMARK    3  A    between atoms: C_3  and  C_6 
REMARK    4  A    between atoms: C_3  and  N_8 
REMARK    5  A    between atoms: C_6  and  O_7 
REMARK    6  A    between atoms: N_8  and  C_9 
REMARK    7  A    between atoms: C_9  and  C_10 
REMARK    8  A    between atoms: C_10  and  N_11 
ROOT
HETATM    1  N   UNL     1     -43.363 -53.436  12.372  1.00  0.00     0.097 N 
HETATM    2  H   UNL     1     -43.119 -52.854  11.573  1.00  0.00     0.317 HD
ENDROOT
BRANCH   1   3
HETATM    3  C   UNL     1     -44.473 -52.792  13.140  1.00  0.00     0.177 C 
BRANCH   3   4
HETATM    4  C   UNL     1     -44.777 -53.734  14.352  1.00  0.00     0.039 C 
HETATM    5  C   UNL     1     -45.587 -54.993  14.055  1.00  0.00     0.007 C 
ENDBRANCH   3   4
BRANCH   3   6
HETATM    6  C   UNL     1     -45.723 -52.626  12.220  1.00  0.00     0.039 C 
HETATM    7  C   UNL     1     -46.774 -51.628  12.693  1.00  0.00     0.007 C 
ENDBRANCH   3   6
BRANCH   3   8
HETATM    8  C   UNL     1     -44.058 -51.389  13.713  1.00  0.00     0.205 C 
BRANCH   8   9
HETATM    9  O   UNL     1     -43.558 -50.486  12.730  1.00  0.00    -0.398 OA
HETATM   10  H   UNL     1     -44.278 -49.890  12.474  1.00  0.00     0.209 HD
ENDBRANCH   8   9
ENDBRANCH   3   8
ENDBRANCH   1   3
BRANCH   1  11
HETATM   11  C   UNL     1     -42.148 -53.716  13.156  1.00  0.00     0.292 C 
BRANCH  11  12
HETATM   12  C   UNL     1     -40.852 -53.466  12.377  1.00  0.00     0.178 C 
BRANCH  12  13
HETATM   13  N   UNL     1     -40.570 -52.038  12.336  1.00  0.00    -0.301 N 
HETATM   14  C   UNL     1     -39.850 -51.323  13.253  1.00  0.00     0.130 A 
HETATM   15  C   UNL     1     -39.691 -50.080  12.701  1.00  0.00     0.044 A 
HETATM   16 BR   UNL     1     -38.754 -48.621  13.382  1.00  0.00    -0.048 Br
HETATM   17  C   UNL     1     -40.367 -50.121  11.474  1.00  0.00     0.127 A 
HETATM   18  N   UNL     1     -40.917 -51.315  11.251  1.00  0.00    -0.309 N 
ATOM     19  HN  UNL     1     -41.471 -51.612  10.447  1.00  0.00     0.186 HD
ENDBRANCH  12  13
ENDBRANCH  11  12
ENDBRANCH   1  11
TORSDOF 8
ENDMDL
MODEL 9
REMARK VINA RESULT:      -4.6      4.090      5.869
REMARK  8 active torsions:
REMARK  status: ('A' for Active; 'I' for Inactive)
REMARK    1  A    between atoms: C_2  and  C_3 
REMARK    2  A    between atoms: C_3  and  C_4 
REMARK    3  A    between atoms: C_3  and  C_6 
REMARK    4  A    between atoms: C_3  and  N_8 
REMARK    5  A    between atoms: C_6  and  O_7 
REMARK    6  A    between atoms: N_8  and  C_9 
REMARK    7  A    between atoms: C_9  and  C_10 
REMARK    8  A    between atoms: C_10  and  N_11 
ROOT
HETATM    1  N   UNL     1     -43.837 -52.351  13.829  1.00  0.00     0.097 N 
HETATM    2  H   UNL     1     -43.391 -52.775  14.641  1.00  0.00     0.317 HD
ENDROOT
BRANCH   1   3
HETATM    3  C   UNL     1     -45.318 -52.538  13.919  1.00  0.00     0.177 C 
BRANCH   3   4
HETATM    4  C   UNL     1     -45.835 -52.693  12.451  1.00  0.00     0.039 C 
HETATM    5  C   UNL     1     -46.838 -51.651  11.964  1.00  0.00     0.007 C 
ENDBRANCH   3   4
BRANCH   3   6
HETATM    6  C   UNL     1     -45.964 -51.303  14.623  1.00  0.00     0.039 C 
HETATM    7  C   UNL     1     -47.076 -51.606  15.621  1.00  0.00     0.007 C 
ENDBRANCH   3   6
BRANCH   3   8
HETATM    8  C   UNL     1     -45.702 -53.844  14.705  1.00  0.00     0.205 C 
BRANCH   8   9
HETATM    9  O   UNL     1     -46.140 -54.914  13.871  1.00  0.00    -0.398 OA
HETATM   10  H   UNL     1     -46.327 -54.553  12.990  1.00  0.00     0.209 HD
ENDBRANCH   8   9
ENDBRANCH   3   8
ENDBRANCH   1   3
BRANCH   1  11
HETATM   11  C   UNL     1     -43.219 -52.883  12.604  1.00  0.00     0.292 C 
BRANCH  11  12
HETATM   12  C   UNL     1     -41.719 -53.158  12.751  1.00  0.00     0.178 C 
BRANCH  12  13
HETATM   13  N   UNL     1     -40.967 -51.936  12.504  1.00  0.00    -0.301 N 
HETATM   14  C   UNL     1     -39.918 -51.461  13.242  1.00  0.00     0.130 A 
HETATM   15  C   UNL     1     -39.421 -50.405  12.527  1.00  0.00     0.044 A 
HETATM   16 BR   UNL     1     -37.946 -49.334  12.917  1.00  0.00    -0.048 Br
HETATM   17  C   UNL     1     -40.239 -50.292  11.395  1.00  0.00     0.127 A 
HETATM   18  N   UNL     1     -41.196 -51.220  11.382  1.00  0.00    -0.309 N 
ATOM     19  HN  UNL     1     -41.929 -51.358  10.686  1.00  0.00     0.186 HD
ENDBRANCH  12  13
ENDBRANCH  11  12
ENDBRANCH   1  11
TORSDOF 8
ENDMDL
