MODEL 1
REMARK VINA RESULT:      -7.4      0.000      0.000
REMARK  6 active torsions:
REMARK  status: ('A' for Active; 'I' for Inactive)
REMARK    1  A    between atoms: N_1  and  C_8 
REMARK    2  A    between atoms: N_2  and  C_7 
REMARK    3  A    between atoms: C_8  and  C_9 
REMARK       I    between atoms: C_9  and  N_10 
REMARK    4  A    between atoms: N_10  and  C_12 
REMARK    5  A    between atoms: C_13  and  O_15 
REMARK    6  A    between atoms: O_15  and  C_19 
ROOT
HETATM    1  C   UNL     1     -39.278 -52.863  14.370  1.00  0.00     0.240 C 
HETATM    2  N   UNL     1     -40.434 -52.778  15.140  1.00  0.00    -0.323 N 
HETATM    3  O   UNL     1     -38.886 -53.885  13.809  1.00  0.00    -0.271 OA
HETATM    4  H   UNL     1     -40.560 -51.962  15.734  1.00  0.00     0.169 HD
ENDROOT
BRANCH   1   5
HETATM    5  C   UNL     1     -38.433 -51.586  14.335  1.00  0.00     0.240 C 
BRANCH   5   6
HETATM    6  N   UNL     1     -38.535 -50.746  13.146  1.00  0.00    -0.255 N 
HETATM    7  C   UNL     1     -39.478 -49.725  13.176  1.00  0.00     0.334 C 
HETATM    8  N   UNL     1     -39.312 -48.702  12.241  1.00  0.00    -0.279 N 
HETATM    9  O   UNL     1     -40.383 -49.710  14.014  1.00  0.00    -0.246 OA
HETATM   10  C   UNL     1     -38.355 -48.772  11.249  1.00  0.00     0.146 C 
HETATM   11  C   UNL     1     -37.541 -49.817  11.148  1.00  0.00     0.200 C 
HETATM   12  C   UNL     1     -37.577 -50.898  12.152  1.00  0.00     0.292 C 
HETATM   13  F   UNL     1     -36.596 -49.894  10.183  1.00  0.00    -0.199 F 
HETATM   14  O   UNL     1     -36.756 -51.810  12.108  1.00  0.00    -0.264 OA
BRANCH   8  15
HETATM   15  C   UNL     1     -40.211 -47.558  12.354  1.00  0.00     0.232 C 
HETATM   16  O   UNL     1     -40.702 -47.102  11.076  1.00  0.00    -0.366 OA
HETATM   17  C   UNL     1     -41.023 -45.704  11.204  1.00  0.00     0.170 C 
HETATM   18  C   UNL     1     -40.535 -45.242  12.563  1.00  0.00     0.031 C 
HETATM   19  C   UNL     1     -39.559 -46.320  12.954  1.00  0.00     0.056 C 
ENDBRANCH   8  15
ENDBRANCH   5   6
ENDBRANCH   1   5
BRANCH   2  20
HETATM   20  C   UNL     1     -41.278 -53.887  15.404  1.00  0.00     0.069 A 
HETATM   21  C   UNL     1     -42.376 -54.168  14.564  1.00  0.00     0.102 A 
HETATM   22  C   UNL     1     -43.205 -55.264  14.866  1.00  0.00     0.039 A 
HETATM   23  C   UNL     1     -42.911 -56.113  15.933  1.00  0.00     0.003 A 
HETATM   24  C   UNL     1     -41.815 -55.848  16.745  1.00  0.00     0.002 A 
HETATM   25  C   UNL     1     -41.015 -54.732  16.492  1.00  0.00     0.032 A 
BRANCH  21  26
HETATM   26  O   UNL     1     -42.663 -53.270  13.540  1.00  0.00    -0.309 OA
BRANCH  26  27
HETATM   27  C   UNL     1     -43.909 -52.677  13.537  1.00  0.00     0.076 A 
HETATM   28  C   UNL     1     -44.234 -51.768  14.547  1.00  0.00     0.037 A 
HETATM   29  C   UNL     1     -45.519 -51.218  14.598  1.00  0.00     0.003 A 
HETATM   30  C   UNL     1     -46.471 -51.571  13.638  1.00  0.00     0.000 A 
HETATM   31  C   UNL     1     -46.126 -52.441  12.604  1.00  0.00     0.003 A 
HETATM   32  C   UNL     1     -44.839 -52.973  12.538  1.00  0.00     0.037 A 
ENDBRANCH  26  27
ENDBRANCH  21  26
ENDBRANCH   2  20
TORSDOF 6
ENDMDL
MODEL 2
REMARK VINA RESULT:      -7.3      1.887      2.297
REMARK  6 active torsions:
REMARK  status: ('A' for Active; 'I' for Inactive)
REMARK    1  A    between atoms: N_1  and  C_8 
REMARK    2  A    between atoms: N_2  and  C_7 
REMARK    3  A    between atoms: C_8  and  C_9 
REMARK       I    between atoms: C_9  and  N_10 
REMARK    4  A    between atoms: N_10  and  C_12 
REMARK    5  A    between atoms: C_13  and  O_15 
REMARK    6  A    between atoms: O_15  and  C_19 
ROOT
HETATM    1  C   UNL     1     -39.543 -51.814  14.105  1.00  0.00     0.240 C 
HETATM    2  N   UNL     1     -39.703 -53.177  13.875  1.00  0.00    -0.323 N 
HETATM    3  O   UNL     1     -40.133 -51.179  14.978  1.00  0.00    -0.271 OA
HETATM    4  H   UNL     1     -39.345 -53.566  13.007  1.00  0.00     0.169 HD
ENDROOT
BRANCH   1   5
HETATM    5  C   UNL     1     -38.629 -51.096  13.108  1.00  0.00     0.240 C 
BRANCH   5   6
HETATM    6  N   UNL     1     -38.955 -49.713  12.775  1.00  0.00    -0.255 N 
HETATM    7  C   UNL     1     -39.946 -49.512  11.821  1.00  0.00     0.334 C 
HETATM    8  N   UNL     1     -40.526 -48.242  11.792  1.00  0.00    -0.279 N 
HETATM    9  O   UNL     1     -40.314 -50.422  11.075  1.00  0.00    -0.246 OA
HETATM   10  C   UNL     1     -40.046 -47.204  12.564  1.00  0.00     0.146 C 
HETATM   11  C   UNL     1     -39.011 -47.373  13.380  1.00  0.00     0.200 C 
HETATM   12  C   UNL     1     -38.398 -48.704  13.551  1.00  0.00     0.292 C 
HETATM   13  F   UNL     1     -38.534 -46.364  14.145  1.00  0.00    -0.199 F 
HETATM   14  O   UNL     1     -37.507 -48.872  14.379  1.00  0.00    -0.264 OA
BRANCH   8  15
HETATM   15  C   UNL     1     -41.662 -48.062  10.892  1.00  0.00     0.232 C 
HETATM   16  O   UNL     1     -41.686 -46.757  10.277  1.00  0.00    -0.366 OA
HETATM   17  C   UNL     1     -43.057 -46.454   9.950  1.00  0.00     0.170 C 
HETATM   18  C   UNL     1     -43.926 -47.537  10.558  1.00  0.00     0.031 C 
HETATM   19  C   UNL     1     -43.015 -48.163  11.582  1.00  0.00     0.056 C 
ENDBRANCH   8  15
ENDBRANCH   5   6
ENDBRANCH   1   5
BRANCH   2  20
HETATM   20  C   UNL     1     -40.608 -53.990  14.606  1.00  0.00     0.069 A 
HETATM   21  C   UNL     1     -41.911 -54.228  14.119  1.00  0.00     0.102 A 
HETATM   22  C   UNL     1     -42.789 -55.023  14.879  1.00  0.00     0.039 A 
HETATM   23  C   UNL     1     -42.365 -55.632  16.059  1.00  0.00     0.003 A 
HETATM   24  C   UNL     1     -41.075 -55.415  16.524  1.00  0.00     0.002 A 
HETATM   25  C   UNL     1     -40.208 -54.585  15.812  1.00  0.00     0.032 A 
BRANCH  21  26
HETATM   26  O   UNL     1     -42.309 -53.563  12.964  1.00  0.00    -0.309 OA
BRANCH  26  27
HETATM   27  C   UNL     1     -43.470 -52.818  13.021  1.00  0.00     0.076 A 
HETATM   28  C   UNL     1     -43.454 -51.577  13.660  1.00  0.00     0.037 A 
HETATM   29  C   UNL     1     -44.640 -50.848  13.791  1.00  0.00     0.003 A 
HETATM   30  C   UNL     1     -45.835 -51.357  13.276  1.00  0.00     0.000 A 
HETATM   31  C   UNL     1     -45.837 -52.574  12.594  1.00  0.00     0.003 A 
HETATM   32  C   UNL     1     -44.651 -53.292  12.445  1.00  0.00     0.037 A 
ENDBRANCH  26  27
ENDBRANCH  21  26
ENDBRANCH   2  20
TORSDOF 6
ENDMDL
MODEL 3
REMARK VINA RESULT:      -7.1      1.785      3.844
REMARK  6 active torsions:
REMARK  status: ('A' for Active; 'I' for Inactive)
REMARK    1  A    between atoms: N_1  and  C_8 
REMARK    2  A    between atoms: N_2  and  C_7 
REMARK    3  A    between atoms: C_8  and  C_9 
REMARK       I    between atoms: C_9  and  N_10 
REMARK    4  A    between atoms: N_10  and  C_12 
REMARK    5  A    between atoms: C_13  and  O_15 
REMARK    6  A    between atoms: O_15  and  C_19 
ROOT
HETATM    1  C   UNL     1     -42.357 -51.537  12.830  1.00  0.00     0.240 C 
HETATM    2  N   UNL     1     -43.507 -52.213  12.433  1.00  0.00    -0.323 N 
HETATM    3  O   UNL     1     -42.191 -51.033  13.940  1.00  0.00    -0.271 OA
HETATM    4  H   UNL     1     -43.638 -52.402  11.443  1.00  0.00     0.169 HD
ENDROOT
BRANCH   1   5
HETATM    5  C   UNL     1     -41.302 -51.361  11.733  1.00  0.00     0.240 C 
BRANCH   5   6
HETATM    6  N   UNL     1     -40.281 -50.340  11.943  1.00  0.00    -0.255 N 
HETATM    7  C   UNL     1     -40.606 -49.039  11.576  1.00  0.00     0.334 C 
HETATM    8  N   UNL     1     -39.818 -48.027  12.126  1.00  0.00    -0.279 N 
HETATM    9  O   UNL     1     -41.566 -48.800  10.840  1.00  0.00    -0.246 OA
HETATM   10  C   UNL     1     -38.691 -48.306  12.873  1.00  0.00     0.146 C 
HETATM   11  C   UNL     1     -38.314 -49.557  13.110  1.00  0.00     0.200 C 
HETATM   12  C   UNL     1     -39.139 -50.691  12.654  1.00  0.00     0.292 C 
HETATM   13  F   UNL     1     -37.214 -49.843  13.844  1.00  0.00    -0.199 F 
HETATM   14  O   UNL     1     -38.836 -51.841  12.961  1.00  0.00    -0.264 OA
BRANCH   8  15
HETATM   15  C   UNL     1     -40.236 -46.653  11.861  1.00  0.00     0.232 C 
HETATM   16  O   UNL     1     -39.777 -46.165  10.583  1.00  0.00    -0.366 OA
HETATM   17  C   UNL     1     -39.678 -44.730  10.674  1.00  0.00     0.170 C 
HETATM   18  C   UNL     1     -39.907 -44.343  12.122  1.00  0.00     0.031 C 
HETATM   19  C   UNL     1     -39.687 -45.640  12.855  1.00  0.00     0.056 C 
ENDBRANCH   8  15
ENDBRANCH   5   6
ENDBRANCH   1   5
BRANCH   2  20
HETATM   20  C   UNL     1     -44.649 -52.362  13.261  1.00  0.00     0.069 A 
HETATM   21  C   UNL     1     -44.825 -53.527  14.037  1.00  0.00     0.102 A 
HETATM   22  C   UNL     1     -45.979 -53.651  14.832  1.00  0.00     0.039 A 
HETATM   23  C   UNL     1     -46.905 -52.611  14.918  1.00  0.00     0.003 A 
HETATM   24  C   UNL     1     -46.718 -51.456  14.171  1.00  0.00     0.002 A 
HETATM   25  C   UNL     1     -45.607 -51.339  13.335  1.00  0.00     0.032 A 
BRANCH  21  26
HETATM   26  O   UNL     1     -43.903 -54.559  13.886  1.00  0.00    -0.309 OA
BRANCH  26  27
HETATM   27  C   UNL     1     -42.879 -54.644  14.807  1.00  0.00     0.076 A 
HETATM   28  C   UNL     1     -41.558 -54.511  14.373  1.00  0.00     0.037 A 
HETATM   29  C   UNL     1     -40.509 -54.671  15.284  1.00  0.00     0.003 A 
HETATM   30  C   UNL     1     -40.782 -54.953  16.625  1.00  0.00     0.000 A 
HETATM   31  C   UNL     1     -42.104 -55.035  17.063  1.00  0.00     0.003 A 
HETATM   32  C   UNL     1     -43.151 -54.856  16.161  1.00  0.00     0.037 A 
ENDBRANCH  26  27
ENDBRANCH  21  26
ENDBRANCH   2  20
TORSDOF 6
ENDMDL
MODEL 4
REMARK VINA RESULT:      -7.1      2.983      4.411
REMARK  6 active torsions:
REMARK  status: ('A' for Active; 'I' for Inactive)
REMARK    1  A    between atoms: N_1  and  C_8 
REMARK    2  A    between atoms: N_2  and  C_7 
REMARK    3  A    between atoms: C_8  and  C_9 
REMARK       I    between atoms: C_9  and  N_10 
REMARK    4  A    between atoms: N_10  and  C_12 
REMARK    5  A    between atoms: C_13  and  O_15 
REMARK    6  A    between atoms: O_15  and  C_19 
ROOT
HETATM    1  C   UNL     1     -40.864 -49.633  11.577  1.00  0.00     0.240 C 
HETATM    2  N   UNL     1     -41.856 -50.598  11.718  1.00  0.00    -0.323 N 
HETATM    3  O   UNL     1     -39.743 -49.702  12.079  1.00  0.00    -0.271 OA
HETATM    4  H   UNL     1     -42.807 -50.357  11.453  1.00  0.00     0.169 HD
ENDROOT
BRANCH   1   5
HETATM    5  C   UNL     1     -41.292 -48.378  10.809  1.00  0.00     0.240 C 
BRANCH   5   6
HETATM    6  N   UNL     1     -41.441 -47.143  11.572  1.00  0.00    -0.255 N 
HETATM    7  C   UNL     1     -42.442 -47.116  12.536  1.00  0.00     0.334 C 
HETATM    8  N   UNL     1     -42.334 -46.123  13.512  1.00  0.00    -0.279 N 
HETATM    9  O   UNL     1     -43.348 -47.952  12.546  1.00  0.00    -0.246 OA
HETATM   10  C   UNL     1     -41.372 -45.135  13.441  1.00  0.00     0.146 C 
HETATM   11  C   UNL     1     -40.498 -45.094  12.441  1.00  0.00     0.200 C 
HETATM   12  C   UNL     1     -40.473 -46.158  11.420  1.00  0.00     0.292 C 
HETATM   13  F   UNL     1     -39.548 -44.133  12.364  1.00  0.00    -0.199 F 
HETATM   14  O   UNL     1     -39.601 -46.165  10.556  1.00  0.00    -0.264 OA
BRANCH   8  15
HETATM   15  C   UNL     1     -43.298 -46.172  14.607  1.00  0.00     0.232 C 
HETATM   16  O   UNL     1     -43.887 -44.886  14.892  1.00  0.00    -0.366 OA
HETATM   17  C   UNL     1     -44.292 -44.887  16.274  1.00  0.00     0.170 C 
HETATM   18  C   UNL     1     -43.760 -46.158  16.909  1.00  0.00     0.031 C 
HETATM   19  C   UNL     1     -42.695 -46.598  15.938  1.00  0.00     0.056 C 
ENDBRANCH   8  15
ENDBRANCH   5   6
ENDBRANCH   1   5
BRANCH   2  20
HETATM   20  C   UNL     1     -41.697 -51.768  12.505  1.00  0.00     0.069 A 
HETATM   21  C   UNL     1     -42.357 -51.893  13.746  1.00  0.00     0.102 A 
HETATM   22  C   UNL     1     -42.162 -53.058  14.510  1.00  0.00     0.039 A 
HETATM   23  C   UNL     1     -41.390 -54.113  14.024  1.00  0.00     0.003 A 
HETATM   24  C   UNL     1     -40.761 -53.998  12.792  1.00  0.00     0.002 A 
HETATM   25  C   UNL     1     -40.899 -52.826  12.046  1.00  0.00     0.032 A 
BRANCH  21  26
HETATM   26  O   UNL     1     -43.078 -50.798  14.216  1.00  0.00    -0.309 OA
BRANCH  26  27
HETATM   27  C   UNL     1     -44.389 -51.009  14.594  1.00  0.00     0.076 A 
HETATM   28  C   UNL     1     -45.320 -51.408  13.632  1.00  0.00     0.037 A 
HETATM   29  C   UNL     1     -46.665 -51.551  13.987  1.00  0.00     0.003 A 
HETATM   30  C   UNL     1     -47.074 -51.303  15.300  1.00  0.00     0.000 A 
HETATM   31  C   UNL     1     -46.132 -50.953  16.267  1.00  0.00     0.003 A 
HETATM   32  C   UNL     1     -44.787 -50.830  15.921  1.00  0.00     0.037 A 
ENDBRANCH  26  27
ENDBRANCH  21  26
ENDBRANCH   2  20
TORSDOF 6
ENDMDL
MODEL 5
REMARK VINA RESULT:      -6.9      2.543      3.925
REMARK  6 active torsions:
REMARK  status: ('A' for Active; 'I' for Inactive)
REMARK    1  A    between atoms: N_1  and  C_8 
REMARK    2  A    between atoms: N_2  and  C_7 
REMARK    3  A    between atoms: C_8  and  C_9 
REMARK       I    between atoms: C_9  and  N_10 
REMARK    4  A    between atoms: N_10  and  C_12 
REMARK    5  A    between atoms: C_13  and  O_15 
REMARK    6  A    between atoms: O_15  and  C_19 
ROOT
HETATM    1  C   UNL     1     -41.953 -52.128  12.686  1.00  0.00     0.240 C 
HETATM    2  N   UNL     1     -43.106 -51.368  12.513  1.00  0.00    -0.323 N 
HETATM    3  O   UNL     1     -41.785 -52.947  13.588  1.00  0.00    -0.271 OA
HETATM    4  H   UNL     1     -43.070 -50.574  11.880  1.00  0.00     0.169 HD
ENDROOT
BRANCH   1   5
HETATM    5  C   UNL     1     -40.817 -51.806  11.710  1.00  0.00     0.240 C 
BRANCH   5   6
HETATM    6  N   UNL     1     -39.921 -50.709  12.063  1.00  0.00    -0.255 N 
HETATM    7  C   UNL     1     -40.301 -49.433  11.663  1.00  0.00     0.334 C 
HETATM    8  N   UNL     1     -39.680 -48.369  12.321  1.00  0.00    -0.279 N 
HETATM    9  O   UNL     1     -41.170 -49.259  10.805  1.00  0.00    -0.246 OA
HETATM   10  C   UNL     1     -38.645 -48.569  13.212  1.00  0.00     0.146 C 
HETATM   11  C   UNL     1     -38.200 -49.789  13.489  1.00  0.00     0.200 C 
HETATM   12  C   UNL     1     -38.860 -50.979  12.918  1.00  0.00     0.292 C 
HETATM   13  F   UNL     1     -37.188 -49.997  14.363  1.00  0.00    -0.199 F 
HETATM   14  O   UNL     1     -38.506 -52.104  13.256  1.00  0.00    -0.264 OA
BRANCH   8  15
HETATM   15  C   UNL     1     -40.172 -47.030  12.010  1.00  0.00     0.232 C 
HETATM   16  O   UNL     1     -39.714 -46.548  10.730  1.00  0.00    -0.366 OA
HETATM   17  C   UNL     1     -39.700 -45.109  10.784  1.00  0.00     0.170 C 
HETATM   18  C   UNL     1     -39.983 -44.699  12.216  1.00  0.00     0.031 C 
HETATM   19  C   UNL     1     -39.704 -45.961  12.988  1.00  0.00     0.056 C 
ENDBRANCH   8  15
ENDBRANCH   5   6
ENDBRANCH   1   5
BRANCH   2  20
HETATM   20  C   UNL     1     -44.215 -51.425  13.394  1.00  0.00     0.069 A 
HETATM   21  C   UNL     1     -44.197 -50.719  14.616  1.00  0.00     0.102 A 
HETATM   22  C   UNL     1     -45.307 -50.812  15.476  1.00  0.00     0.039 A 
HETATM   23  C   UNL     1     -46.444 -51.528  15.103  1.00  0.00     0.003 A 
HETATM   24  C   UNL     1     -46.469 -52.203  13.890  1.00  0.00     0.002 A 
HETATM   25  C   UNL     1     -45.356 -52.166  13.049  1.00  0.00     0.032 A 
BRANCH  21  26
HETATM   26  O   UNL     1     -43.025 -50.057  14.971  1.00  0.00    -0.309 OA
BRANCH  26  27
HETATM   27  C   UNL     1     -43.054 -48.677  15.006  1.00  0.00     0.076 A 
HETATM   28  C   UNL     1     -43.054 -48.026  16.241  1.00  0.00     0.037 A 
HETATM   29  C   UNL     1     -43.159 -46.632  16.291  1.00  0.00     0.003 A 
HETATM   30  C   UNL     1     -43.255 -45.894  15.108  1.00  0.00     0.000 A 
HETATM   31  C   UNL     1     -43.203 -46.546  13.876  1.00  0.00     0.003 A 
HETATM   32  C   UNL     1     -43.078 -47.934  13.824  1.00  0.00     0.037 A 
ENDBRANCH  26  27
ENDBRANCH  21  26
ENDBRANCH   2  20
TORSDOF 6
ENDMDL
MODEL 6
REMARK VINA RESULT:      -6.9      2.667      7.254
REMARK  6 active torsions:
REMARK  status: ('A' for Active; 'I' for Inactive)
REMARK    1  A    between atoms: N_1  and  C_8 
REMARK    2  A    between atoms: N_2  and  C_7 
REMARK    3  A    between atoms: C_8  and  C_9 
REMARK       I    between atoms: C_9  and  N_10 
REMARK    4  A    between atoms: N_10  and  C_12 
REMARK    5  A    between atoms: C_13  and  O_15 
REMARK    6  A    between atoms: O_15  and  C_19 
ROOT
HETATM    1  C   UNL     1     -39.915 -50.242  12.189  1.00  0.00     0.240 C 
HETATM    2  N   UNL     1     -40.859 -49.287  12.556  1.00  0.00    -0.323 N 
HETATM    3  O   UNL     1     -38.717 -50.014  12.030  1.00  0.00    -0.271 OA
HETATM    4  H   UNL     1     -41.844 -49.518  12.453  1.00  0.00     0.169 HD
ENDROOT
BRANCH   1   5
HETATM    5  C   UNL     1     -40.488 -51.630  11.887  1.00  0.00     0.240 C 
BRANCH   5   6
HETATM    6  N   UNL     1     -40.977 -52.414  13.017  1.00  0.00    -0.255 N 
HETATM    7  C   UNL     1     -42.345 -52.382  13.260  1.00  0.00     0.334 C 
HETATM    8  N   UNL     1     -42.855 -53.408  14.058  1.00  0.00    -0.279 N 
HETATM    9  O   UNL     1     -43.067 -51.516  12.760  1.00  0.00    -0.246 OA
HETATM   10  C   UNL     1     -42.030 -54.318  14.689  1.00  0.00     0.146 C 
HETATM   11  C   UNL     1     -40.710 -54.260  14.555  1.00  0.00     0.200 C 
HETATM   12  C   UNL     1     -40.088 -53.273  13.653  1.00  0.00     0.292 C 
HETATM   13  F   UNL     1     -39.892 -55.149  15.165  1.00  0.00    -0.199 F 
HETATM   14  O   UNL     1     -38.876 -53.290  13.459  1.00  0.00    -0.264 OA
BRANCH   8  15
HETATM   15  C   UNL     1     -44.306 -53.465  14.204  1.00  0.00     0.232 C 
HETATM   16  O   UNL     1     -44.746 -53.170  15.545  1.00  0.00    -0.366 OA
HETATM   17  C   UNL     1     -46.013 -53.828  15.745  1.00  0.00     0.170 C 
HETATM   18  C   UNL     1     -46.267 -54.713  14.540  1.00  0.00     0.031 C 
HETATM   19  C   UNL     1     -44.899 -54.839  13.921  1.00  0.00     0.056 C 
ENDBRANCH   8  15
ENDBRANCH   5   6
ENDBRANCH   1   5
BRANCH   2  20
HETATM   20  C   UNL     1     -40.548 -47.917  12.747  1.00  0.00     0.069 A 
HETATM   21  C   UNL     1     -40.776 -46.979  11.719  1.00  0.00     0.102 A 
HETATM   22  C   UNL     1     -40.437 -45.630  11.935  1.00  0.00     0.039 A 
HETATM   23  C   UNL     1     -39.952 -45.203  13.171  1.00  0.00     0.003 A 
HETATM   24  C   UNL     1     -39.750 -46.125  14.190  1.00  0.00     0.002 A 
HETATM   25  C   UNL     1     -40.029 -47.475  13.974  1.00  0.00     0.032 A 
BRANCH  21  26
HETATM   26  O   UNL     1     -41.216 -47.454  10.486  1.00  0.00    -0.309 OA
BRANCH  26  27
HETATM   27  C   UNL     1     -42.494 -47.118  10.089  1.00  0.00     0.076 A 
HETATM   28  C   UNL     1     -43.565 -47.920  10.488  1.00  0.00     0.037 A 
HETATM   29  C   UNL     1     -44.855 -47.633  10.029  1.00  0.00     0.003 A 
HETATM   30  C   UNL     1     -45.071 -46.543   9.181  1.00  0.00     0.000 A 
HETATM   31  C   UNL     1     -44.006 -45.716   8.826  1.00  0.00     0.003 A 
HETATM   32  C   UNL     1     -42.722 -45.988   9.299  1.00  0.00     0.037 A 
ENDBRANCH  26  27
ENDBRANCH  21  26
ENDBRANCH   2  20
TORSDOF 6
ENDMDL
MODEL 7
REMARK VINA RESULT:      -6.9      2.456      4.603
REMARK  6 active torsions:
REMARK  status: ('A' for Active; 'I' for Inactive)
REMARK    1  A    between atoms: N_1  and  C_8 
REMARK    2  A    between atoms: N_2  and  C_7 
REMARK    3  A    between atoms: C_8  and  C_9 
REMARK       I    between atoms: C_9  and  N_10 
REMARK    4  A    between atoms: N_10  and  C_12 
REMARK    5  A    between atoms: C_13  and  O_15 
REMARK    6  A    between atoms: O_15  and  C_19 
ROOT
HETATM    1  C   UNL     1     -42.483 -54.376  15.450  1.00  0.00     0.240 C 
HETATM    2  N   UNL     1     -43.142 -53.655  14.460  1.00  0.00    -0.323 N 
HETATM    3  O   UNL     1     -42.939 -54.603  16.570  1.00  0.00    -0.271 OA
HETATM    4  H   UNL     1     -42.607 -53.337  13.656  1.00  0.00     0.169 HD
ENDROOT
BRANCH   1   5
HETATM    5  C   UNL     1     -41.058 -54.808  15.091  1.00  0.00     0.240 C 
BRANCH   5   6
HETATM    6  N   UNL     1     -40.026 -53.776  15.086  1.00  0.00    -0.255 N 
HETATM    7  C   UNL     1     -39.859 -53.058  13.908  1.00  0.00     0.334 C 
HETATM    8  N   UNL     1     -39.179 -51.844  14.015  1.00  0.00    -0.279 N 
HETATM    9  O   UNL     1     -40.325 -53.460  12.839  1.00  0.00    -0.246 OA
HETATM   10  C   UNL     1     -38.579 -51.447  15.194  1.00  0.00     0.146 C 
HETATM   11  C   UNL     1     -38.633 -52.204  16.283  1.00  0.00     0.200 C 
HETATM   12  C   UNL     1     -39.414 -53.455  16.292  1.00  0.00     0.292 C 
HETATM   13  F   UNL     1     -38.053 -51.823  17.445  1.00  0.00    -0.199 F 
HETATM   14  O   UNL     1     -39.540 -54.098  17.330  1.00  0.00    -0.264 OA
BRANCH   8  15
HETATM   15  C   UNL     1     -39.120 -51.017  12.813  1.00  0.00     0.232 C 
HETATM   16  O   UNL     1     -37.845 -51.093  12.143  1.00  0.00    -0.366 OA
HETATM   17  C   UNL     1     -37.662 -49.865  11.412  1.00  0.00     0.170 C 
HETATM   18  C   UNL     1     -38.786 -48.925  11.801  1.00  0.00     0.031 C 
HETATM   19  C   UNL     1     -39.302 -49.529  13.081  1.00  0.00     0.056 C 
ENDBRANCH   8  15
ENDBRANCH   5   6
ENDBRANCH   1   5
BRANCH   2  20
HETATM   20  C   UNL     1     -44.414 -53.056  14.648  1.00  0.00     0.069 A 
HETATM   21  C   UNL     1     -44.522 -51.683  14.956  1.00  0.00     0.102 A 
HETATM   22  C   UNL     1     -45.799 -51.126  15.156  1.00  0.00     0.039 A 
HETATM   23  C   UNL     1     -46.951 -51.892  14.981  1.00  0.00     0.003 A 
HETATM   24  C   UNL     1     -46.843 -53.238  14.654  1.00  0.00     0.002 A 
HETATM   25  C   UNL     1     -45.583 -53.819  14.506  1.00  0.00     0.032 A 
BRANCH  21  26
HETATM   26  O   UNL     1     -43.348 -50.967  15.170  1.00  0.00    -0.309 OA
BRANCH  26  27
HETATM   27  C   UNL     1     -43.113 -49.867  14.369  1.00  0.00     0.076 A 
HETATM   28  C   UNL     1     -42.955 -48.613  14.962  1.00  0.00     0.037 A 
HETATM   29  C   UNL     1     -42.792 -47.481  14.157  1.00  0.00     0.003 A 
HETATM   30  C   UNL     1     -42.780 -47.606  12.765  1.00  0.00     0.000 A 
HETATM   31  C   UNL     1     -42.888 -48.867  12.180  1.00  0.00     0.003 A 
HETATM   32  C   UNL     1     -43.030 -50.000  12.981  1.00  0.00     0.037 A 
ENDBRANCH  26  27
ENDBRANCH  21  26
ENDBRANCH   2  20
TORSDOF 6
ENDMDL
MODEL 8
REMARK VINA RESULT:      -6.9      2.924      7.909
REMARK  6 active torsions:
REMARK  status: ('A' for Active; 'I' for Inactive)
REMARK    1  A    between atoms: N_1  and  C_8 
REMARK    2  A    between atoms: N_2  and  C_7 
REMARK    3  A    between atoms: C_8  and  C_9 
REMARK       I    between atoms: C_9  and  N_10 
REMARK    4  A    between atoms: N_10  and  C_12 
REMARK    5  A    between atoms: C_13  and  O_15 
REMARK    6  A    between atoms: O_15  and  C_19 
ROOT
HETATM    1  C   UNL     1     -41.408 -51.235  11.996  1.00  0.00     0.240 C 
HETATM    2  N   UNL     1     -40.828 -50.404  11.043  1.00  0.00    -0.323 N 
HETATM    3  O   UNL     1     -41.992 -50.842  13.004  1.00  0.00    -0.271 OA
HETATM    4  H   UNL     1     -40.189 -50.815  10.368  1.00  0.00     0.169 HD
ENDROOT
BRANCH   1   5
HETATM    5  C   UNL     1     -41.187 -52.733  11.763  1.00  0.00     0.240 C 
BRANCH   5   6
HETATM    6  N   UNL     1     -41.377 -53.624  12.903  1.00  0.00    -0.255 N 
HETATM    7  C   UNL     1     -40.260 -53.891  13.686  1.00  0.00     0.334 C 
HETATM    8  N   UNL     1     -40.507 -54.397  14.963  1.00  0.00    -0.279 N 
HETATM    9  O   UNL     1     -39.120 -53.650  13.283  1.00  0.00    -0.246 OA
HETATM   10  C   UNL     1     -41.778 -54.750  15.373  1.00  0.00     0.146 C 
HETATM   11  C   UNL     1     -42.824 -54.613  14.567  1.00  0.00     0.200 C 
HETATM   12  C   UNL     1     -42.674 -53.994  13.237  1.00  0.00     0.292 C 
HETATM   13  F   UNL     1     -44.074 -54.953  14.959  1.00  0.00    -0.199 F 
HETATM   14  O   UNL     1     -43.661 -53.782  12.539  1.00  0.00    -0.264 OA
BRANCH   8  15
HETATM   15  C   UNL     1     -39.352 -54.548  15.844  1.00  0.00     0.232 C 
HETATM   16  O   UNL     1     -38.774 -55.868  15.787  1.00  0.00    -0.366 OA
HETATM   17  C   UNL     1     -38.115 -56.112  17.045  1.00  0.00     0.170 C 
HETATM   18  C   UNL     1     -38.465 -54.967  17.977  1.00  0.00     0.031 C 
HETATM   19  C   UNL     1     -39.675 -54.357  17.319  1.00  0.00     0.056 C 
ENDBRANCH   8  15
ENDBRANCH   5   6
ENDBRANCH   1   5
BRANCH   2  20
HETATM   20  C   UNL     1     -40.808 -48.989  11.151  1.00  0.00     0.069 A 
HETATM   21  C   UNL     1     -39.733 -48.334  11.789  1.00  0.00     0.102 A 
HETATM   22  C   UNL     1     -39.754 -46.932  11.897  1.00  0.00     0.039 A 
HETATM   23  C   UNL     1     -40.781 -46.184  11.320  1.00  0.00     0.003 A 
HETATM   24  C   UNL     1     -41.826 -46.830  10.672  1.00  0.00     0.002 A 
HETATM   25  C   UNL     1     -41.848 -48.224  10.604  1.00  0.00     0.032 A 
BRANCH  21  26
HETATM   26  O   UNL     1     -38.754 -49.119  12.393  1.00  0.00    -0.309 OA
BRANCH  26  27
HETATM   27  C   UNL     1     -38.515 -48.922  13.737  1.00  0.00     0.076 A 
HETATM   28  C   UNL     1     -37.398 -48.181  14.130  1.00  0.00     0.037 A 
HETATM   29  C   UNL     1     -37.103 -48.038  15.489  1.00  0.00     0.003 A 
HETATM   30  C   UNL     1     -37.927 -48.628  16.451  1.00  0.00     0.000 A 
HETATM   31  C   UNL     1     -39.068 -49.324  16.056  1.00  0.00     0.003 A 
HETATM   32  C   UNL     1     -39.376 -49.450  14.701  1.00  0.00     0.037 A 
ENDBRANCH  26  27
ENDBRANCH  21  26
ENDBRANCH   2  20
TORSDOF 6
ENDMDL
MODEL 9
REMARK VINA RESULT:      -6.8      3.437      7.797
REMARK  6 active torsions:
REMARK  status: ('A' for Active; 'I' for Inactive)
REMARK    1  A    between atoms: N_1  and  C_8 
REMARK    2  A    between atoms: N_2  and  C_7 
REMARK    3  A    between atoms: C_8  and  C_9 
REMARK       I    between atoms: C_9  and  N_10 
REMARK    4  A    between atoms: N_10  and  C_12 
REMARK    5  A    between atoms: C_13  and  O_15 
REMARK    6  A    between atoms: O_15  and  C_19 
ROOT
HETATM    1  C   UNL     1     -42.294 -51.701  12.583  1.00  0.00     0.240 C 
HETATM    2  N   UNL     1     -41.601 -50.592  13.060  1.00  0.00    -0.323 N 
HETATM    3  O   UNL     1     -41.773 -52.659  12.014  1.00  0.00    -0.271 OA
HETATM    4  H   UNL     1     -42.132 -49.765  13.316  1.00  0.00     0.169 HD
ENDROOT
BRANCH   1   5
HETATM    5  C   UNL     1     -43.817 -51.617  12.722  1.00  0.00     0.240 C 
BRANCH   5   6
HETATM    6  N   UNL     1     -44.449 -52.487  13.709  1.00  0.00    -0.255 N 
HETATM    7  C   UNL     1     -44.834 -51.902  14.909  1.00  0.00     0.334 C 
HETATM    8  N   UNL     1     -45.768 -52.609  15.669  1.00  0.00    -0.279 N 
HETATM    9  O   UNL     1     -44.402 -50.801  15.255  1.00  0.00    -0.246 OA
HETATM   10  C   UNL     1     -46.176 -53.881  15.322  1.00  0.00     0.146 C 
HETATM   11  C   UNL     1     -45.701 -54.486  14.239  1.00  0.00     0.200 C 
HETATM   12  C   UNL     1     -44.787 -53.779  13.322  1.00  0.00     0.292 C 
HETATM   13  F   UNL     1     -46.097 -55.731  13.887  1.00  0.00    -0.199 F 
HETATM   14  O   UNL     1     -44.431 -54.308  12.274  1.00  0.00    -0.264 OA
BRANCH   8  15
HETATM   15  C   UNL     1     -46.285 -51.940  16.860  1.00  0.00     0.232 C 
HETATM   16  O   UNL     1     -46.508 -52.848  17.959  1.00  0.00    -0.366 OA
HETATM   17  C   UNL     1     -47.536 -52.279  18.793  1.00  0.00     0.170 C 
HETATM   18  C   UNL     1     -48.094 -51.066  18.074  1.00  0.00     0.031 C 
HETATM   19  C   UNL     1     -47.641 -51.279  16.654  1.00  0.00     0.056 C 
ENDBRANCH   8  15
ENDBRANCH   5   6
ENDBRANCH   1   5
BRANCH   2  20
HETATM   20  C   UNL     1     -40.202 -50.422  12.903  1.00  0.00     0.069 A 
HETATM   21  C   UNL     1     -39.306 -50.914  13.876  1.00  0.00     0.102 A 
HETATM   22  C   UNL     1     -37.925 -50.709  13.700  1.00  0.00     0.039 A 
HETATM   23  C   UNL     1     -37.433 -50.098  12.547  1.00  0.00     0.003 A 
HETATM   24  C   UNL     1     -38.315 -49.635  11.579  1.00  0.00     0.002 A 
HETATM   25  C   UNL     1     -39.691 -49.781  11.765  1.00  0.00     0.032 A 
BRANCH  21  26
HETATM   26  O   UNL     1     -39.840 -51.473  15.033  1.00  0.00    -0.309 OA
BRANCH  26  27
HETATM   27  C   UNL     1     -39.403 -52.731  15.398  1.00  0.00     0.076 A 
HETATM   28  C   UNL     1     -39.467 -53.771  14.468  1.00  0.00     0.037 A 
HETATM   29  C   UNL     1     -39.098 -55.065  14.849  1.00  0.00     0.003 A 
HETATM   30  C   UNL     1     -38.658 -55.314  16.152  1.00  0.00     0.000 A 
HETATM   31  C   UNL     1     -38.548 -54.262  17.061  1.00  0.00     0.003 A 
HETATM   32  C   UNL     1     -38.896 -52.968  16.678  1.00  0.00     0.037 A 
ENDBRANCH  26  27
ENDBRANCH  21  26
ENDBRANCH   2  20
TORSDOF 6
ENDMDL
