MODEL 1
REMARK VINA RESULT:      -6.0      0.000      0.000
REMARK  3 active torsions:
REMARK  status: ('A' for Active; 'I' for Inactive)
REMARK    1  A    between atoms: O_1  and  C_2 
REMARK    2  A    between atoms: C_5  and  N_6 
REMARK       I    between atoms: N_6  and  C_7 
REMARK    3  A    between atoms: C_7  and  C_9 
ROOT
HETATM    1  C   UNL     1     -45.719 -48.538   7.520  1.00  0.00     0.154 A 
HETATM    2  C   UNL     1     -46.303 -48.132   8.701  1.00  0.00     0.061 A 
HETATM    3  C   UNL     1     -45.509 -47.464   9.633  1.00  0.00     0.054 A 
HETATM    4  C   UNL     1     -44.173 -47.225   9.339  1.00  0.00     0.122 A 
HETATM    5  N   UNL     1     -43.650 -47.645   8.173  1.00  0.00    -0.283 N 
ATOM      6  HN  UNL     1     -42.666 -47.468   7.970  1.00  0.00     0.188 HD
HETATM    7  N   UNL     1     -44.426 -48.311   7.253  1.00  0.00    -0.279 N 
ATOM      8  HN  UNL     1     -44.020 -48.630   6.373  1.00  0.00     0.189 HD
ENDROOT
BRANCH   4   9
HETATM    9  N   UNL     1     -43.396 -46.549  10.288  1.00  0.00    -0.310 N 
HETATM   10  C   UNL     1     -42.199 -47.016  10.803  1.00  0.00     0.254 C 
HETATM   11  O   UNL     1     -41.588 -48.012  10.426  1.00  0.00    -0.270 OA
HETATM   12  H   UNL     1     -43.745 -45.681  10.676  1.00  0.00     0.170 HD
BRANCH  10  13
HETATM   13  C   UNL     1     -41.628 -46.068  11.876  1.00  0.00     0.237 C 
HETATM   14  C   UNL     1     -42.314 -44.695  11.844  1.00  0.00     0.209 C 
HETATM   15  O   UNL     1     -41.854 -43.898  10.742  1.00  0.00    -0.386 OA
HETATM   16  C   UNL     1     -40.434 -43.750  10.785  1.00  0.00     0.193 C 
HETATM   17  C   UNL     1     -39.755 -45.115  10.765  1.00  0.00     0.195 C 
HETATM   18  O   UNL     1     -40.196 -45.950  11.848  1.00  0.00    -0.372 OA
ENDBRANCH  10  13
ENDBRANCH   4   9
BRANCH   1  19
HETATM   19  O   UNL     1     -46.422 -49.190   6.553  1.00  0.00    -0.345 OA
HETATM   20  H   UNL     1     -46.555 -48.585   5.810  1.00  0.00     0.219 HD
ENDBRANCH   1  19
TORSDOF 3
ENDMDL
MODEL 2
REMARK VINA RESULT:      -6.0      1.434      2.285
REMARK  3 active torsions:
REMARK  status: ('A' for Active; 'I' for Inactive)
REMARK    1  A    between atoms: O_1  and  C_2 
REMARK    2  A    between atoms: C_5  and  N_6 
REMARK       I    between atoms: N_6  and  C_7 
REMARK    3  A    between atoms: C_7  and  C_9 
ROOT
HETATM    1  C   UNL     1     -45.386 -48.110   8.082  1.00  0.00     0.154 A 
HETATM    2  C   UNL     1     -45.456 -47.723   9.403  1.00  0.00     0.061 A 
HETATM    3  C   UNL     1     -44.264 -47.444  10.071  1.00  0.00     0.054 A 
HETATM    4  C   UNL     1     -43.060 -47.556   9.387  1.00  0.00     0.122 A 
HETATM    5  N   UNL     1     -43.046 -47.942   8.099  1.00  0.00    -0.283 N 
ATOM      6  HN  UNL     1     -42.156 -48.026   7.608  1.00  0.00     0.188 HD
HETATM    7  N   UNL     1     -44.218 -48.225   7.436  1.00  0.00    -0.279 N 
ATOM      8  HN  UNL     1     -44.198 -48.521   6.460  1.00  0.00     0.189 HD
ENDROOT
BRANCH   4   9
HETATM    9  N   UNL     1     -41.877 -47.268  10.078  1.00  0.00    -0.310 N 
HETATM   10  C   UNL     1     -41.380 -45.993  10.291  1.00  0.00     0.254 C 
HETATM   11  O   UNL     1     -41.947 -44.940  10.018  1.00  0.00    -0.270 OA
HETATM   12  H   UNL     1     -41.304 -48.035  10.408  1.00  0.00     0.170 HD
BRANCH  10  13
HETATM   13  C   UNL     1     -40.026 -46.022  11.027  1.00  0.00     0.237 C 
HETATM   14  C   UNL     1     -39.742 -47.400  11.641  1.00  0.00     0.209 C 
HETATM   15  O   UNL     1     -40.515 -47.620  12.831  1.00  0.00    -0.386 OA
HETATM   16  C   UNL     1     -40.277 -46.584  13.785  1.00  0.00     0.193 C 
HETATM   17  C   UNL     1     -40.608 -45.221  13.188  1.00  0.00     0.195 C 
HETATM   18  O   UNL     1     -39.862 -44.965  11.988  1.00  0.00    -0.372 OA
ENDBRANCH  10  13
ENDBRANCH   4   9
BRANCH   1  19
HETATM   19  O   UNL     1     -46.501 -48.395   7.353  1.00  0.00    -0.345 OA
HETATM   20  H   UNL     1     -47.257 -48.443   7.956  1.00  0.00     0.219 HD
ENDBRANCH   1  19
TORSDOF 3
ENDMDL
MODEL 3
REMARK VINA RESULT:      -5.6      6.446      8.321
REMARK  3 active torsions:
REMARK  status: ('A' for Active; 'I' for Inactive)
REMARK    1  A    between atoms: O_1  and  C_2 
REMARK    2  A    between atoms: C_5  and  N_6 
REMARK       I    between atoms: N_6  and  C_7 
REMARK    3  A    between atoms: C_7  and  C_9 
ROOT
HETATM    1  C   UNL     1     -40.208 -51.411  12.076  1.00  0.00     0.154 A 
HETATM    2  C   UNL     1     -40.687 -50.756  13.190  1.00  0.00     0.061 A 
HETATM    3  C   UNL     1     -42.027 -50.938  13.535  1.00  0.00     0.054 A 
HETATM    4  C   UNL     1     -42.821 -51.770  12.756  1.00  0.00     0.122 A 
HETATM    5  N   UNL     1     -42.306 -52.382  11.676  1.00  0.00    -0.283 N 
ATOM      6  HN  UNL     1     -42.899 -52.987  11.108  1.00  0.00     0.188 HD
HETATM    7  N   UNL     1     -40.987 -52.202  11.326  1.00  0.00    -0.279 N 
ATOM      8  HN  UNL     1     -40.605 -52.667  10.502  1.00  0.00     0.189 HD
ENDROOT
BRANCH   4   9
HETATM    9  N   UNL     1     -44.161 -51.939  13.124  1.00  0.00    -0.310 N 
HETATM   10  C   UNL     1     -44.905 -53.083  12.887  1.00  0.00     0.254 C 
HETATM   11  O   UNL     1     -44.480 -54.142  12.436  1.00  0.00    -0.270 OA
HETATM   12  H   UNL     1     -44.653 -51.162  13.548  1.00  0.00     0.170 HD
BRANCH  10  13
HETATM   13  C   UNL     1     -46.365 -52.924  13.355  1.00  0.00     0.237 C 
HETATM   14  C   UNL     1     -46.675 -51.479  13.769  1.00  0.00     0.209 C 
HETATM   15  O   UNL     1     -46.116 -51.163  15.053  1.00  0.00    -0.386 OA
HETATM   16  C   UNL     1     -46.579 -52.081  16.044  1.00  0.00     0.193 C 
HETATM   17  C   UNL     1     -46.224 -53.512  15.655  1.00  0.00     0.195 C 
HETATM   18  O   UNL     1     -46.757 -53.866  14.368  1.00  0.00    -0.372 OA
ENDBRANCH  10  13
ENDBRANCH   4   9
BRANCH   1  19
HETATM   19  O   UNL     1     -38.912 -51.294  11.672  1.00  0.00    -0.345 OA
HETATM   20  H   UNL     1     -38.791 -51.829  10.874  1.00  0.00     0.219 HD
ENDBRANCH   1  19
TORSDOF 3
ENDMDL
MODEL 4
REMARK VINA RESULT:      -5.5      6.056      6.793
REMARK  3 active torsions:
REMARK  status: ('A' for Active; 'I' for Inactive)
REMARK    1  A    between atoms: O_1  and  C_2 
REMARK    2  A    between atoms: C_5  and  N_6 
REMARK       I    between atoms: N_6  and  C_7 
REMARK    3  A    between atoms: C_7  and  C_9 
ROOT
HETATM    1  C   UNL     1     -43.760 -53.933  12.848  1.00  0.00     0.154 A 
HETATM    2  C   UNL     1     -42.814 -54.180  13.820  1.00  0.00     0.061 A 
HETATM    3  C   UNL     1     -41.592 -53.513  13.735  1.00  0.00     0.054 A 
HETATM    4  C   UNL     1     -41.376 -52.625  12.689  1.00  0.00     0.122 A 
HETATM    5  N   UNL     1     -42.329 -52.423  11.763  1.00  0.00    -0.283 N 
ATOM      6  HN  UNL     1     -42.157 -51.772  10.996  1.00  0.00     0.188 HD
HETATM    7  N   UNL     1     -43.534 -53.083  11.837  1.00  0.00    -0.279 N 
ATOM      8  HN  UNL     1     -44.250 -52.926  11.128  1.00  0.00     0.189 HD
ENDROOT
BRANCH   4   9
HETATM    9  N   UNL     1     -40.143 -51.965  12.627  1.00  0.00    -0.310 N 
HETATM   10  C   UNL     1     -39.920 -50.774  11.956  1.00  0.00     0.254 C 
HETATM   11  O   UNL     1     -40.774 -50.069  11.428  1.00  0.00    -0.270 OA
HETATM   12  H   UNL     1     -39.333 -52.400  13.052  1.00  0.00     0.170 HD
BRANCH  10  13
HETATM   13  C   UNL     1     -38.440 -50.346  12.025  1.00  0.00     0.237 C 
HETATM   14  C   UNL     1     -37.645 -51.208  13.015  1.00  0.00     0.209 C 
HETATM   15  O   UNL     1     -37.924 -50.846  14.376  1.00  0.00    -0.386 OA
HETATM   16  C   UNL     1     -37.662 -49.459  14.593  1.00  0.00     0.193 C 
HETATM   17  C   UNL     1     -38.492 -48.604  13.642  1.00  0.00     0.195 C 
HETATM   18  O   UNL     1     -38.250 -48.942  12.266  1.00  0.00    -0.372 OA
ENDBRANCH  10  13
ENDBRANCH   4   9
BRANCH   1  19
HETATM   19  O   UNL     1     -44.981 -54.537  12.858  1.00  0.00    -0.345 OA
HETATM   20  H   UNL     1     -45.153 -54.893  11.974  1.00  0.00     0.219 HD
ENDBRANCH   1  19
TORSDOF 3
ENDMDL
MODEL 5
REMARK VINA RESULT:      -5.4      5.837      6.341
REMARK  3 active torsions:
REMARK  status: ('A' for Active; 'I' for Inactive)
REMARK    1  A    between atoms: O_1  and  C_2 
REMARK    2  A    between atoms: C_5  and  N_6 
REMARK       I    between atoms: N_6  and  C_7 
REMARK    3  A    between atoms: C_7  and  C_9 
ROOT
HETATM    1  C   UNL     1     -45.028 -52.665  12.565  1.00  0.00     0.154 A 
HETATM    2  C   UNL     1     -44.822 -51.760  13.585  1.00  0.00     0.061 A 
HETATM    3  C   UNL     1     -43.512 -51.366  13.860  1.00  0.00     0.054 A 
HETATM    4  C   UNL     1     -42.473 -51.888  13.101  1.00  0.00     0.122 A 
HETATM    5  N   UNL     1     -42.727 -52.772  12.120  1.00  0.00    -0.283 N 
ATOM      6  HN  UNL     1     -41.956 -53.152  11.572  1.00  0.00     0.188 HD
HETATM    7  N   UNL     1     -44.016 -53.169  11.847  1.00  0.00    -0.279 N 
ATOM      8  HN  UNL     1     -44.199 -53.844  11.104  1.00  0.00     0.189 HD
ENDROOT
BRANCH   4   9
HETATM    9  N   UNL     1     -41.167 -51.475  13.394  1.00  0.00    -0.310 N 
HETATM   10  C   UNL     1     -40.049 -52.289  13.322  1.00  0.00     0.254 C 
HETATM   11  O   UNL     1     -40.014 -53.436  12.886  1.00  0.00    -0.270 OA
HETATM   12  H   UNL     1     -41.017 -50.533  13.733  1.00  0.00     0.170 HD
BRANCH  10  13
HETATM   13  C   UNL     1     -38.773 -51.550  13.772  1.00  0.00     0.237 C 
HETATM   14  C   UNL     1     -39.096 -50.181  14.386  1.00  0.00     0.209 C 
HETATM   15  O   UNL     1     -39.430 -49.213  13.378  1.00  0.00    -0.386 OA
HETATM   16  C   UNL     1     -38.378 -49.100  12.419  1.00  0.00     0.193 C 
HETATM   17  C   UNL     1     -38.095 -50.452  11.775  1.00  0.00     0.195 C 
HETATM   18  O   UNL     1     -37.765 -51.454  12.751  1.00  0.00    -0.372 OA
ENDBRANCH  10  13
ENDBRANCH   4   9
BRANCH   1  19
HETATM   19  O   UNL     1     -46.274 -53.098  12.226  1.00  0.00    -0.345 OA
HETATM   20  H   UNL     1     -46.406 -52.940  11.280  1.00  0.00     0.219 HD
ENDBRANCH   1  19
TORSDOF 3
ENDMDL
MODEL 6
REMARK VINA RESULT:      -5.3      4.337      6.247
REMARK  3 active torsions:
REMARK  status: ('A' for Active; 'I' for Inactive)
REMARK    1  A    between atoms: O_1  and  C_2 
REMARK    2  A    between atoms: C_5  and  N_6 
REMARK       I    between atoms: N_6  and  C_7 
REMARK    3  A    between atoms: C_7  and  C_9 
ROOT
HETATM    1  C   UNL     1     -41.654 -46.096  10.554  1.00  0.00     0.154 A 
HETATM    2  C   UNL     1     -42.859 -46.657  10.921  1.00  0.00     0.061 A 
HETATM    3  C   UNL     1     -42.885 -48.018  11.226  1.00  0.00     0.054 A 
HETATM    4  C   UNL     1     -41.707 -48.751  11.158  1.00  0.00     0.122 A 
HETATM    5  N   UNL     1     -40.559 -48.157  10.790  1.00  0.00    -0.283 N 
ATOM      6  HN  UNL     1     -39.701 -48.706  10.739  1.00  0.00     0.188 HD
HETATM    7  N   UNL     1     -40.528 -46.816  10.482  1.00  0.00    -0.279 N 
ATOM      8  HN  UNL     1     -39.652 -46.374  10.199  1.00  0.00     0.189 HD
ENDROOT
BRANCH   4   9
HETATM    9  N   UNL     1     -41.757 -50.115  11.472  1.00  0.00    -0.310 N 
HETATM   10  C   UNL     1     -40.654 -50.895  11.774  1.00  0.00     0.254 C 
HETATM   11  O   UNL     1     -39.504 -50.495  11.928  1.00  0.00    -0.270 OA
HETATM   12  H   UNL     1     -42.649 -50.593  11.429  1.00  0.00     0.170 HD
BRANCH  10  13
HETATM   13  C   UNL     1     -41.041 -52.369  12.008  1.00  0.00     0.237 C 
HETATM   14  C   UNL     1     -42.499 -52.507  12.468  1.00  0.00     0.209 C 
HETATM   15  O   UNL     1     -42.658 -52.135  13.846  1.00  0.00    -0.386 OA
HETATM   16  C   UNL     1     -41.791 -52.906  14.679  1.00  0.00     0.193 C 
HETATM   17  C   UNL     1     -40.339 -52.727  14.251  1.00  0.00     0.195 C 
HETATM   18  O   UNL     1     -40.138 -53.079  12.872  1.00  0.00    -0.372 OA
ENDBRANCH  10  13
ENDBRANCH   4   9
BRANCH   1  19
HETATM   19  O   UNL     1     -41.538 -44.774  10.246  1.00  0.00    -0.345 OA
HETATM   20  H   UNL     1     -41.618 -44.261  11.063  1.00  0.00     0.219 HD
ENDBRANCH   1  19
TORSDOF 3
ENDMDL
MODEL 7
REMARK VINA RESULT:      -5.2      4.536      5.890
REMARK  3 active torsions:
REMARK  status: ('A' for Active; 'I' for Inactive)
REMARK    1  A    between atoms: O_1  and  C_2 
REMARK    2  A    between atoms: C_5  and  N_6 
REMARK       I    between atoms: N_6  and  C_7 
REMARK    3  A    between atoms: C_7  and  C_9 
ROOT
HETATM    1  C   UNL     1     -40.145 -53.434  12.875  1.00  0.00     0.154 A 
HETATM    2  C   UNL     1     -39.951 -52.304  13.641  1.00  0.00     0.061 A 
HETATM    3  C   UNL     1     -40.497 -51.102  13.189  1.00  0.00     0.054 A 
HETATM    4  C   UNL     1     -41.216 -51.087  12.001  1.00  0.00     0.122 A 
HETATM    5  N   UNL     1     -41.373 -52.217  11.289  1.00  0.00    -0.283 N 
ATOM      6  HN  UNL     1     -41.898 -52.194  10.416  1.00  0.00     0.188 HD
HETATM    7  N   UNL     1     -40.831 -53.405  11.725  1.00  0.00    -0.279 N 
ATOM      8  HN  UNL     1     -40.951 -54.256  11.176  1.00  0.00     0.189 HD
ENDROOT
BRANCH   4   9
HETATM    9  N   UNL     1     -41.757 -49.870  11.571  1.00  0.00    -0.310 N 
HETATM   10  C   UNL     1     -42.852 -49.247  12.145  1.00  0.00     0.254 C 
HETATM   11  O   UNL     1     -43.429 -49.597  13.170  1.00  0.00    -0.270 OA
HETATM   12  H   UNL     1     -41.365 -49.424  10.750  1.00  0.00     0.170 HD
BRANCH  10  13
HETATM   13  C   UNL     1     -43.236 -47.956  11.396  1.00  0.00     0.237 C 
HETATM   14  C   UNL     1     -42.364 -47.741  10.151  1.00  0.00     0.209 C 
HETATM   15  O   UNL     1     -41.049 -47.277  10.497  1.00  0.00    -0.386 OA
HETATM   16  C   UNL     1     -41.125 -46.080  11.271  1.00  0.00     0.193 C 
HETATM   17  C   UNL     1     -41.950 -46.311  12.533  1.00  0.00     0.195 C 
HETATM   18  O   UNL     1     -43.272 -46.786  12.230  1.00  0.00    -0.372 OA
ENDBRANCH  10  13
ENDBRANCH   4   9
BRANCH   1  19
HETATM   19  O   UNL     1     -39.652 -54.649  13.245  1.00  0.00    -0.345 OA
HETATM   20  H   UNL     1     -39.298 -55.088  12.457  1.00  0.00     0.219 HD
ENDBRANCH   1  19
TORSDOF 3
ENDMDL
MODEL 8
REMARK VINA RESULT:      -5.2      3.466      4.941
REMARK  3 active torsions:
REMARK  status: ('A' for Active; 'I' for Inactive)
REMARK    1  A    between atoms: O_1  and  C_2 
REMARK    2  A    between atoms: C_5  and  N_6 
REMARK       I    between atoms: N_6  and  C_7 
REMARK    3  A    between atoms: C_7  and  C_9 
ROOT
HETATM    1  C   UNL     1     -40.130 -51.341  12.188  1.00  0.00     0.154 A 
HETATM    2  C   UNL     1     -39.639 -50.400  13.067  1.00  0.00     0.061 A 
HETATM    3  C   UNL     1     -39.680 -49.058  12.686  1.00  0.00     0.054 A 
HETATM    4  C   UNL     1     -40.215 -48.721  11.449  1.00  0.00     0.122 A 
HETATM    5  N   UNL     1     -40.677 -49.678  10.626  1.00  0.00    -0.283 N 
ATOM      6  HN  UNL     1     -41.063 -49.419   9.718  1.00  0.00     0.188 HD
HETATM    7  N   UNL     1     -40.634 -51.003  10.994  1.00  0.00    -0.279 N 
ATOM      8  HN  UNL     1     -40.983 -51.724  10.361  1.00  0.00     0.189 HD
ENDROOT
BRANCH   4   9
HETATM    9  N   UNL     1     -40.248 -47.368  11.090  1.00  0.00    -0.310 N 
HETATM   10  C   UNL     1     -41.361 -46.711  10.592  1.00  0.00     0.254 C 
HETATM   11  O   UNL     1     -42.495 -47.172  10.505  1.00  0.00    -0.270 OA
HETATM   12  H   UNL     1     -39.392 -46.828  11.142  1.00  0.00     0.170 HD
BRANCH  10  13
HETATM   13  C   UNL     1     -41.048 -45.245  10.233  1.00  0.00     0.237 C 
HETATM   14  C   UNL     1     -39.651 -44.828  10.713  1.00  0.00     0.209 C 
HETATM   15  O   UNL     1     -39.624 -44.598  12.131  1.00  0.00    -0.386 OA
HETATM   16  C   UNL     1     -40.597 -43.621  12.502  1.00  0.00     0.193 C 
HETATM   17  C   UNL     1     -41.990 -44.063  12.068  1.00  0.00     0.195 C 
HETATM   18  O   UNL     1     -42.058 -44.314  10.655  1.00  0.00    -0.372 OA
ENDBRANCH  10  13
ENDBRANCH   4   9
BRANCH   1  19
HETATM   19  O   UNL     1     -40.135 -52.671  12.483  1.00  0.00    -0.345 OA
HETATM   20  H   UNL     1     -40.044 -53.168  11.657  1.00  0.00     0.219 HD
ENDBRANCH   1  19
TORSDOF 3
ENDMDL
MODEL 9
REMARK VINA RESULT:      -5.2      4.352      5.303
REMARK  3 active torsions:
REMARK  status: ('A' for Active; 'I' for Inactive)
REMARK    1  A    between atoms: O_1  and  C_2 
REMARK    2  A    between atoms: C_5  and  N_6 
REMARK       I    between atoms: N_6  and  C_7 
REMARK    3  A    between atoms: C_7  and  C_9 
ROOT
HETATM    1  C   UNL     1     -43.072 -47.624   9.786  1.00  0.00     0.154 A 
HETATM    2  C   UNL     1     -43.509 -47.660  11.093  1.00  0.00     0.061 A 
HETATM    3  C   UNL     1     -42.763 -48.393  12.017  1.00  0.00     0.054 A 
HETATM    4  C   UNL     1     -41.612 -49.046  11.594  1.00  0.00     0.122 A 
HETATM    5  N   UNL     1     -41.231 -48.983  10.306  1.00  0.00    -0.283 N 
ATOM      6  HN  UNL     1     -40.387 -49.470  10.006  1.00  0.00     0.188 HD
HETATM    7  N   UNL     1     -41.966 -48.268   9.389  1.00  0.00    -0.279 N 
ATOM      8  HN  UNL     1     -41.672 -48.228   8.413  1.00  0.00     0.189 HD
ENDROOT
BRANCH   4   9
HETATM    9  N   UNL     1     -40.878 -49.772  12.540  1.00  0.00    -0.310 N 
HETATM   10  C   UNL     1     -40.692 -51.144  12.508  1.00  0.00     0.254 C 
HETATM   11  O   UNL     1     -41.031 -51.900  11.604  1.00  0.00    -0.270 OA
HETATM   12  H   UNL     1     -40.492 -49.283  13.339  1.00  0.00     0.170 HD
BRANCH  10  13
HETATM   13  C   UNL     1     -39.892 -51.641  13.729  1.00  0.00     0.237 C 
HETATM   14  C   UNL     1     -39.791 -50.565  14.819  1.00  0.00     0.209 C 
HETATM   15  O   UNL     1     -38.838 -49.548  14.474  1.00  0.00    -0.386 OA
HETATM   16  C   UNL     1     -37.558 -50.124  14.216  1.00  0.00     0.193 C 
HETATM   17  C   UNL     1     -37.652 -51.156  13.097  1.00  0.00     0.195 C 
HETATM   18  O   UNL     1     -38.604 -52.189  13.398  1.00  0.00    -0.372 OA
ENDBRANCH  10  13
ENDBRANCH   4   9
BRANCH   1  19
HETATM   19  O   UNL     1     -43.736 -46.928   8.822  1.00  0.00    -0.345 OA
HETATM   20  H   UNL     1     -43.469 -47.272   7.957  1.00  0.00     0.219 HD
ENDBRANCH   1  19
TORSDOF 3
ENDMDL
