MODEL 1
REMARK VINA RESULT:      -6.5      0.000      0.000
REMARK  4 active torsions:
REMARK  status: ('A' for Active; 'I' for Inactive)
REMARK    1  A    between atoms: N_4  and  C_5 
REMARK    2  A    between atoms: C_5  and  C_6 
REMARK    3  A    between atoms: C_6  and  N_7 
REMARK       I    between atoms: N_7  and  C_8 
REMARK       I    between atoms: C_8  and  N_10 
REMARK    4  A    between atoms: N_10  and  C_11 
ROOT
HETATM    1  N   UNL     1     -40.837 -50.855  11.125  1.00  0.00    -0.341 N 
HETATM    2  C   UNL     1     -41.335 -51.616  12.167  1.00  0.00     0.321 C 
HETATM    3  O   UNL     1     -40.979 -51.462  13.327  1.00  0.00    -0.247 OA
HETATM    4  N   UNL     1     -42.312 -52.476  11.731  1.00  0.00    -0.295 N 
HETATM    5  H   UNL     1     -40.684 -51.379  10.272  1.00  0.00     0.164 HD
HETATM    6  H   UNL     1     -42.867 -52.127  10.965  1.00  0.00     0.172 HD
ENDROOT
BRANCH   1   7
HETATM    7  C   UNL     1     -39.892 -49.791  11.432  1.00  0.00     0.154 C 
BRANCH   7   8
HETATM    8  C   UNL     1     -40.555 -48.565  12.086  1.00  0.00     0.292 C 
BRANCH   8   9
HETATM    9  N   UNL     1     -40.674 -47.403  11.181  1.00  0.00     0.095 N 
HETATM   10  C   UNL     1     -40.385 -46.125  11.875  1.00  0.00     0.303 C 
HETATM   11  C   UNL     1     -40.554 -44.902  10.951  1.00  0.00     0.146 C 
HETATM   12  C   UNL     1     -39.471 -44.817   9.876  1.00  0.00     0.041 C 
HETATM   13  O   UNL     1     -41.870 -44.864  10.381  1.00  0.00    -0.378 OA
HETATM   14  C   UNL     1     -42.212 -46.083   9.701  1.00  0.00     0.146 C 
HETATM   15  C   UNL     1     -42.042 -47.312  10.627  1.00  0.00     0.303 C 
HETATM   16  C   UNL     1     -43.656 -45.939   9.233  1.00  0.00     0.041 C 
ENDBRANCH   8   9
ENDBRANCH   7   8
ENDBRANCH   1   7
BRANCH   4  17
HETATM   17  C   UNL     1     -43.072 -53.246  12.616  1.00  0.00     0.108 A 
HETATM   18  C   UNL     1     -44.455 -53.340  12.524  1.00  0.00     0.049 A 
HETATM   19  C   UNL     1     -45.128 -54.175  13.412  1.00  0.00     0.005 A 
HETATM   20  C   UNL     1     -44.399 -54.903  14.344  1.00  0.00     0.017 A 
HETATM   21  C   UNL     1     -43.025 -54.729  14.375  1.00  0.00     0.089 A 
HETATM   22  N   UNL     1     -42.351 -53.891  13.558  1.00  0.00    -0.352 N 
ATOM     23  HN  UNL     1     -41.345 -53.752  13.648  1.00  0.00     0.166 HD
ENDBRANCH   4  17
TORSDOF 4
ENDMDL
MODEL 2
REMARK VINA RESULT:      -6.4      1.893      7.940
REMARK  4 active torsions:
REMARK  status: ('A' for Active; 'I' for Inactive)
REMARK    1  A    between atoms: N_4  and  C_5 
REMARK    2  A    between atoms: C_5  and  C_6 
REMARK    3  A    between atoms: C_6  and  N_7 
REMARK       I    between atoms: N_7  and  C_8 
REMARK       I    between atoms: C_8  and  N_10 
REMARK    4  A    between atoms: N_10  and  C_11 
ROOT
HETATM    1  N   UNL     1     -40.190 -51.111  11.759  1.00  0.00    -0.341 N 
HETATM    2  C   UNL     1     -41.113 -50.083  11.704  1.00  0.00     0.321 C 
HETATM    3  O   UNL     1     -41.960 -49.906  12.569  1.00  0.00    -0.247 OA
HETATM    4  N   UNL     1     -40.888 -49.273  10.618  1.00  0.00    -0.295 N 
HETATM    5  H   UNL     1     -39.997 -51.537  10.862  1.00  0.00     0.164 HD
HETATM    6  H   UNL     1     -39.919 -49.183  10.355  1.00  0.00     0.172 HD
ENDROOT
BRANCH   1   7
HETATM    7  C   UNL     1     -40.194 -51.984  12.925  1.00  0.00     0.154 C 
BRANCH   7   8
HETATM    8  C   UNL     1     -40.982 -53.288  12.698  1.00  0.00     0.292 C 
BRANCH   8   9
HETATM    9  N   UNL     1     -41.926 -53.607  13.788  1.00  0.00     0.095 N 
HETATM   10  C   UNL     1     -41.383 -54.627  14.716  1.00  0.00     0.303 C 
HETATM   11  C   UNL     1     -42.382 -55.003  15.830  1.00  0.00     0.146 C 
HETATM   12  C   UNL     1     -42.591 -53.877  16.842  1.00  0.00     0.041 C 
HETATM   13  O   UNL     1     -43.626 -55.456  15.276  1.00  0.00    -0.378 OA
HETATM   14  C   UNL     1     -44.198 -54.510  14.358  1.00  0.00     0.146 C 
HETATM   15  C   UNL     1     -43.197 -54.131  13.241  1.00  0.00     0.303 C 
HETATM   16  C   UNL     1     -45.453 -55.155  13.781  1.00  0.00     0.041 C 
ENDBRANCH   8   9
ENDBRANCH   7   8
ENDBRANCH   1   7
BRANCH   4  17
HETATM   17  C   UNL     1     -41.594 -48.082  10.422  1.00  0.00     0.108 A 
HETATM   18  C   UNL     1     -41.055 -46.838  10.729  1.00  0.00     0.049 A 
HETATM   19  C   UNL     1     -41.805 -45.699  10.448  1.00  0.00     0.005 A 
HETATM   20  C   UNL     1     -43.053 -45.837   9.854  1.00  0.00     0.017 A 
HETATM   21  C   UNL     1     -43.516 -47.118   9.604  1.00  0.00     0.089 A 
HETATM   22  N   UNL     1     -42.831 -48.242   9.908  1.00  0.00    -0.352 N 
ATOM     23  HN  UNL     1     -43.230 -49.168   9.757  1.00  0.00     0.166 HD
ENDBRANCH   4  17
TORSDOF 4
ENDMDL
MODEL 3
REMARK VINA RESULT:      -6.3      1.892      7.518
REMARK  4 active torsions:
REMARK  status: ('A' for Active; 'I' for Inactive)
REMARK    1  A    between atoms: N_4  and  C_5 
REMARK    2  A    between atoms: C_5  and  C_6 
REMARK    3  A    between atoms: C_6  and  N_7 
REMARK       I    between atoms: N_7  and  C_8 
REMARK       I    between atoms: C_8  and  N_10 
REMARK    4  A    between atoms: N_10  and  C_11 
ROOT
HETATM    1  N   UNL     1     -40.281 -51.281  11.791  1.00  0.00    -0.341 N 
HETATM    2  C   UNL     1     -41.177 -50.230  11.721  1.00  0.00     0.321 C 
HETATM    3  O   UNL     1     -42.078 -50.073  12.533  1.00  0.00    -0.247 OA
HETATM    4  N   UNL     1     -40.863 -49.379  10.690  1.00  0.00    -0.295 N 
HETATM    5  H   UNL     1     -40.035 -51.671  10.891  1.00  0.00     0.164 HD
HETATM    6  H   UNL     1     -39.877 -49.299  10.498  1.00  0.00     0.172 HD
ENDROOT
BRANCH   1   7
HETATM    7  C   UNL     1     -40.382 -52.204  12.913  1.00  0.00     0.154 C 
BRANCH   7   8
HETATM    8  C   UNL     1     -41.137 -53.499  12.561  1.00  0.00     0.292 C 
BRANCH   8   9
HETATM    9  N   UNL     1     -42.366 -53.704  13.355  1.00  0.00     0.095 N 
HETATM   10  C   UNL     1     -43.585 -53.330  12.600  1.00  0.00     0.303 C 
HETATM   11  C   UNL     1     -44.871 -53.495  13.437  1.00  0.00     0.146 C 
HETATM   12  C   UNL     1     -45.220 -54.958  13.705  1.00  0.00     0.041 C 
HETATM   13  O   UNL     1     -44.794 -52.738  14.654  1.00  0.00    -0.378 OA
HETATM   14  C   UNL     1     -43.623 -53.051  15.426  1.00  0.00     0.146 C 
HETATM   15  C   UNL     1     -42.333 -52.888  14.587  1.00  0.00     0.303 C 
HETATM   16  C   UNL     1     -43.622 -52.116  16.630  1.00  0.00     0.041 C 
ENDBRANCH   8   9
ENDBRANCH   7   8
ENDBRANCH   1   7
BRANCH   4  17
HETATM   17  C   UNL     1     -41.530 -48.165  10.502  1.00  0.00     0.108 A 
HETATM   18  C   UNL     1     -40.942 -46.939  10.790  1.00  0.00     0.049 A 
HETATM   19  C   UNL     1     -41.657 -45.775  10.518  1.00  0.00     0.005 A 
HETATM   20  C   UNL     1     -42.921 -45.873   9.950  1.00  0.00     0.017 A 
HETATM   21  C   UNL     1     -43.434 -47.138   9.717  1.00  0.00     0.089 A 
HETATM   22  N   UNL     1     -42.783 -48.284  10.014  1.00  0.00    -0.352 N 
ATOM     23  HN  UNL     1     -43.218 -49.196   9.877  1.00  0.00     0.166 HD
ENDBRANCH   4  17
TORSDOF 4
ENDMDL
MODEL 4
REMARK VINA RESULT:      -6.3      1.498      2.023
REMARK  4 active torsions:
REMARK  status: ('A' for Active; 'I' for Inactive)
REMARK    1  A    between atoms: N_4  and  C_5 
REMARK    2  A    between atoms: C_5  and  C_6 
REMARK    3  A    between atoms: C_6  and  N_7 
REMARK       I    between atoms: N_7  and  C_8 
REMARK       I    between atoms: C_8  and  N_10 
REMARK    4  A    between atoms: N_10  and  C_11 
ROOT
HETATM    1  N   UNL     1     -40.984 -50.738  11.165  1.00  0.00    -0.341 N 
HETATM    2  C   UNL     1     -41.872 -51.221  12.108  1.00  0.00     0.321 C 
HETATM    3  O   UNL     1     -42.271 -50.546  13.048  1.00  0.00    -0.247 OA
HETATM    4  N   UNL     1     -42.285 -52.492  11.796  1.00  0.00    -0.295 N 
HETATM    5  H   UNL     1     -40.296 -51.416  10.864  1.00  0.00     0.164 HD
HETATM    6  H   UNL     1     -42.345 -52.683  10.808  1.00  0.00     0.172 HD
ENDROOT
BRANCH   1   7
HETATM    7  C   UNL     1     -40.552 -49.350  11.264  1.00  0.00     0.154 C 
BRANCH   7   8
HETATM    8  C   UNL     1     -41.457 -48.380  10.485  1.00  0.00     0.292 C 
BRANCH   8   9
HETATM    9  N   UNL     1     -41.406 -46.990  10.984  1.00  0.00     0.095 N 
HETATM   10  C   UNL     1     -40.034 -46.589  11.378  1.00  0.00     0.303 C 
HETATM   11  C   UNL     1     -39.979 -45.156  11.946  1.00  0.00     0.146 C 
HETATM   12  C   UNL     1     -40.222 -44.087  10.881  1.00  0.00     0.041 C 
HETATM   13  O   UNL     1     -40.872 -45.008  13.059  1.00  0.00    -0.378 OA
HETATM   14  C   UNL     1     -42.220 -45.392  12.740  1.00  0.00     0.146 C 
HETATM   15  C   UNL     1     -42.277 -46.829  12.169  1.00  0.00     0.303 C 
HETATM   16  C   UNL     1     -43.030 -45.275  14.026  1.00  0.00     0.041 C 
ENDBRANCH   8   9
ENDBRANCH   7   8
ENDBRANCH   1   7
BRANCH   4  17
HETATM   17  C   UNL     1     -43.293 -53.142  12.515  1.00  0.00     0.108 A 
HETATM   18  C   UNL     1     -43.021 -54.144  13.438  1.00  0.00     0.049 A 
HETATM   19  C   UNL     1     -44.080 -54.699  14.152  1.00  0.00     0.005 A 
HETATM   20  C   UNL     1     -45.367 -54.222  13.936  1.00  0.00     0.017 A 
HETATM   21  C   UNL     1     -45.544 -53.235  12.980  1.00  0.00     0.089 A 
HETATM   22  N   UNL     1     -44.542 -52.712  12.240  1.00  0.00    -0.352 N 
ATOM     23  HN  UNL     1     -44.721 -52.026  11.508  1.00  0.00     0.166 HD
ENDBRANCH   4  17
TORSDOF 4
ENDMDL
MODEL 5
REMARK VINA RESULT:      -6.2      1.602      2.391
REMARK  4 active torsions:
REMARK  status: ('A' for Active; 'I' for Inactive)
REMARK    1  A    between atoms: N_4  and  C_5 
REMARK    2  A    between atoms: C_5  and  C_6 
REMARK    3  A    between atoms: C_6  and  N_7 
REMARK       I    between atoms: N_7  and  C_8 
REMARK       I    between atoms: C_8  and  N_10 
REMARK    4  A    between atoms: N_10  and  C_11 
ROOT
HETATM    1  N   UNL     1     -40.982 -51.343  11.331  1.00  0.00    -0.341 N 
HETATM    2  C   UNL     1     -41.948 -51.692  12.257  1.00  0.00     0.321 C 
HETATM    3  O   UNL     1     -42.074 -51.116  13.330  1.00  0.00    -0.247 OA
HETATM    4  N   UNL     1     -42.762 -52.686  11.775  1.00  0.00    -0.295 N 
HETATM    5  H   UNL     1     -40.563 -52.134  10.859  1.00  0.00     0.164 HD
HETATM    6  H   UNL     1     -42.914 -52.657  10.779  1.00  0.00     0.172 HD
ENDROOT
BRANCH   1   7
HETATM    7  C   UNL     1     -40.119 -50.207  11.623  1.00  0.00     0.154 C 
BRANCH   7   8
HETATM    8  C   UNL     1     -40.690 -48.870  11.118  1.00  0.00     0.292 C 
BRANCH   8   9
HETATM    9  N   UNL     1     -40.100 -47.687  11.776  1.00  0.00     0.095 N 
HETATM   10  C   UNL     1     -40.612 -47.502  13.154  1.00  0.00     0.303 C 
HETATM   11  C   UNL     1     -40.038 -46.241  13.833  1.00  0.00     0.146 C 
HETATM   12  C   UNL     1     -38.553 -46.372  14.167  1.00  0.00     0.041 C 
HETATM   13  O   UNL     1     -40.303 -45.068  13.049  1.00  0.00    -0.378 OA
HETATM   14  C   UNL     1     -39.836 -45.192  11.695  1.00  0.00     0.146 C 
HETATM   15  C   UNL     1     -40.410 -46.457  11.014  1.00  0.00     0.303 C 
HETATM   16  C   UNL     1     -40.264 -43.926  10.961  1.00  0.00     0.041 C 
ENDBRANCH   8   9
ENDBRANCH   7   8
ENDBRANCH   1   7
BRANCH   4  17
HETATM   17  C   UNL     1     -43.903 -53.110  12.463  1.00  0.00     0.108 A 
HETATM   18  C   UNL     1     -44.015 -54.384  13.006  1.00  0.00     0.049 A 
HETATM   19  C   UNL     1     -45.164 -54.704  13.726  1.00  0.00     0.005 A 
HETATM   20  C   UNL     1     -46.148 -53.739  13.897  1.00  0.00     0.017 A 
HETATM   21  C   UNL     1     -45.958 -52.503  13.302  1.00  0.00     0.089 A 
HETATM   22  N   UNL     1     -44.877 -52.180  12.559  1.00  0.00    -0.352 N 
ATOM     23  HN  UNL     1     -44.800 -51.276  12.093  1.00  0.00     0.166 HD
ENDBRANCH   4  17
TORSDOF 4
ENDMDL
MODEL 6
REMARK VINA RESULT:      -6.0      1.908      8.453
REMARK  4 active torsions:
REMARK  status: ('A' for Active; 'I' for Inactive)
REMARK    1  A    between atoms: N_4  and  C_5 
REMARK    2  A    between atoms: C_5  and  C_6 
REMARK    3  A    between atoms: C_6  and  N_7 
REMARK       I    between atoms: N_7  and  C_8 
REMARK       I    between atoms: C_8  and  N_10 
REMARK    4  A    between atoms: N_10  and  C_11 
ROOT
HETATM    1  N   UNL     1     -40.765 -51.156  11.427  1.00  0.00    -0.341 N 
HETATM    2  C   UNL     1     -41.112 -49.826  11.575  1.00  0.00     0.321 C 
HETATM    3  O   UNL     1     -42.187 -49.470  12.038  1.00  0.00    -0.247 OA
HETATM    4  N   UNL     1     -40.076 -49.000  11.216  1.00  0.00    -0.295 N 
HETATM    5  H   UNL     1     -40.253 -51.354  10.577  1.00  0.00     0.164 HD
HETATM    6  H   UNL     1     -39.158 -49.373  11.403  1.00  0.00     0.172 HD
ENDROOT
BRANCH   1   7
HETATM    7  C   UNL     1     -41.698 -52.172  11.895  1.00  0.00     0.154 C 
BRANCH   7   8
HETATM    8  C   UNL     1     -41.353 -52.707  13.297  1.00  0.00     0.292 C 
BRANCH   8   9
HETATM    9  N   UNL     1     -42.316 -53.705  13.804  1.00  0.00     0.095 N 
HETATM   10  C   UNL     1     -43.576 -53.077  14.271  1.00  0.00     0.303 C 
HETATM   11  C   UNL     1     -44.569 -54.107  14.847  1.00  0.00     0.146 C 
HETATM   12  C   UNL     1     -45.164 -55.021  13.776  1.00  0.00     0.041 C 
HETATM   13  O   UNL     1     -43.971 -54.860  15.913  1.00  0.00    -0.378 OA
HETATM   14  C   UNL     1     -42.738 -55.485  15.523  1.00  0.00     0.146 C 
HETATM   15  C   UNL     1     -41.741 -54.454  14.943  1.00  0.00     0.303 C 
HETATM   16  C   UNL     1     -42.173 -56.164  16.765  1.00  0.00     0.041 C 
ENDBRANCH   8   9
ENDBRANCH   7   8
ENDBRANCH   1   7
BRANCH   4  17
HETATM   17  C   UNL     1     -40.126 -47.617  11.414  1.00  0.00     0.108 A 
HETATM   18  C   UNL     1     -39.530 -46.998  12.506  1.00  0.00     0.049 A 
HETATM   19  C   UNL     1     -39.579 -45.610  12.596  1.00  0.00     0.005 A 
HETATM   20  C   UNL     1     -40.200 -44.886  11.586  1.00  0.00     0.017 A 
HETATM   21  C   UNL     1     -40.785 -45.590  10.546  1.00  0.00     0.089 A 
HETATM   22  N   UNL     1     -40.794 -46.938  10.457  1.00  0.00    -0.352 N 
ATOM     23  HN  UNL     1     -41.282 -47.420   9.703  1.00  0.00     0.166 HD
ENDBRANCH   4  17
TORSDOF 4
ENDMDL
MODEL 7
REMARK VINA RESULT:      -6.0      2.065      3.264
REMARK  4 active torsions:
REMARK  status: ('A' for Active; 'I' for Inactive)
REMARK    1  A    between atoms: N_4  and  C_5 
REMARK    2  A    between atoms: C_5  and  C_6 
REMARK    3  A    between atoms: C_6  and  N_7 
REMARK       I    between atoms: N_7  and  C_8 
REMARK       I    between atoms: C_8  and  N_10 
REMARK    4  A    between atoms: N_10  and  C_11 
ROOT
HETATM    1  N   UNL     1     -41.180 -51.840  11.421  1.00  0.00    -0.341 N 
HETATM    2  C   UNL     1     -42.144 -52.094  12.379  1.00  0.00     0.321 C 
HETATM    3  O   UNL     1     -42.130 -51.572  13.486  1.00  0.00    -0.247 OA
HETATM    4  N   UNL     1     -43.124 -52.920  11.889  1.00  0.00    -0.295 N 
HETATM    5  H   UNL     1     -40.910 -52.654  10.885  1.00  0.00     0.164 HD
HETATM    6  H   UNL     1     -43.315 -52.808  10.906  1.00  0.00     0.172 HD
ENDROOT
BRANCH   1   7
HETATM    7  C   UNL     1     -40.138 -50.869  11.726  1.00  0.00     0.154 C 
BRANCH   7   8
HETATM    8  C   UNL     1     -40.477 -49.448  11.241  1.00  0.00     0.292 C 
BRANCH   8   9
HETATM    9  N   UNL     1     -40.294 -48.409  12.275  1.00  0.00     0.095 N 
HETATM   10  C   UNL     1     -40.367 -47.041  11.710  1.00  0.00     0.303 C 
HETATM   11  C   UNL     1     -40.129 -45.949  12.774  1.00  0.00     0.146 C 
HETATM   12  C   UNL     1     -41.279 -45.835  13.774  1.00  0.00     0.041 C 
HETATM   13  O   UNL     1     -38.869 -46.141  13.435  1.00  0.00    -0.378 OA
HETATM   14  C   UNL     1     -38.735 -47.456  13.996  1.00  0.00     0.146 C 
HETATM   15  C   UNL     1     -38.975 -48.552  12.931  1.00  0.00     0.303 C 
HETATM   16  C   UNL     1     -37.328 -47.549  14.577  1.00  0.00     0.041 C 
ENDBRANCH   8   9
ENDBRANCH   7   8
ENDBRANCH   1   7
BRANCH   4  17
HETATM   17  C   UNL     1     -44.284 -53.207  12.615  1.00  0.00     0.108 A 
HETATM   18  C   UNL     1     -44.502 -54.441  13.216  1.00  0.00     0.049 A 
HETATM   19  C   UNL     1     -45.659 -54.623  13.968  1.00  0.00     0.005 A 
HETATM   20  C   UNL     1     -46.546 -53.563  14.114  1.00  0.00     0.017 A 
HETATM   21  C   UNL     1     -46.256 -52.377  13.462  1.00  0.00     0.089 A 
HETATM   22  N   UNL     1     -45.166 -52.187  12.687  1.00  0.00    -0.352 N 
ATOM     23  HN  UNL     1     -45.016 -51.316  12.180  1.00  0.00     0.166 HD
ENDBRANCH   4  17
TORSDOF 4
ENDMDL
MODEL 8
REMARK VINA RESULT:      -5.9      2.132      2.927
REMARK  4 active torsions:
REMARK  status: ('A' for Active; 'I' for Inactive)
REMARK    1  A    between atoms: N_4  and  C_5 
REMARK    2  A    between atoms: C_5  and  C_6 
REMARK    3  A    between atoms: C_6  and  N_7 
REMARK       I    between atoms: N_7  and  C_8 
REMARK       I    between atoms: C_8  and  N_10 
REMARK    4  A    between atoms: N_10  and  C_11 
ROOT
HETATM    1  N   UNL     1     -40.912 -49.172  10.616  1.00  0.00    -0.341 N 
HETATM    2  C   UNL     1     -41.384 -50.026  11.596  1.00  0.00     0.321 C 
HETATM    3  O   UNL     1     -42.080 -49.644  12.527  1.00  0.00    -0.247 OA
HETATM    4  N   UNL     1     -41.038 -51.327  11.329  1.00  0.00    -0.295 N 
HETATM    5  H   UNL     1     -39.967 -49.376  10.316  1.00  0.00     0.164 HD
HETATM    6  H   UNL     1     -40.993 -51.556  10.348  1.00  0.00     0.172 HD
ENDROOT
BRANCH   1   7
HETATM    7  C   UNL     1     -41.306 -47.771  10.668  1.00  0.00     0.154 C 
BRANCH   7   8
HETATM    8  C   UNL     1     -40.151 -46.833  11.062  1.00  0.00     0.292 C 
BRANCH   8   9
HETATM    9  N   UNL     1     -40.560 -45.732  11.958  1.00  0.00     0.095 N 
HETATM   10  C   UNL     1     -39.491 -45.368  12.918  1.00  0.00     0.303 C 
HETATM   11  C   UNL     1     -39.926 -44.252  13.890  1.00  0.00     0.146 C 
HETATM   12  C   UNL     1     -40.075 -42.894  13.204  1.00  0.00     0.041 C 
HETATM   13  O   UNL     1     -41.119 -44.621  14.599  1.00  0.00    -0.378 OA
HETATM   14  C   UNL     1     -42.191 -44.994  13.718  1.00  0.00     0.146 C 
HETATM   15  C   UNL     1     -41.755 -46.113  12.742  1.00  0.00     0.303 C 
HETATM   16  C   UNL     1     -43.350 -45.448  14.598  1.00  0.00     0.041 C 
ENDBRANCH   8   9
ENDBRANCH   7   8
ENDBRANCH   1   7
BRANCH   4  17
HETATM   17  C   UNL     1     -41.522 -52.395  12.090  1.00  0.00     0.108 A 
HETATM   18  C   UNL     1     -40.690 -53.195  12.865  1.00  0.00     0.049 A 
HETATM   19  C   UNL     1     -41.263 -54.202  13.638  1.00  0.00     0.005 A 
HETATM   20  C   UNL     1     -42.643 -54.361  13.629  1.00  0.00     0.017 A 
HETATM   21  C   UNL     1     -43.389 -53.530  12.810  1.00  0.00     0.089 A 
HETATM   22  N   UNL     1     -42.857 -52.577  12.014  1.00  0.00    -0.352 N 
ATOM     23  HN  UNL     1     -43.437 -52.022  11.385  1.00  0.00     0.166 HD
ENDBRANCH   4  17
TORSDOF 4
ENDMDL
MODEL 9
REMARK VINA RESULT:      -5.6      1.997      2.989
REMARK  4 active torsions:
REMARK  status: ('A' for Active; 'I' for Inactive)
REMARK    1  A    between atoms: N_4  and  C_5 
REMARK    2  A    between atoms: C_5  and  C_6 
REMARK    3  A    between atoms: C_6  and  N_7 
REMARK       I    between atoms: N_7  and  C_8 
REMARK       I    between atoms: C_8  and  N_10 
REMARK    4  A    between atoms: N_10  and  C_11 
ROOT
HETATM    1  N   UNL     1     -41.920 -51.638  11.816  1.00  0.00    -0.341 N 
HETATM    2  C   UNL     1     -42.732 -52.123  12.824  1.00  0.00     0.321 C 
HETATM    3  O   UNL     1     -42.288 -52.583  13.868  1.00  0.00    -0.247 OA
HETATM    4  N   UNL     1     -44.059 -51.942  12.524  1.00  0.00    -0.295 N 
HETATM    5  H   UNL     1     -42.246 -51.860  10.884  1.00  0.00     0.164 HD
HETATM    6  H   UNL     1     -44.257 -51.114  11.983  1.00  0.00     0.172 HD
ENDROOT
BRANCH   1   7
HETATM    7  C   UNL     1     -40.480 -51.622  12.032  1.00  0.00     0.154 C 
BRANCH   7   8
HETATM    8  C   UNL     1     -39.871 -50.212  11.935  1.00  0.00     0.292 C 
BRANCH   8   9
HETATM    9  N   UNL     1     -40.869 -49.127  12.026  1.00  0.00     0.095 N 
HETATM   10  C   UNL     1     -41.119 -48.487  10.713  1.00  0.00     0.303 C 
HETATM   11  C   UNL     1     -42.124 -47.321  10.806  1.00  0.00     0.146 C 
HETATM   12  C   UNL     1     -43.550 -47.790  11.096  1.00  0.00     0.041 C 
HETATM   13  O   UNL     1     -41.687 -46.338  11.756  1.00  0.00    -0.378 OA
HETATM   14  C   UNL     1     -41.418 -46.902  13.050  1.00  0.00     0.146 C 
HETATM   15  C   UNL     1     -40.411 -48.073  12.958  1.00  0.00     0.303 C 
HETATM   16  C   UNL     1     -40.877 -45.775  13.922  1.00  0.00     0.041 C 
ENDBRANCH   8   9
ENDBRANCH   7   8
ENDBRANCH   1   7
BRANCH   4  17
HETATM   17  C   UNL     1     -45.073 -52.215  13.447  1.00  0.00     0.108 A 
HETATM   18  C   UNL     1     -45.872 -51.218  13.992  1.00  0.00     0.049 A 
HETATM   19  C   UNL     1     -46.897 -51.584  14.861  1.00  0.00     0.005 A 
HETATM   20  C   UNL     1     -47.103 -52.930  15.138  1.00  0.00     0.017 A 
HETATM   21  C   UNL     1     -46.242 -53.851  14.564  1.00  0.00     0.089 A 
HETATM   22  N   UNL     1     -45.211 -53.521  13.756  1.00  0.00    -0.352 N 
ATOM     23  HN  UNL     1     -44.568 -54.226  13.396  1.00  0.00     0.166 HD
ENDBRANCH   4  17
TORSDOF 4
ENDMDL
