MODEL 1
REMARK VINA RESULT:      -6.4      0.000      0.000
REMARK  5 active torsions:
REMARK  status: ('A' for Active; 'I' for Inactive)
REMARK    1  A    between atoms: N_2  and  C_4 
REMARK    2  A    between atoms: C_10  and  N_11 
REMARK       I    between atoms: N_11  and  C_12 
REMARK       I    between atoms: C_12  and  N_14 
REMARK    3  A    between atoms: N_14  and  C_15 
REMARK    4  A    between atoms: C_15  and  C_16 
REMARK    5  A    between atoms: C_16  and  C_17 
ROOT
HETATM    1  N   UNL     1     -41.201 -51.516  11.390  1.00  0.00    -0.306 N 
HETATM    2  C   UNL     1     -42.001 -52.058  12.376  1.00  0.00     0.320 C 
HETATM    3  O   UNL     1     -42.365 -51.467  13.387  1.00  0.00    -0.247 OA
HETATM    4  N   UNL     1     -42.354 -53.375  12.175  1.00  0.00    -0.343 N 
HETATM    5  H   UNL     1     -41.176 -51.992  10.491  1.00  0.00     0.170 HD
HETATM    6  H   UNL     1     -42.508 -53.675  11.222  1.00  0.00     0.164 HD
ENDROOT
BRANCH   1   7
HETATM    7  C   UNL     1     -40.604 -50.213  11.465  1.00  0.00     0.072 A 
HETATM    8  C   UNL     1     -39.280 -49.982  11.883  1.00  0.00     0.144 A 
HETATM    9  C   UNL     1     -38.786 -48.676  11.878  1.00  0.00     0.126 A 
HETATM   10  N   UNL     1     -39.509 -47.592  11.510  1.00  0.00    -0.373 N 
HETATM   11  C   UNL     1     -40.783 -47.820  11.145  1.00  0.00     0.090 A 
ATOM     12  HN  UNL     1     -39.110 -46.653  11.510  1.00  0.00     0.164 HD
HETATM   13  C   UNL     1     -41.358 -49.080  11.125  1.00  0.00     0.049 A 
BRANCH   8  14
HETATM   14  N   UNL     1     -38.372 -51.037  12.295  1.00  0.00    -0.112 N 
HETATM   15  O   UNL     1     -37.245 -51.073  11.778  1.00  0.00    -0.532 OA
HETATM   16  O   UNL     1     -38.767 -51.844  13.150  1.00  0.00    -0.532 OA
ENDBRANCH   8  14
ENDBRANCH   1   7
BRANCH   4  17
HETATM   17  C   UNL     1     -43.199 -53.963  13.210  1.00  0.00     0.128 C 
BRANCH  17  18
HETATM   18  C   UNL     1     -44.665 -54.175  12.839  1.00  0.00     0.053 C 
BRANCH  18  19
HETATM   19  C   UNL     1     -45.604 -53.306  13.613  1.00  0.00    -0.082 C 
HETATM   20  C   UNL     1     -46.224 -53.623  14.756  1.00  0.00    -0.024 C 
HETATM   21  C   UNL     1     -47.118 -52.524  15.222  1.00  0.00     0.027 C 
HETATM   22  C   UNL     1     -46.678 -51.338  14.367  1.00  0.00     0.008 C 
HETATM   23  C   UNL     1     -45.967 -51.928  13.151  1.00  0.00     0.034 C 
ENDBRANCH  18  19
ENDBRANCH  17  18
ENDBRANCH   4  17
TORSDOF 5
ENDMDL
MODEL 2
REMARK VINA RESULT:      -6.3      3.596      5.477
REMARK  5 active torsions:
REMARK  status: ('A' for Active; 'I' for Inactive)
REMARK    1  A    between atoms: N_2  and  C_4 
REMARK    2  A    between atoms: C_10  and  N_11 
REMARK       I    between atoms: N_11  and  C_12 
REMARK       I    between atoms: C_12  and  N_14 
REMARK    3  A    between atoms: N_14  and  C_15 
REMARK    4  A    between atoms: C_15  and  C_16 
REMARK    5  A    between atoms: C_16  and  C_17 
ROOT
HETATM    1  N   UNL     1     -41.598 -48.258   9.908  1.00  0.00    -0.306 N 
HETATM    2  C   UNL     1     -41.565 -49.102  10.999  1.00  0.00     0.320 C 
HETATM    3  O   UNL     1     -42.214 -48.945  12.027  1.00  0.00    -0.247 OA
HETATM    4  N   UNL     1     -40.692 -50.163  10.883  1.00  0.00    -0.343 N 
HETATM    5  H   UNL     1     -41.231 -48.613   9.027  1.00  0.00     0.170 HD
HETATM    6  H   UNL     1     -40.574 -50.570   9.965  1.00  0.00     0.164 HD
ENDROOT
BRANCH   1   7
HETATM    7  C   UNL     1     -42.326 -47.022   9.870  1.00  0.00     0.072 A 
HETATM    8  C   UNL     1     -43.438 -46.794   9.035  1.00  0.00     0.144 A 
HETATM    9  C   UNL     1     -44.100 -45.568   9.108  1.00  0.00     0.126 A 
HETATM   10  N   UNL     1     -43.732 -44.554   9.927  1.00  0.00    -0.373 N 
HETATM   11  C   UNL     1     -42.649 -44.769  10.695  1.00  0.00     0.090 A 
ATOM     12  HN  UNL     1     -44.248 -43.674   9.961  1.00  0.00     0.164 HD
HETATM   13  C   UNL     1     -41.928 -45.952  10.684  1.00  0.00     0.049 A 
BRANCH   8  14
HETATM   14  N   UNL     1     -43.965 -47.784   8.112  1.00  0.00    -0.112 N 
HETATM   15  O   UNL     1     -45.162 -48.096   8.212  1.00  0.00    -0.532 OA
HETATM   16  O   UNL     1     -43.195 -48.259   7.266  1.00  0.00    -0.532 OA
ENDBRANCH   8  14
ENDBRANCH   1   7
BRANCH   4  17
HETATM   17  C   UNL     1     -40.644 -51.065  12.030  1.00  0.00     0.128 C 
BRANCH  17  18
HETATM   18  C   UNL     1     -41.298 -52.431  11.836  1.00  0.00     0.053 C 
BRANCH  18  19
HETATM   19  C   UNL     1     -41.182 -53.320  13.033  1.00  0.00    -0.082 C 
HETATM   20  C   UNL     1     -40.076 -53.550  13.750  1.00  0.00    -0.024 C 
HETATM   21  C   UNL     1     -40.324 -54.524  14.852  1.00  0.00     0.027 C 
HETATM   22  C   UNL     1     -41.849 -54.586  14.917  1.00  0.00     0.008 C 
HETATM   23  C   UNL     1     -42.355 -54.086  13.565  1.00  0.00     0.034 C 
ENDBRANCH  18  19
ENDBRANCH  17  18
ENDBRANCH   4  17
TORSDOF 5
ENDMDL
MODEL 3
REMARK VINA RESULT:      -6.3      3.393      5.448
REMARK  5 active torsions:
REMARK  status: ('A' for Active; 'I' for Inactive)
REMARK    1  A    between atoms: N_2  and  C_4 
REMARK    2  A    between atoms: C_10  and  N_11 
REMARK       I    between atoms: N_11  and  C_12 
REMARK       I    between atoms: C_12  and  N_14 
REMARK    3  A    between atoms: N_14  and  C_15 
REMARK    4  A    between atoms: C_15  and  C_16 
REMARK    5  A    between atoms: C_16  and  C_17 
ROOT
HETATM    1  N   UNL     1     -40.757 -49.916  10.627  1.00  0.00    -0.306 N 
HETATM    2  C   UNL     1     -41.491 -48.768  10.846  1.00  0.00     0.320 C 
HETATM    3  O   UNL     1     -41.850 -48.364  11.946  1.00  0.00    -0.247 OA
HETATM    4  N   UNL     1     -41.851 -48.086   9.703  1.00  0.00    -0.343 N 
HETATM    5  H   UNL     1     -40.299 -50.016   9.724  1.00  0.00     0.170 HD
HETATM    6  H   UNL     1     -41.197 -48.090   8.933  1.00  0.00     0.164 HD
ENDROOT
BRANCH   1   7
HETATM    7  C   UNL     1     -40.397 -50.848  11.657  1.00  0.00     0.072 A 
HETATM    8  C   UNL     1     -39.209 -50.765  12.408  1.00  0.00     0.144 A 
HETATM    9  C   UNL     1     -38.978 -51.701  13.417  1.00  0.00     0.126 A 
HETATM   10  N   UNL     1     -39.822 -52.717  13.718  1.00  0.00    -0.373 N 
HETATM   11  C   UNL     1     -40.937 -52.807  12.973  1.00  0.00     0.090 A 
ATOM     12  HN  UNL     1     -39.624 -53.376  14.471  1.00  0.00     0.164 HD
HETATM   13  C   UNL     1     -41.246 -51.926  11.950  1.00  0.00     0.049 A 
BRANCH   8  14
HETATM   14  N   UNL     1     -38.209 -49.730  12.217  1.00  0.00    -0.112 N 
HETATM   15  O   UNL     1     -38.453 -48.594  12.653  1.00  0.00    -0.532 OA
HETATM   16  O   UNL     1     -37.159 -50.036  11.634  1.00  0.00    -0.532 OA
ENDBRANCH   8  14
ENDBRANCH   1   7
BRANCH   4  17
HETATM   17  C   UNL     1     -42.630 -46.869   9.917  1.00  0.00     0.128 C 
BRANCH  17  18
HETATM   18  C   UNL     1     -43.476 -46.398   8.737  1.00  0.00     0.053 C 
BRANCH  18  19
HETATM   19  C   UNL     1     -44.788 -47.108   8.627  1.00  0.00    -0.082 C 
HETATM   20  C   UNL     1     -45.001 -48.308   8.074  1.00  0.00    -0.024 C 
HETATM   21  C   UNL     1     -46.444 -48.683   8.109  1.00  0.00     0.027 C 
HETATM   22  C   UNL     1     -47.037 -47.676   9.092  1.00  0.00     0.008 C 
HETATM   23  C   UNL     1     -46.058 -46.506   9.148  1.00  0.00     0.034 C 
ENDBRANCH  18  19
ENDBRANCH  17  18
ENDBRANCH   4  17
TORSDOF 5
ENDMDL
MODEL 4
REMARK VINA RESULT:      -6.0      3.483      5.163
REMARK  5 active torsions:
REMARK  status: ('A' for Active; 'I' for Inactive)
REMARK    1  A    between atoms: N_2  and  C_4 
REMARK    2  A    between atoms: C_10  and  N_11 
REMARK       I    between atoms: N_11  and  C_12 
REMARK       I    between atoms: C_12  and  N_14 
REMARK    3  A    between atoms: N_14  and  C_15 
REMARK    4  A    between atoms: C_15  and  C_16 
REMARK    5  A    between atoms: C_16  and  C_17 
ROOT
HETATM    1  N   UNL     1     -41.636 -48.462   9.841  1.00  0.00    -0.306 N 
HETATM    2  C   UNL     1     -41.582 -49.273  10.957  1.00  0.00     0.320 C 
HETATM    3  O   UNL     1     -42.341 -49.196  11.917  1.00  0.00    -0.247 OA
HETATM    4  N   UNL     1     -40.554 -50.192  10.955  1.00  0.00    -0.343 N 
HETATM    5  H   UNL     1     -41.139 -48.774   9.010  1.00  0.00     0.170 HD
HETATM    6  H   UNL     1     -40.290 -50.592  10.065  1.00  0.00     0.164 HD
ENDROOT
BRANCH   1   7
HETATM    7  C   UNL     1     -42.533 -47.351   9.698  1.00  0.00     0.072 A 
HETATM    8  C   UNL     1     -42.203 -46.029  10.054  1.00  0.00     0.144 A 
HETATM    9  C   UNL     1     -43.137 -45.015   9.833  1.00  0.00     0.126 A 
HETATM   10  N   UNL     1     -44.369 -45.219   9.307  1.00  0.00    -0.373 N 
HETATM   11  C   UNL     1     -44.685 -46.489   9.002  1.00  0.00     0.090 A 
ATOM     12  HN  UNL     1     -45.021 -44.450   9.151  1.00  0.00     0.164 HD
HETATM   13  C   UNL     1     -43.825 -47.557   9.192  1.00  0.00     0.049 A 
BRANCH   8  14
HETATM   14  N   UNL     1     -40.921 -45.644  10.616  1.00  0.00    -0.112 N 
HETATM   15  O   UNL     1     -40.216 -44.851   9.974  1.00  0.00    -0.532 OA
HETATM   16  O   UNL     1     -40.601 -46.121  11.714  1.00  0.00    -0.532 OA
ENDBRANCH   8  14
ENDBRANCH   1   7
BRANCH   4  17
HETATM   17  C   UNL     1     -40.482 -51.056  12.129  1.00  0.00     0.128 C 
BRANCH  17  18
HETATM   18  C   UNL     1     -41.090 -52.448  11.976  1.00  0.00     0.053 C 
BRANCH  18  19
HETATM   19  C   UNL     1     -40.884 -53.321  13.172  1.00  0.00    -0.082 C 
HETATM   20  C   UNL     1     -39.757 -53.442  13.885  1.00  0.00    -0.024 C 
HETATM   21  C   UNL     1     -39.906 -54.435  14.987  1.00  0.00     0.027 C 
HETATM   22  C   UNL     1     -41.417 -54.645  15.058  1.00  0.00     0.008 C 
HETATM   23  C   UNL     1     -41.975 -54.196  13.709  1.00  0.00     0.034 C 
ENDBRANCH  18  19
ENDBRANCH  17  18
ENDBRANCH   4  17
TORSDOF 5
ENDMDL
MODEL 5
REMARK VINA RESULT:      -5.9      2.097      6.480
REMARK  5 active torsions:
REMARK  status: ('A' for Active; 'I' for Inactive)
REMARK    1  A    between atoms: N_2  and  C_4 
REMARK    2  A    between atoms: C_10  and  N_11 
REMARK       I    between atoms: N_11  and  C_12 
REMARK       I    between atoms: C_12  and  N_14 
REMARK    3  A    between atoms: N_14  and  C_15 
REMARK    4  A    between atoms: C_15  and  C_16 
REMARK    5  A    between atoms: C_16  and  C_17 
ROOT
HETATM    1  N   UNL     1     -41.953 -52.074  11.780  1.00  0.00    -0.306 N 
HETATM    2  C   UNL     1     -41.679 -50.768  12.133  1.00  0.00     0.320 C 
HETATM    3  O   UNL     1     -41.900 -50.278  13.235  1.00  0.00    -0.247 OA
HETATM    4  N   UNL     1     -41.155 -49.994  11.120  1.00  0.00    -0.343 N 
HETATM    5  H   UNL     1     -41.501 -52.441  10.946  1.00  0.00     0.170 HD
HETATM    6  H   UNL     1     -40.537 -50.446  10.461  1.00  0.00     0.164 HD
ENDROOT
BRANCH   1   7
HETATM    7  C   UNL     1     -42.628 -53.012  12.632  1.00  0.00     0.072 A 
HETATM    8  C   UNL     1     -41.992 -53.727  13.667  1.00  0.00     0.144 A 
HETATM    9  C   UNL     1     -42.753 -54.583  14.464  1.00  0.00     0.126 A 
HETATM   10  N   UNL     1     -44.081 -54.795  14.299  1.00  0.00    -0.373 N 
HETATM   11  C   UNL     1     -44.670 -54.134  13.288  1.00  0.00     0.090 A 
ATOM     12  HN  UNL     1     -44.605 -55.423  14.909  1.00  0.00     0.164 HD
HETATM   13  C   UNL     1     -43.993 -53.269  12.444  1.00  0.00     0.049 A 
BRANCH   8  14
HETATM   14  N   UNL     1     -40.580 -53.601  13.980  1.00  0.00    -0.112 N 
HETATM   15  O   UNL     1     -39.773 -53.572  13.038  1.00  0.00    -0.532 OA
HETATM   16  O   UNL     1     -40.255 -53.519  15.173  1.00  0.00    -0.532 OA
ENDBRANCH   8  14
ENDBRANCH   1   7
BRANCH   4  17
HETATM   17  C   UNL     1     -40.861 -48.609  11.476  1.00  0.00     0.128 C 
BRANCH  17  18
HETATM   18  C   UNL     1     -39.385 -48.218  11.484  1.00  0.00     0.053 C 
BRANCH  18  19
HETATM   19  C   UNL     1     -38.513 -49.206  12.191  1.00  0.00    -0.082 C 
HETATM   20  C   UNL     1     -38.467 -49.427  13.511  1.00  0.00    -0.024 C 
HETATM   21  C   UNL     1     -37.450 -50.460  13.862  1.00  0.00     0.027 C 
HETATM   22  C   UNL     1     -37.127 -51.096  12.512  1.00  0.00     0.008 C 
HETATM   23  C   UNL     1     -37.551 -50.084  11.450  1.00  0.00     0.034 C 
ENDBRANCH  18  19
ENDBRANCH  17  18
ENDBRANCH   4  17
TORSDOF 5
ENDMDL
MODEL 6
REMARK VINA RESULT:      -5.8      1.787      2.595
REMARK  5 active torsions:
REMARK  status: ('A' for Active; 'I' for Inactive)
REMARK    1  A    between atoms: N_2  and  C_4 
REMARK    2  A    between atoms: C_10  and  N_11 
REMARK       I    between atoms: N_11  and  C_12 
REMARK       I    between atoms: C_12  and  N_14 
REMARK    3  A    between atoms: N_14  and  C_15 
REMARK    4  A    between atoms: C_15  and  C_16 
REMARK    5  A    between atoms: C_16  and  C_17 
ROOT
HETATM    1  N   UNL     1     -41.140 -51.203  11.515  1.00  0.00    -0.306 N 
HETATM    2  C   UNL     1     -42.018 -51.870  12.345  1.00  0.00     0.320 C 
HETATM    3  O   UNL     1     -42.031 -51.782  13.568  1.00  0.00    -0.247 OA
HETATM    4  N   UNL     1     -42.896 -52.713  11.699  1.00  0.00    -0.343 N 
HETATM    5  H   UNL     1     -41.379 -51.144  10.528  1.00  0.00     0.170 HD
HETATM    6  H   UNL     1     -43.229 -52.429  10.788  1.00  0.00     0.164 HD
ENDROOT
BRANCH   1   7
HETATM    7  C   UNL     1     -40.055 -50.387  11.982  1.00  0.00     0.072 A 
HETATM    8  C   UNL     1     -40.074 -48.979  11.970  1.00  0.00     0.144 A 
HETATM    9  C   UNL     1     -38.981 -48.282  12.488  1.00  0.00     0.126 A 
HETATM   10  N   UNL     1     -37.873 -48.876  12.994  1.00  0.00    -0.373 N 
HETATM   11  C   UNL     1     -37.851 -50.219  12.969  1.00  0.00     0.090 A 
ATOM     12  HN  UNL     1     -37.097 -48.332  13.373  1.00  0.00     0.164 HD
HETATM   13  C   UNL     1     -38.887 -50.991  12.469  1.00  0.00     0.049 A 
BRANCH   8  14
HETATM   14  N   UNL     1     -41.191 -48.195  11.475  1.00  0.00    -0.112 N 
HETATM   15  O   UNL     1     -41.633 -48.456  10.346  1.00  0.00    -0.532 OA
HETATM   16  O   UNL     1     -41.652 -47.310  12.211  1.00  0.00    -0.532 OA
ENDBRANCH   8  14
ENDBRANCH   1   7
BRANCH   4  17
HETATM   17  C   UNL     1     -43.831 -53.428  12.563  1.00  0.00     0.128 C 
BRANCH  17  18
HETATM   18  C   UNL     1     -45.287 -52.973  12.497  1.00  0.00     0.053 C 
BRANCH  18  19
HETATM   19  C   UNL     1     -45.793 -52.413  13.789  1.00  0.00    -0.082 C 
HETATM   20  C   UNL     1     -45.365 -51.300  14.396  1.00  0.00    -0.024 C 
HETATM   21  C   UNL     1     -46.071 -51.071  15.689  1.00  0.00     0.027 C 
HETATM   22  C   UNL     1     -47.255 -52.033  15.609  1.00  0.00     0.008 C 
HETATM   23  C   UNL     1     -46.878 -53.088  14.571  1.00  0.00     0.034 C 
ENDBRANCH  18  19
ENDBRANCH  17  18
ENDBRANCH   4  17
TORSDOF 5
ENDMDL
MODEL 7
REMARK VINA RESULT:      -5.8      2.179      6.781
REMARK  5 active torsions:
REMARK  status: ('A' for Active; 'I' for Inactive)
REMARK    1  A    between atoms: N_2  and  C_4 
REMARK    2  A    between atoms: C_10  and  N_11 
REMARK       I    between atoms: N_11  and  C_12 
REMARK       I    between atoms: C_12  and  N_14 
REMARK    3  A    between atoms: N_14  and  C_15 
REMARK    4  A    between atoms: C_15  and  C_16 
REMARK    5  A    between atoms: C_16  and  C_17 
ROOT
HETATM    1  N   UNL     1     -41.885 -52.505  11.738  1.00  0.00    -0.306 N 
HETATM    2  C   UNL     1     -41.386 -51.259  12.062  1.00  0.00     0.320 C 
HETATM    3  O   UNL     1     -41.480 -50.732  13.165  1.00  0.00    -0.247 OA
HETATM    4  N   UNL     1     -40.782 -50.589  11.020  1.00  0.00    -0.343 N 
HETATM    5  H   UNL     1     -41.531 -52.946  10.892  1.00  0.00     0.170 HD
HETATM    6  H   UNL     1     -40.272 -51.141  10.345  1.00  0.00     0.164 HD
ENDROOT
BRANCH   1   7
HETATM    7  C   UNL     1     -42.671 -53.312  12.626  1.00  0.00     0.072 A 
HETATM    8  C   UNL     1     -42.137 -54.011  13.727  1.00  0.00     0.144 A 
HETATM    9  C   UNL     1     -42.999 -54.734  14.552  1.00  0.00     0.126 A 
HETATM   10  N   UNL     1     -44.336 -54.829  14.357  1.00  0.00    -0.373 N 
HETATM   11  C   UNL     1     -44.830 -54.187  13.284  1.00  0.00     0.090 A 
ATOM     12  HN  UNL     1     -44.936 -55.360  14.989  1.00  0.00     0.164 HD
HETATM   13  C   UNL     1     -44.049 -53.451  12.408  1.00  0.00     0.049 A 
BRANCH   8  14
HETATM   14  N   UNL     1     -40.729 -53.998  14.079  1.00  0.00    -0.112 N 
HETATM   15  O   UNL     1     -40.421 -53.706  15.245  1.00  0.00    -0.532 OA
HETATM   16  O   UNL     1     -39.906 -54.290  13.199  1.00  0.00    -0.532 OA
ENDBRANCH   8  14
ENDBRANCH   1   7
BRANCH   4  17
HETATM   17  C   UNL     1     -40.250 -49.269  11.347  1.00  0.00     0.128 C 
BRANCH  17  18
HETATM   18  C   UNL     1     -41.134 -48.080  10.977  1.00  0.00     0.053 C 
BRANCH  18  19
HETATM   19  C   UNL     1     -40.507 -46.757  11.282  1.00  0.00    -0.082 C 
HETATM   20  C   UNL     1     -40.504 -45.675  10.494  1.00  0.00    -0.024 C 
HETATM   21  C   UNL     1     -39.748 -44.546  11.108  1.00  0.00     0.027 C 
HETATM   22  C   UNL     1     -39.586 -44.991  12.560  1.00  0.00     0.008 C 
HETATM   23  C   UNL     1     -39.775 -46.507  12.566  1.00  0.00     0.034 C 
ENDBRANCH  18  19
ENDBRANCH  17  18
ENDBRANCH   4  17
TORSDOF 5
ENDMDL
MODEL 8
REMARK VINA RESULT:      -5.7      3.057      4.611
REMARK  5 active torsions:
REMARK  status: ('A' for Active; 'I' for Inactive)
REMARK    1  A    between atoms: N_2  and  C_4 
REMARK    2  A    between atoms: C_10  and  N_11 
REMARK       I    between atoms: N_11  and  C_12 
REMARK       I    between atoms: C_12  and  N_14 
REMARK    3  A    between atoms: N_14  and  C_15 
REMARK    4  A    between atoms: C_15  and  C_16 
REMARK    5  A    between atoms: C_16  and  C_17 
ROOT
HETATM    1  N   UNL     1     -40.947 -49.102  10.640  1.00  0.00    -0.306 N 
HETATM    2  C   UNL     1     -41.494 -49.993  11.541  1.00  0.00     0.320 C 
HETATM    3  O   UNL     1     -42.195 -49.681  12.498  1.00  0.00    -0.247 OA
HETATM    4  N   UNL     1     -41.162 -51.313  11.322  1.00  0.00    -0.343 N 
HETATM    5  H   UNL     1     -40.609 -49.475   9.756  1.00  0.00     0.170 HD
HETATM    6  H   UNL     1     -41.058 -51.614  10.363  1.00  0.00     0.164 HD
ENDROOT
BRANCH   1   7
HETATM    7  C   UNL     1     -41.046 -47.675  10.760  1.00  0.00     0.072 A 
HETATM    8  C   UNL     1     -42.141 -46.925  10.291  1.00  0.00     0.144 A 
HETATM    9  C   UNL     1     -42.155 -45.544  10.497  1.00  0.00     0.126 A 
HETATM   10  N   UNL     1     -41.161 -44.859  11.111  1.00  0.00    -0.373 N 
HETATM   11  C   UNL     1     -40.105 -45.580  11.525  1.00  0.00     0.090 A 
ATOM     12  HN  UNL     1     -41.211 -43.850  11.253  1.00  0.00     0.164 HD
HETATM   13  C   UNL     1     -40.004 -46.951  11.358  1.00  0.00     0.049 A 
BRANCH   8  14
HETATM   14  N   UNL     1     -43.290 -47.511   9.624  1.00  0.00    -0.112 N 
HETATM   15  O   UNL     1     -43.148 -47.910   8.458  1.00  0.00    -0.532 OA
HETATM   16  O   UNL     1     -44.352 -47.591  10.258  1.00  0.00    -0.532 OA
ENDBRANCH   8  14
ENDBRANCH   1   7
BRANCH   4  17
HETATM   17  C   UNL     1     -41.732 -52.268  12.268  1.00  0.00     0.128 C 
BRANCH  17  18
HETATM   18  C   UNL     1     -40.811 -53.403  12.711  1.00  0.00     0.053 C 
BRANCH  18  19
HETATM   19  C   UNL     1     -41.274 -54.091  13.956  1.00  0.00    -0.082 C 
HETATM   20  C   UNL     1     -42.519 -54.502  14.223  1.00  0.00    -0.024 C 
HETATM   21  C   UNL     1     -42.619 -55.113  15.580  1.00  0.00     0.027 C 
HETATM   22  C   UNL     1     -41.158 -55.332  15.966  1.00  0.00     0.008 C 
HETATM   23  C   UNL     1     -40.337 -54.391  15.086  1.00  0.00     0.034 C 
ENDBRANCH  18  19
ENDBRANCH  17  18
ENDBRANCH   4  17
TORSDOF 5
ENDMDL
MODEL 9
REMARK VINA RESULT:      -5.6      2.843      6.603
REMARK  5 active torsions:
REMARK  status: ('A' for Active; 'I' for Inactive)
REMARK    1  A    between atoms: N_2  and  C_4 
REMARK    2  A    between atoms: C_10  and  N_11 
REMARK       I    between atoms: N_11  and  C_12 
REMARK       I    between atoms: C_12  and  N_14 
REMARK    3  A    between atoms: N_14  and  C_15 
REMARK    4  A    between atoms: C_15  and  C_16 
REMARK    5  A    between atoms: C_16  and  C_17 
ROOT
HETATM    1  N   UNL     1     -40.802 -50.463  11.072  1.00  0.00    -0.306 N 
HETATM    2  C   UNL     1     -41.263 -49.191  11.343  1.00  0.00     0.320 C 
HETATM    3  O   UNL     1     -41.652 -48.804  12.440  1.00  0.00    -0.247 OA
HETATM    4  N   UNL     1     -41.304 -48.347  10.254  1.00  0.00    -0.343 N 
HETATM    5  H   UNL     1     -40.272 -50.598  10.215  1.00  0.00     0.170 HD
HETATM    6  H   UNL     1     -40.578 -48.449   9.559  1.00  0.00     0.164 HD
ENDROOT
BRANCH   1   7
HETATM    7  C   UNL     1     -40.808 -51.539  12.022  1.00  0.00     0.072 A 
HETATM    8  C   UNL     1     -39.739 -51.815  12.897  1.00  0.00     0.144 A 
HETATM    9  C   UNL     1     -39.866 -52.862  13.812  1.00  0.00     0.126 A 
HETATM   10  N   UNL     1     -40.957 -53.659  13.907  1.00  0.00    -0.373 N 
HETATM   11  C   UNL     1     -41.957 -53.408  13.045  1.00  0.00     0.090 A 
ATOM     12  HN  UNL     1     -41.018 -54.409  14.596  1.00  0.00     0.164 HD
HETATM   13  C   UNL     1     -41.916 -52.395  12.101  1.00  0.00     0.049 A 
BRANCH   8  14
HETATM   14  N   UNL     1     -38.508 -51.047  12.929  1.00  0.00    -0.112 N 
HETATM   15  O   UNL     1     -38.558 -49.881  13.352  1.00  0.00    -0.532 OA
HETATM   16  O   UNL     1     -37.468 -51.598  12.540  1.00  0.00    -0.532 OA
ENDBRANCH   8  14
ENDBRANCH   1   7
BRANCH   4  17
HETATM   17  C   UNL     1     -41.792 -46.997  10.524  1.00  0.00     0.128 C 
BRANCH  17  18
HETATM   18  C   UNL     1     -40.808 -45.862  10.250  1.00  0.00     0.053 C 
BRANCH  18  19
HETATM   19  C   UNL     1     -40.255 -45.243  11.494  1.00  0.00    -0.082 C 
HETATM   20  C   UNL     1     -39.683 -45.887  12.518  1.00  0.00    -0.024 C 
HETATM   21  C   UNL     1     -39.284 -44.950  13.607  1.00  0.00     0.027 C 
HETATM   22  C   UNL     1     -39.381 -43.582  12.934  1.00  0.00     0.008 C 
HETATM   23  C   UNL     1     -40.299 -43.763  11.727  1.00  0.00     0.034 C 
ENDBRANCH  18  19
ENDBRANCH  17  18
ENDBRANCH   4  17
TORSDOF 5
ENDMDL
