MODEL 1
REMARK VINA RESULT:      -6.2      0.000      0.000
REMARK  5 active torsions:
REMARK  status: ('A' for Active; 'I' for Inactive)
REMARK    1  A    between atoms: C_7  and  O_8 
REMARK    2  A    between atoms: O_8  and  C_9 
REMARK    3  A    between atoms: C_9  and  C_10 
REMARK    4  A    between atoms: C_10  and  N_11 
REMARK       I    between atoms: N_11  and  C_12 
REMARK       I    between atoms: C_12  and  N_14 
REMARK    5  A    between atoms: N_14  and  C_15 
ROOT
HETATM    1  N   UNL     1     -41.001 -51.523  13.109  1.00  0.00    -0.341 N 
HETATM    2  C   UNL     1     -39.792 -51.293  12.526  1.00  0.00     0.323 C 
HETATM    3  O   UNL     1     -38.805 -51.994  12.741  1.00  0.00    -0.247 OA
HETATM    4  N   UNL     1     -39.714 -50.256  11.647  1.00  0.00    -0.274 N 
HETATM    5  H   UNL     1     -41.801 -51.106  12.649  1.00  0.00     0.164 HD
HETATM    6  H   UNL     1     -38.862 -50.184  11.114  1.00  0.00     0.174 HD
ENDROOT
BRANCH   1   7
HETATM    7  C   UNL     1     -41.278 -52.703  13.897  1.00  0.00     0.150 C 
BRANCH   7   8
HETATM    8  C   UNL     1     -42.403 -53.534  13.276  1.00  0.00     0.188 C 
BRANCH   8   9
HETATM    9  O   UNL     1     -43.265 -52.696  12.487  1.00  0.00    -0.384 OA
BRANCH   9  10
HETATM   10  C   UNL     1     -44.647 -52.753  12.879  1.00  0.00     0.125 C 
HETATM   11  C   UNL     1     -45.223 -51.365  13.244  1.00  0.00     0.010 C 
HETATM   12  C   UNL     1     -44.347 -50.614  14.258  1.00  0.00     0.012 C 
HETATM   13  C   UNL     1     -46.671 -51.492  13.733  1.00  0.00     0.007 C 
HETATM   14  C   UNL     1     -46.817 -52.457  14.905  1.00  0.00     0.001 C 
HETATM   15  C   UNL     1     -46.212 -53.821  14.589  1.00  0.00     0.002 C 
HETATM   16  C   UNL     1     -44.779 -53.728  14.063  1.00  0.00     0.032 C 
ENDBRANCH   9  10
ENDBRANCH   8   9
ENDBRANCH   7   8
ENDBRANCH   1   7
BRANCH   4  17
HETATM   17  C   UNL     1     -40.688 -49.351  11.357  1.00  0.00     0.233 A 
HETATM   18  N   UNL     1     -41.146 -49.054  10.164  1.00  0.00    -0.323 N 
HETATM   19  C   UNL     1     -42.154 -48.145  10.408  1.00  0.00     0.038 A 
ATOM     20  HN  UNL     1     -40.829 -49.413   9.263  1.00  0.00     0.169 HD
HETATM   21  C   UNL     1     -43.007 -47.623   9.323  1.00  0.00     0.071 C 
HETATM   22  C   UNL     1     -42.207 -47.868  11.757  1.00  0.00     0.075 A 
HETATM   23  C   UNL     1     -43.004 -46.977  12.616  1.00  0.00     0.079 C 
HETATM   24  O   UNL     1     -41.285 -48.657  12.374  1.00  0.00    -0.282 OA
ENDBRANCH   4  17
TORSDOF 5
ENDMDL
MODEL 2
REMARK VINA RESULT:      -6.2      2.146      3.333
REMARK  5 active torsions:
REMARK  status: ('A' for Active; 'I' for Inactive)
REMARK    1  A    between atoms: C_7  and  O_8 
REMARK    2  A    between atoms: O_8  and  C_9 
REMARK    3  A    between atoms: C_9  and  C_10 
REMARK    4  A    between atoms: C_10  and  N_11 
REMARK       I    between atoms: N_11  and  C_12 
REMARK       I    between atoms: C_12  and  N_14 
REMARK    5  A    between atoms: N_14  and  C_15 
ROOT
HETATM    1  N   UNL     1     -42.198 -49.332  11.189  1.00  0.00    -0.341 N 
HETATM    2  C   UNL     1     -41.512 -48.214  10.820  1.00  0.00     0.323 C 
HETATM    3  O   UNL     1     -40.442 -47.890  11.333  1.00  0.00    -0.247 OA
HETATM    4  N   UNL     1     -42.041 -47.465   9.815  1.00  0.00    -0.274 N 
HETATM    5  H   UNL     1     -42.878 -49.674  10.521  1.00  0.00     0.164 HD
HETATM    6  H   UNL     1     -41.458 -46.727   9.450  1.00  0.00     0.174 HD
ENDROOT
BRANCH   1   7
HETATM    7  C   UNL     1     -41.655 -50.321  12.092  1.00  0.00     0.150 C 
BRANCH   7   8
HETATM    8  C   UNL     1     -42.602 -50.582  13.264  1.00  0.00     0.188 C 
BRANCH   8   9
HETATM    9  O   UNL     1     -43.725 -51.371  12.833  1.00  0.00    -0.384 OA
BRANCH   9  10
HETATM   10  C   UNL     1     -44.536 -51.866  13.912  1.00  0.00     0.125 C 
HETATM   11  C   UNL     1     -45.841 -52.535  13.422  1.00  0.00     0.010 C 
HETATM   12  C   UNL     1     -46.626 -51.646  12.447  1.00  0.00     0.012 C 
HETATM   13  C   UNL     1     -46.705 -52.971  14.612  1.00  0.00     0.007 C 
HETATM   14  C   UNL     1     -47.018 -51.823  15.566  1.00  0.00     0.001 C 
HETATM   15  C   UNL     1     -45.749 -51.113  16.028  1.00  0.00     0.002 C 
HETATM   16  C   UNL     1     -44.845 -50.697  14.865  1.00  0.00     0.032 C 
ENDBRANCH   9  10
ENDBRANCH   8   9
ENDBRANCH   7   8
ENDBRANCH   1   7
BRANCH   4  17
HETATM   17  C   UNL     1     -43.240 -47.648   9.198  1.00  0.00     0.233 A 
HETATM   18  N   UNL     1     -43.441 -48.240   8.044  1.00  0.00    -0.323 N 
HETATM   19  C   UNL     1     -44.812 -48.229   7.895  1.00  0.00     0.038 A 
ATOM     20  HN  UNL     1     -42.743 -48.621   7.405  1.00  0.00     0.169 HD
HETATM   21  C   UNL     1     -45.474 -48.895   6.757  1.00  0.00     0.071 C 
HETATM   22  C   UNL     1     -45.383 -47.546   8.947  1.00  0.00     0.075 A 
HETATM   23  C   UNL     1     -46.752 -47.161   9.330  1.00  0.00     0.079 C 
HETATM   24  O   UNL     1     -44.381 -47.192   9.798  1.00  0.00    -0.282 OA
ENDBRANCH   4  17
TORSDOF 5
ENDMDL
MODEL 3
REMARK VINA RESULT:      -6.2      1.793      2.669
REMARK  5 active torsions:
REMARK  status: ('A' for Active; 'I' for Inactive)
REMARK    1  A    between atoms: C_7  and  O_8 
REMARK    2  A    between atoms: O_8  and  C_9 
REMARK    3  A    between atoms: C_9  and  C_10 
REMARK    4  A    between atoms: C_10  and  N_11 
REMARK       I    between atoms: N_11  and  C_12 
REMARK       I    between atoms: C_12  and  N_14 
REMARK    5  A    between atoms: N_14  and  C_15 
ROOT
HETATM    1  N   UNL     1     -42.004 -50.168  11.794  1.00  0.00    -0.341 N 
HETATM    2  C   UNL     1     -41.684 -49.018  12.451  1.00  0.00     0.323 C 
HETATM    3  O   UNL     1     -41.000 -49.004  13.473  1.00  0.00    -0.247 OA
HETATM    4  N   UNL     1     -42.127 -47.851  11.910  1.00  0.00    -0.274 N 
HETATM    5  H   UNL     1     -42.291 -50.061  10.828  1.00  0.00     0.164 HD
HETATM    6  H   UNL     1     -41.765 -47.002  12.317  1.00  0.00     0.174 HD
ENDROOT
BRANCH   1   7
HETATM    7  C   UNL     1     -41.434 -51.451  12.138  1.00  0.00     0.150 C 
BRANCH   7   8
HETATM    8  C   UNL     1     -42.516 -52.441  12.572  1.00  0.00     0.188 C 
BRANCH   8   9
HETATM    9  O   UNL     1     -43.787 -51.776  12.678  1.00  0.00    -0.384 OA
BRANCH   9  10
HETATM   10  C   UNL     1     -44.878 -52.656  12.998  1.00  0.00     0.125 C 
HETATM   11  C   UNL     1     -45.771 -52.114  14.138  1.00  0.00     0.010 C 
HETATM   12  C   UNL     1     -44.959 -51.702  15.373  1.00  0.00     0.012 C 
HETATM   13  C   UNL     1     -46.868 -53.127  14.493  1.00  0.00     0.007 C 
HETATM   14  C   UNL     1     -46.310 -54.498  14.857  1.00  0.00     0.001 C 
HETATM   15  C   UNL     1     -45.385 -55.036  13.769  1.00  0.00     0.002 C 
HETATM   16  C   UNL     1     -44.301 -54.036  13.364  1.00  0.00     0.032 C 
ENDBRANCH   9  10
ENDBRANCH   8   9
ENDBRANCH   7   8
ENDBRANCH   1   7
BRANCH   4  17
HETATM   17  C   UNL     1     -42.946 -47.703  10.833  1.00  0.00     0.233 A 
HETATM   18  N   UNL     1     -44.188 -47.280  10.850  1.00  0.00    -0.323 N 
HETATM   19  C   UNL     1     -44.550 -47.247   9.520  1.00  0.00     0.038 A 
ATOM     20  HN  UNL     1     -44.755 -47.032  11.662  1.00  0.00     0.169 HD
HETATM   21  C   UNL     1     -45.860 -46.726   9.085  1.00  0.00     0.071 C 
HETATM   22  C   UNL     1     -43.517 -47.737   8.750  1.00  0.00     0.075 A 
HETATM   23  C   UNL     1     -43.306 -47.995   7.316  1.00  0.00     0.079 C 
HETATM   24  O   UNL     1     -42.477 -48.009   9.585  1.00  0.00    -0.282 OA
ENDBRANCH   4  17
TORSDOF 5
ENDMDL
MODEL 4
REMARK VINA RESULT:      -6.1      0.808      1.600
REMARK  5 active torsions:
REMARK  status: ('A' for Active; 'I' for Inactive)
REMARK    1  A    between atoms: C_7  and  O_8 
REMARK    2  A    between atoms: O_8  and  C_9 
REMARK    3  A    between atoms: C_9  and  C_10 
REMARK    4  A    between atoms: C_10  and  N_11 
REMARK       I    between atoms: N_11  and  C_12 
REMARK       I    between atoms: C_12  and  N_14 
REMARK    5  A    between atoms: N_14  and  C_15 
ROOT
HETATM    1  N   UNL     1     -41.218 -50.921  12.875  1.00  0.00    -0.341 N 
HETATM    2  C   UNL     1     -40.063 -50.864  12.156  1.00  0.00     0.323 C 
HETATM    3  O   UNL     1     -39.135 -51.654  12.322  1.00  0.00    -0.247 OA
HETATM    4  N   UNL     1     -39.977 -49.903  11.195  1.00  0.00    -0.274 N 
HETATM    5  H   UNL     1     -42.017 -50.450  12.468  1.00  0.00     0.164 HD
HETATM    6  H   UNL     1     -39.186 -49.961  10.573  1.00  0.00     0.174 HD
ENDROOT
BRANCH   1   7
HETATM    7  C   UNL     1     -41.526 -52.008  13.777  1.00  0.00     0.150 C 
BRANCH   7   8
HETATM    8  C   UNL     1     -42.179 -53.176  13.036  1.00  0.00     0.188 C 
BRANCH   8   9
HETATM    9  O   UNL     1     -43.516 -52.829  12.638  1.00  0.00    -0.384 OA
BRANCH   9  10
HETATM   10  C   UNL     1     -44.382 -52.499  13.738  1.00  0.00     0.125 C 
HETATM   11  C   UNL     1     -44.806 -53.737  14.560  1.00  0.00     0.010 C 
HETATM   12  C   UNL     1     -45.368 -54.862  13.678  1.00  0.00     0.012 C 
HETATM   13  C   UNL     1     -45.791 -53.340  15.667  1.00  0.00     0.007 C 
HETATM   14  C   UNL     1     -47.016 -52.607  15.132  1.00  0.00     0.001 C 
HETATM   15  C   UNL     1     -46.625 -51.407  14.276  1.00  0.00     0.002 C 
HETATM   16  C   UNL     1     -45.615 -51.761  13.184  1.00  0.00     0.032 C 
ENDBRANCH   9  10
ENDBRANCH   8   9
ENDBRANCH   7   8
ENDBRANCH   1   7
BRANCH   4  17
HETATM   17  C   UNL     1     -40.879 -48.918  10.936  1.00  0.00     0.233 A 
HETATM   18  N   UNL     1     -41.522 -48.727   9.809  1.00  0.00    -0.323 N 
HETATM   19  C   UNL     1     -42.353 -47.658  10.074  1.00  0.00     0.038 A 
ATOM     20  HN  UNL     1     -41.429 -49.248   8.937  1.00  0.00     0.169 HD
HETATM   21  C   UNL     1     -43.336 -47.175   9.085  1.00  0.00     0.071 C 
HETATM   22  C   UNL     1     -42.112 -47.193  11.349  1.00  0.00     0.075 A 
HETATM   23  C   UNL     1     -42.621 -46.088  12.178  1.00  0.00     0.079 C 
HETATM   24  O   UNL     1     -41.184 -48.012  11.915  1.00  0.00    -0.282 OA
ENDBRANCH   4  17
TORSDOF 5
ENDMDL
MODEL 5
REMARK VINA RESULT:      -5.7      1.745      3.057
REMARK  5 active torsions:
REMARK  status: ('A' for Active; 'I' for Inactive)
REMARK    1  A    between atoms: C_7  and  O_8 
REMARK    2  A    between atoms: O_8  and  C_9 
REMARK    3  A    between atoms: C_9  and  C_10 
REMARK    4  A    between atoms: C_10  and  N_11 
REMARK       I    between atoms: N_11  and  C_12 
REMARK       I    between atoms: C_12  and  N_14 
REMARK    5  A    between atoms: N_14  and  C_15 
ROOT
HETATM    1  N   UNL     1     -40.886 -52.930  14.234  1.00  0.00    -0.341 N 
HETATM    2  C   UNL     1     -41.375 -53.503  13.099  1.00  0.00     0.323 C 
HETATM    3  O   UNL     1     -41.846 -54.638  13.075  1.00  0.00    -0.247 OA
HETATM    4  N   UNL     1     -41.360 -52.747  11.967  1.00  0.00    -0.274 N 
HETATM    5  H   UNL     1     -40.814 -51.920  14.225  1.00  0.00     0.164 HD
HETATM    6  H   UNL     1     -41.854 -53.120  11.172  1.00  0.00     0.174 HD
ENDROOT
BRANCH   1   7
HETATM    7  C   UNL     1     -41.027 -53.535  15.539  1.00  0.00     0.150 C 
BRANCH   7   8
HETATM    8  C   UNL     1     -42.286 -53.034  16.250  1.00  0.00     0.188 C 
BRANCH   8   9
HETATM    9  O   UNL     1     -43.402 -53.889  15.950  1.00  0.00    -0.384 OA
BRANCH   9  10
HETATM   10  C   UNL     1     -44.624 -53.179  15.687  1.00  0.00     0.125 C 
HETATM   11  C   UNL     1     -45.719 -54.078  15.069  1.00  0.00     0.010 C 
HETATM   12  C   UNL     1     -45.214 -54.864  13.851  1.00  0.00     0.012 C 
HETATM   13  C   UNL     1     -46.970 -53.255  14.734  1.00  0.00     0.007 C 
HETATM   14  C   UNL     1     -46.670 -52.073  13.819  1.00  0.00     0.001 C 
HETATM   15  C   UNL     1     -45.557 -51.194  14.382  1.00  0.00     0.002 C 
HETATM   16  C   UNL     1     -44.307 -51.989  14.762  1.00  0.00     0.032 C 
ENDBRANCH   9  10
ENDBRANCH   8   9
ENDBRANCH   7   8
ENDBRANCH   1   7
BRANCH   4  17
HETATM   17  C   UNL     1     -40.813 -51.510  11.813  1.00  0.00     0.233 A 
HETATM   18  N   UNL     1     -41.440 -50.424  11.426  1.00  0.00    -0.323 N 
HETATM   19  C   UNL     1     -40.477 -49.439  11.493  1.00  0.00     0.038 A 
ATOM     20  HN  UNL     1     -42.415 -50.330  11.142  1.00  0.00     0.169 HD
HETATM   21  C   UNL     1     -40.795 -48.023  11.230  1.00  0.00     0.071 C 
HETATM   22  C   UNL     1     -39.269 -50.000  11.847  1.00  0.00     0.075 A 
HETATM   23  C   UNL     1     -37.895 -49.505  12.035  1.00  0.00     0.079 C 
HETATM   24  O   UNL     1     -39.484 -51.325  12.076  1.00  0.00    -0.282 OA
ENDBRANCH   4  17
TORSDOF 5
ENDMDL
MODEL 6
REMARK VINA RESULT:      -5.6      2.000      5.848
REMARK  5 active torsions:
REMARK  status: ('A' for Active; 'I' for Inactive)
REMARK    1  A    between atoms: C_7  and  O_8 
REMARK    2  A    between atoms: O_8  and  C_9 
REMARK    3  A    between atoms: C_9  and  C_10 
REMARK    4  A    between atoms: C_10  and  N_11 
REMARK       I    between atoms: N_11  and  C_12 
REMARK       I    between atoms: C_12  and  N_14 
REMARK    5  A    between atoms: N_14  and  C_15 
ROOT
HETATM    1  N   UNL     1     -41.730 -52.226  13.337  1.00  0.00    -0.341 N 
HETATM    2  C   UNL     1     -41.922 -53.534  13.007  1.00  0.00     0.323 C 
HETATM    3  O   UNL     1     -40.994 -54.330  12.872  1.00  0.00    -0.247 OA
HETATM    4  N   UNL     1     -43.208 -53.955  12.863  1.00  0.00    -0.274 N 
HETATM    5  H   UNL     1     -42.533 -51.744  13.722  1.00  0.00     0.164 HD
HETATM    6  H   UNL     1     -43.346 -54.948  12.765  1.00  0.00     0.174 HD
ENDROOT
BRANCH   1   7
HETATM    7  C   UNL     1     -40.440 -51.696  13.719  1.00  0.00     0.150 C 
BRANCH   7   8
HETATM    8  C   UNL     1     -39.787 -50.937  12.563  1.00  0.00     0.188 C 
BRANCH   8   9
HETATM    9  O   UNL     1     -39.710 -49.534  12.868  1.00  0.00    -0.384 OA
BRANCH   9  10
HETATM   10  C   UNL     1     -40.040 -48.679  11.760  1.00  0.00     0.125 C 
HETATM   11  C   UNL     1     -39.787 -47.184  12.060  1.00  0.00     0.010 C 
HETATM   12  C   UNL     1     -40.437 -46.731  13.375  1.00  0.00     0.012 C 
HETATM   13  C   UNL     1     -40.232 -46.312  10.879  1.00  0.00     0.007 C 
HETATM   14  C   UNL     1     -41.688 -46.540  10.492  1.00  0.00     0.001 C 
HETATM   15  C   UNL     1     -41.979 -48.016  10.237  1.00  0.00     0.002 C 
HETATM   16  C   UNL     1     -41.514 -48.919  11.381  1.00  0.00     0.032 C 
ENDBRANCH   9  10
ENDBRANCH   8   9
ENDBRANCH   7   8
ENDBRANCH   1   7
BRANCH   4  17
HETATM   17  C   UNL     1     -44.332 -53.190  12.910  1.00  0.00     0.233 A 
HETATM   18  N   UNL     1     -45.056 -52.804  11.886  1.00  0.00    -0.323 N 
HETATM   19  C   UNL     1     -46.106 -52.117  12.457  1.00  0.00     0.038 A 
ATOM     20  HN  UNL     1     -44.882 -52.974  10.895  1.00  0.00     0.169 HD
HETATM   21  C   UNL     1     -47.222 -51.591  11.647  1.00  0.00     0.071 C 
HETATM   22  C   UNL     1     -45.924 -52.048  13.821  1.00  0.00     0.075 A 
HETATM   23  C   UNL     1     -46.643 -51.432  14.948  1.00  0.00     0.079 C 
HETATM   24  O   UNL     1     -44.799 -52.755  14.120  1.00  0.00    -0.282 OA
ENDBRANCH   4  17
TORSDOF 5
ENDMDL
MODEL 7
REMARK VINA RESULT:      -5.6      2.609      5.479
REMARK  5 active torsions:
REMARK  status: ('A' for Active; 'I' for Inactive)
REMARK    1  A    between atoms: C_7  and  O_8 
REMARK    2  A    between atoms: O_8  and  C_9 
REMARK    3  A    between atoms: C_9  and  C_10 
REMARK    4  A    between atoms: C_10  and  N_11 
REMARK       I    between atoms: N_11  and  C_12 
REMARK       I    between atoms: C_12  and  N_14 
REMARK    5  A    between atoms: N_14  and  C_15 
ROOT
HETATM    1  N   UNL     1     -40.950 -51.840  13.725  1.00  0.00    -0.341 N 
HETATM    2  C   UNL     1     -40.847 -52.647  12.632  1.00  0.00     0.323 C 
HETATM    3  O   UNL     1     -41.175 -52.284  11.504  1.00  0.00    -0.247 OA
HETATM    4  N   UNL     1     -40.323 -53.888  12.825  1.00  0.00    -0.274 N 
HETATM    5  H   UNL     1     -40.384 -52.101  14.523  1.00  0.00     0.164 HD
HETATM    6  H   UNL     1     -40.114 -54.420  11.995  1.00  0.00     0.174 HD
ENDROOT
BRANCH   1   7
HETATM    7  C   UNL     1     -41.295 -50.439  13.634  1.00  0.00     0.150 C 
BRANCH   7   8
HETATM    8  C   UNL     1     -42.679 -50.168  14.227  1.00  0.00     0.188 C 
BRANCH   8   9
HETATM    9  O   UNL     1     -43.682 -50.905  13.508  1.00  0.00    -0.384 OA
BRANCH   9  10
HETATM   10  C   UNL     1     -44.476 -51.769  14.339  1.00  0.00     0.125 C 
HETATM   11  C   UNL     1     -44.233 -53.268  14.049  1.00  0.00     0.010 C 
HETATM   12  C   UNL     1     -44.355 -53.603  12.556  1.00  0.00     0.012 C 
HETATM   13  C   UNL     1     -45.161 -54.141  14.903  1.00  0.00     0.007 C 
HETATM   14  C   UNL     1     -46.634 -53.792  14.720  1.00  0.00     0.001 C 
HETATM   15  C   UNL     1     -46.894 -52.307  14.953  1.00  0.00     0.002 C 
HETATM   16  C   UNL     1     -45.960 -51.407  14.143  1.00  0.00     0.032 C 
ENDBRANCH   9  10
ENDBRANCH   8   9
ENDBRANCH   7   8
ENDBRANCH   1   7
BRANCH   4  17
HETATM   17  C   UNL     1     -39.980 -54.459  14.012  1.00  0.00     0.233 A 
HETATM   18  N   UNL     1     -38.790 -54.892  14.353  1.00  0.00    -0.323 N 
HETATM   19  C   UNL     1     -38.947 -55.315  15.657  1.00  0.00     0.038 A 
ATOM     20  HN  UNL     1     -37.942 -54.912  13.785  1.00  0.00     0.169 HD
HETATM   21  C   UNL     1     -37.806 -55.791  16.462  1.00  0.00     0.071 C 
HETATM   22  C   UNL     1     -40.269 -55.189  16.024  1.00  0.00     0.075 A 
HETATM   23  C   UNL     1     -41.060 -55.501  17.226  1.00  0.00     0.079 C 
HETATM   24  O   UNL     1     -40.932 -54.619  14.981  1.00  0.00    -0.282 OA
ENDBRANCH   4  17
TORSDOF 5
ENDMDL
MODEL 8
REMARK VINA RESULT:      -5.5      1.688      1.903
REMARK  5 active torsions:
REMARK  status: ('A' for Active; 'I' for Inactive)
REMARK    1  A    between atoms: C_7  and  O_8 
REMARK    2  A    between atoms: O_8  and  C_9 
REMARK    3  A    between atoms: C_9  and  C_10 
REMARK    4  A    between atoms: C_10  and  N_11 
REMARK       I    between atoms: N_11  and  C_12 
REMARK       I    between atoms: C_12  and  N_14 
REMARK    5  A    between atoms: N_14  and  C_15 
ROOT
HETATM    1  N   UNL     1     -41.182 -51.406  13.503  1.00  0.00    -0.341 N 
HETATM    2  C   UNL     1     -40.748 -51.884  12.303  1.00  0.00     0.323 C 
HETATM    3  O   UNL     1     -40.481 -53.070  12.116  1.00  0.00    -0.247 OA
HETATM    4  N   UNL     1     -40.650 -50.992  11.279  1.00  0.00    -0.274 N 
HETATM    5  H   UNL     1     -41.661 -50.514  13.477  1.00  0.00     0.164 HD
HETATM    6  H   UNL     1     -40.471 -51.378  10.365  1.00  0.00     0.174 HD
ENDROOT
BRANCH   1   7
HETATM    7  C   UNL     1     -41.526 -52.269  14.611  1.00  0.00     0.150 C 
BRANCH   7   8
HETATM    8  C   UNL     1     -42.048 -51.462  15.801  1.00  0.00     0.188 C 
BRANCH   8   9
HETATM    9  O   UNL     1     -43.245 -52.063  16.324  1.00  0.00    -0.384 OA
BRANCH   9  10
HETATM   10  C   UNL     1     -44.252 -52.313  15.328  1.00  0.00     0.125 C 
HETATM   11  C   UNL     1     -45.294 -51.175  15.231  1.00  0.00     0.010 C 
HETATM   12  C   UNL     1     -45.888 -50.805  16.598  1.00  0.00     0.012 C 
HETATM   13  C   UNL     1     -46.388 -51.529  14.215  1.00  0.00     0.007 C 
HETATM   14  C   UNL     1     -47.073 -52.856  14.523  1.00  0.00     0.001 C 
HETATM   15  C   UNL     1     -46.062 -53.989  14.673  1.00  0.00     0.002 C 
HETATM   16  C   UNL     1     -44.936 -53.655  15.652  1.00  0.00     0.032 C 
ENDBRANCH   9  10
ENDBRANCH   8   9
ENDBRANCH   7   8
ENDBRANCH   1   7
BRANCH   4  17
HETATM   17  C   UNL     1     -40.840 -49.646  11.342  1.00  0.00     0.233 A 
HETATM   18  N   UNL     1     -39.959 -48.720  11.045  1.00  0.00    -0.323 N 
HETATM   19  C   UNL     1     -40.650 -47.537  11.205  1.00  0.00     0.038 A 
ATOM     20  HN  UNL     1     -38.987 -48.847  10.762  1.00  0.00     0.169 HD
HETATM   21  C   UNL     1     -40.043 -46.234  10.873  1.00  0.00     0.071 C 
HETATM   22  C   UNL     1     -41.916 -47.804  11.677  1.00  0.00     0.075 A 
HETATM   23  C   UNL     1     -43.080 -46.996  12.079  1.00  0.00     0.079 C 
HETATM   24  O   UNL     1     -42.052 -49.157  11.744  1.00  0.00    -0.282 OA
ENDBRANCH   4  17
TORSDOF 5
ENDMDL
MODEL 9
REMARK VINA RESULT:      -5.3      1.973      2.818
REMARK  5 active torsions:
REMARK  status: ('A' for Active; 'I' for Inactive)
REMARK    1  A    between atoms: C_7  and  O_8 
REMARK    2  A    between atoms: O_8  and  C_9 
REMARK    3  A    between atoms: C_9  and  C_10 
REMARK    4  A    between atoms: C_10  and  N_11 
REMARK       I    between atoms: N_11  and  C_12 
REMARK       I    between atoms: C_12  and  N_14 
REMARK    5  A    between atoms: N_14  and  C_15 
ROOT
HETATM    1  N   UNL     1     -40.461 -51.109  12.483  1.00  0.00    -0.341 N 
HETATM    2  C   UNL     1     -39.213 -51.245  13.013  1.00  0.00     0.323 C 
HETATM    3  O   UNL     1     -38.718 -52.339  13.277  1.00  0.00    -0.247 OA
HETATM    4  N   UNL     1     -38.496 -50.105  13.213  1.00  0.00    -0.274 N 
HETATM    5  H   UNL     1     -40.652 -50.227  12.022  1.00  0.00     0.164 HD
HETATM    6  H   UNL     1     -37.527 -50.223  13.464  1.00  0.00     0.174 HD
ENDROOT
BRANCH   1   7
HETATM    7  C   UNL     1     -41.247 -52.235  12.032  1.00  0.00     0.150 C 
BRANCH   7   8
HETATM    8  C   UNL     1     -42.691 -52.138  12.527  1.00  0.00     0.188 C 
BRANCH   8   9
HETATM    9  O   UNL     1     -42.897 -53.025  13.640  1.00  0.00    -0.384 OA
BRANCH   9  10
HETATM   10  C   UNL     1     -44.056 -52.708  14.429  1.00  0.00     0.125 C 
HETATM   11  C   UNL     1     -44.838 -53.964  14.877  1.00  0.00     0.010 C 
HETATM   12  C   UNL     1     -45.155 -54.906  13.706  1.00  0.00     0.012 C 
HETATM   13  C   UNL     1     -46.107 -53.567  15.643  1.00  0.00     0.007 C 
HETATM   14  C   UNL     1     -47.009 -52.631  14.846  1.00  0.00     0.001 C 
HETATM   15  C   UNL     1     -46.249 -51.404  14.350  1.00  0.00     0.002 C 
HETATM   16  C   UNL     1     -44.958 -51.764  13.613  1.00  0.00     0.032 C 
ENDBRANCH   9  10
ENDBRANCH   8   9
ENDBRANCH   7   8
ENDBRANCH   1   7
BRANCH   4  17
HETATM   17  C   UNL     1     -38.924 -48.825  13.039  1.00  0.00     0.233 A 
HETATM   18  N   UNL     1     -38.819 -47.844  13.903  1.00  0.00    -0.323 N 
HETATM   19  C   UNL     1     -39.334 -46.752  13.236  1.00  0.00     0.038 A 
ATOM     20  HN  UNL     1     -38.443 -47.880  14.851  1.00  0.00     0.169 HD
HETATM   21  C   UNL     1     -39.312 -45.401  13.827  1.00  0.00     0.071 C 
HETATM   22  C   UNL     1     -39.809 -47.148  12.004  1.00  0.00     0.075 A 
HETATM   23  C   UNL     1     -40.492 -46.487  10.880  1.00  0.00     0.079 C 
HETATM   24  O   UNL     1     -39.527 -48.472  11.863  1.00  0.00    -0.282 OA
ENDBRANCH   4  17
TORSDOF 5
ENDMDL
