MODEL 1
REMARK VINA RESULT:      -5.9      0.000      0.000
REMARK  6 active torsions:
REMARK  status: ('A' for Active; 'I' for Inactive)
REMARK    1  A    between atoms: S_2  and  C_4 
REMARK    2  A    between atoms: N_10  and  C_11 
REMARK    3  A    between atoms: C_11  and  C_12 
REMARK       I    between atoms: C_12  and  N_14 
REMARK    4  A    between atoms: N_14  and  C_15 
REMARK    5  A    between atoms: C_15  and  C_16 
REMARK    6  A    between atoms: C_16  and  C_17 
ROOT
HETATM    1  C   UNL     1     -39.705 -52.844  13.790  1.00  0.00     0.235 C 
HETATM    2  O   UNL     1     -39.021 -53.840  13.571  1.00  0.00    -0.272 OA
HETATM    3  N   UNL     1     -41.084 -52.897  13.893  1.00  0.00    -0.359 N 
HETATM    4  H   UNL     1     -41.582 -52.120  14.313  1.00  0.00     0.162 HD
ENDROOT
BRANCH   1   5
HETATM    5  C   UNL     1     -39.101 -51.470  13.954  1.00  0.00     0.234 C 
BRANCH   5   6
HETATM    6  N   UNL     1     -38.783 -50.798  12.705  1.00  0.00    -0.311 N 
HETATM    7  C   UNL     1     -39.657 -50.072  11.935  1.00  0.00     0.192 A 
HETATM    8  N   UNL     1     -39.048 -49.705  10.827  1.00  0.00    -0.277 N 
HETATM    9  N   UNL     1     -37.753 -50.152  10.886  1.00  0.00    -0.294 N 
ATOM     10  HN  UNL     1     -39.467 -49.181  10.058  1.00  0.00     0.189 HD
HETATM   11  C   UNL     1     -37.601 -50.783  12.029  1.00  0.00     0.202 A 
ATOM     12  HN  UNL     1     -37.036 -50.019  10.172  1.00  0.00     0.187 HD
BRANCH   7  13
HETATM   13  S   UNL     1     -41.294 -49.625  12.294  1.00  0.00     0.081 S 
HETATM   14  C   UNL     1     -41.568 -48.555  10.868  1.00  0.00     0.136 C 
HETATM   15  O   UNL     1     -42.143 -50.855  12.145  1.00  0.00    -0.250 OA
ENDBRANCH   7  13
ENDBRANCH   5   6
ENDBRANCH   1   5
BRANCH   3  16
HETATM   16  C   UNL     1     -41.739 -54.189  13.838  1.00  0.00     0.127 C 
BRANCH  16  17
HETATM   17  C   UNL     1     -42.972 -54.291  14.738  1.00  0.00     0.053 C 
BRANCH  17  18
HETATM   18  C   UNL     1     -44.039 -53.320  14.279  1.00  0.00    -0.082 A 
HETATM   19  C   UNL     1     -44.442 -52.311  15.064  1.00  0.00    -0.024 A 
HETATM   20  C   UNL     1     -45.551 -51.375  14.742  1.00  0.00     0.027 A 
HETATM   21  C   UNL     1     -46.227 -51.537  13.384  1.00  0.00     0.004 A 
HETATM   22  C   UNL     1     -45.732 -52.634  12.446  1.00  0.00     0.005 A 
HETATM   23  C   UNL     1     -44.646 -53.591  12.937  1.00  0.00     0.034 A 
ENDBRANCH  17  18
ENDBRANCH  16  17
ENDBRANCH   3  16
TORSDOF 6
ENDMDL
MODEL 2
REMARK VINA RESULT:      -5.7      2.413      3.236
REMARK  6 active torsions:
REMARK  status: ('A' for Active; 'I' for Inactive)
REMARK    1  A    between atoms: S_2  and  C_4 
REMARK    2  A    between atoms: N_10  and  C_11 
REMARK    3  A    between atoms: C_11  and  C_12 
REMARK       I    between atoms: C_12  and  N_14 
REMARK    4  A    between atoms: N_14  and  C_15 
REMARK    5  A    between atoms: C_15  and  C_16 
REMARK    6  A    between atoms: C_16  and  C_17 
ROOT
HETATM    1  C   UNL     1     -42.839 -51.518  13.565  1.00  0.00     0.235 C 
HETATM    2  O   UNL     1     -42.561 -52.345  14.430  1.00  0.00    -0.272 OA
HETATM    3  N   UNL     1     -43.769 -51.766  12.570  1.00  0.00    -0.359 N 
HETATM    4  H   UNL     1     -44.146 -50.990  12.038  1.00  0.00     0.162 HD
ENDROOT
BRANCH   1   5
HETATM    5  C   UNL     1     -42.179 -50.161  13.505  1.00  0.00     0.234 C 
BRANCH   5   6
HETATM    6  N   UNL     1     -41.557 -49.850  12.228  1.00  0.00    -0.311 N 
HETATM    7  C   UNL     1     -41.926 -48.838  11.377  1.00  0.00     0.192 A 
HETATM    8  N   UNL     1     -41.213 -48.926  10.273  1.00  0.00    -0.277 N 
HETATM    9  N   UNL     1     -40.338 -49.973  10.416  1.00  0.00    -0.294 N 
ATOM     10  HN  UNL     1     -41.298 -48.322   9.456  1.00  0.00     0.189 HD
HETATM   11  C   UNL     1     -40.537 -50.500  11.603  1.00  0.00     0.202 A 
ATOM     12  HN  UNL     1     -39.655 -50.285   9.726  1.00  0.00     0.187 HD
BRANCH   7  13
HETATM   13  S   UNL     1     -43.094 -47.583  11.637  1.00  0.00     0.081 S 
HETATM   14  C   UNL     1     -41.972 -46.178  11.492  1.00  0.00     0.136 C 
HETATM   15  O   UNL     1     -44.027 -47.581  10.461  1.00  0.00    -0.250 OA
ENDBRANCH   7  13
ENDBRANCH   5   6
ENDBRANCH   1   5
BRANCH   3  16
HETATM   16  C   UNL     1     -44.514 -53.009  12.606  1.00  0.00     0.127 C 
BRANCH  16  17
HETATM   17  C   UNL     1     -45.996 -52.825  12.942  1.00  0.00     0.053 C 
BRANCH  17  18
HETATM   18  C   UNL     1     -46.178 -52.669  14.437  1.00  0.00    -0.082 A 
HETATM   19  C   UNL     1     -45.760 -53.615  15.289  1.00  0.00    -0.024 A 
HETATM   20  C   UNL     1     -45.987 -53.597  16.758  1.00  0.00     0.027 A 
HETATM   21  C   UNL     1     -46.689 -52.373  17.339  1.00  0.00     0.004 A 
HETATM   22  C   UNL     1     -47.109 -51.252  16.393  1.00  0.00     0.005 A 
HETATM   23  C   UNL     1     -46.900 -51.437  14.891  1.00  0.00     0.034 A 
ENDBRANCH  17  18
ENDBRANCH  16  17
ENDBRANCH   3  16
TORSDOF 6
ENDMDL
MODEL 3
REMARK VINA RESULT:      -5.6      2.459      4.044
REMARK  6 active torsions:
REMARK  status: ('A' for Active; 'I' for Inactive)
REMARK    1  A    between atoms: S_2  and  C_4 
REMARK    2  A    between atoms: N_10  and  C_11 
REMARK    3  A    between atoms: C_11  and  C_12 
REMARK       I    between atoms: C_12  and  N_14 
REMARK    4  A    between atoms: N_14  and  C_15 
REMARK    5  A    between atoms: C_15  and  C_16 
REMARK    6  A    between atoms: C_16  and  C_17 
ROOT
HETATM    1  C   UNL     1     -43.703 -50.742  13.587  1.00  0.00     0.235 C 
HETATM    2  O   UNL     1     -43.484 -51.019  14.764  1.00  0.00    -0.272 OA
HETATM    3  N   UNL     1     -44.360 -51.607  12.729  1.00  0.00    -0.359 N 
HETATM    4  H   UNL     1     -44.734 -51.252  11.857  1.00  0.00     0.162 HD
ENDROOT
BRANCH   1   5
HETATM    5  C   UNL     1     -43.259 -49.438  12.970  1.00  0.00     0.234 C 
BRANCH   5   6
HETATM    6  N   UNL     1     -42.142 -49.556  12.047  1.00  0.00    -0.311 N 
HETATM    7  C   UNL     1     -41.900 -48.746  10.966  1.00  0.00     0.192 A 
HETATM    8  N   UNL     1     -40.866 -49.217  10.301  1.00  0.00    -0.277 N 
HETATM    9  N   UNL     1     -40.395 -50.317  10.973  1.00  0.00    -0.294 N 
ATOM     10  HN  UNL     1     -40.483 -48.832   9.438  1.00  0.00     0.189 HD
HETATM   11  C   UNL     1     -41.153 -50.492  12.031  1.00  0.00     0.202 A 
ATOM     12  HN  UNL     1     -39.599 -50.894  10.700  1.00  0.00     0.187 HD
BRANCH   7  13
HETATM   13  S   UNL     1     -42.735 -47.301  10.493  1.00  0.00     0.081 S 
HETATM   14  C   UNL     1     -41.322 -46.182  10.541  1.00  0.00     0.136 C 
HETATM   15  O   UNL     1     -43.168 -47.474   9.065  1.00  0.00    -0.250 OA
ENDBRANCH   7  13
ENDBRANCH   5   6
ENDBRANCH   1   5
BRANCH   3  16
HETATM   16  C   UNL     1     -44.898 -52.843  13.262  1.00  0.00     0.127 C 
BRANCH  16  17
HETATM   17  C   UNL     1     -44.137 -54.090  12.806  1.00  0.00     0.053 C 
BRANCH  17  18
HETATM   18  C   UNL     1     -42.884 -54.271  13.636  1.00  0.00    -0.082 A 
HETATM   19  C   UNL     1     -41.673 -54.000  13.131  1.00  0.00    -0.024 A 
HETATM   20  C   UNL     1     -40.384 -54.244  13.832  1.00  0.00     0.027 A 
HETATM   21  C   UNL     1     -40.459 -54.778  15.259  1.00  0.00     0.004 A 
HETATM   22  C   UNL     1     -41.832 -55.025  15.878  1.00  0.00     0.005 A 
HETATM   23  C   UNL     1     -43.077 -54.822  15.016  1.00  0.00     0.034 A 
ENDBRANCH  17  18
ENDBRANCH  16  17
ENDBRANCH   3  16
TORSDOF 6
ENDMDL
MODEL 4
REMARK VINA RESULT:      -5.4      1.954      2.733
REMARK  6 active torsions:
REMARK  status: ('A' for Active; 'I' for Inactive)
REMARK    1  A    between atoms: S_2  and  C_4 
REMARK    2  A    between atoms: N_10  and  C_11 
REMARK    3  A    between atoms: C_11  and  C_12 
REMARK       I    between atoms: C_12  and  N_14 
REMARK    4  A    between atoms: N_14  and  C_15 
REMARK    5  A    between atoms: C_15  and  C_16 
REMARK    6  A    between atoms: C_16  and  C_17 
ROOT
HETATM    1  C   UNL     1     -40.846 -53.626  15.248  1.00  0.00     0.235 C 
HETATM    2  O   UNL     1     -40.651 -54.744  15.720  1.00  0.00    -0.272 OA
HETATM    3  N   UNL     1     -42.035 -52.941  15.426  1.00  0.00    -0.359 N 
HETATM    4  H   UNL     1     -42.068 -51.945  15.240  1.00  0.00     0.162 HD
ENDROOT
BRANCH   1   5
HETATM    5  C   UNL     1     -39.807 -52.908  14.421  1.00  0.00     0.234 C 
BRANCH   5   6
HETATM    6  N   UNL     1     -40.250 -52.536  13.087  1.00  0.00    -0.311 N 
HETATM    7  C   UNL     1     -39.994 -51.345  12.455  1.00  0.00     0.192 A 
HETATM    8  N   UNL     1     -40.642 -51.320  11.309  1.00  0.00    -0.277 N 
HETATM    9  N   UNL     1     -41.293 -52.519  11.164  1.00  0.00    -0.294 N 
ATOM     10  HN  UNL     1     -40.659 -50.544  10.647  1.00  0.00     0.189 HD
HETATM   11  C   UNL     1     -41.028 -53.247  12.224  1.00  0.00     0.202 A 
ATOM     12  HN  UNL     1     -41.877 -52.795  10.374  1.00  0.00     0.187 HD
BRANCH   7  13
HETATM   13  S   UNL     1     -38.971 -50.046  12.978  1.00  0.00     0.081 S 
HETATM   14  C   UNL     1     -37.391 -50.787  12.522  1.00  0.00     0.136 C 
HETATM   15  O   UNL     1     -39.232 -48.872  12.079  1.00  0.00    -0.250 OA
ENDBRANCH   7  13
ENDBRANCH   5   6
ENDBRANCH   1   5
BRANCH   3  16
HETATM   16  C   UNL     1     -43.052 -53.519  16.281  1.00  0.00     0.127 C 
BRANCH  16  17
HETATM   17  C   UNL     1     -44.095 -54.344  15.523  1.00  0.00     0.053 C 
BRANCH  17  18
HETATM   18  C   UNL     1     -44.975 -53.438  14.689  1.00  0.00    -0.082 A 
HETATM   19  C   UNL     1     -45.007 -53.538  13.354  1.00  0.00    -0.024 A 
HETATM   20  C   UNL     1     -45.757 -52.628  12.449  1.00  0.00     0.027 A 
HETATM   21  C   UNL     1     -46.610 -51.545  13.103  1.00  0.00     0.004 A 
HETATM   22  C   UNL     1     -46.645 -51.460  14.626  1.00  0.00     0.005 A 
HETATM   23  C   UNL     1     -45.751 -52.397  15.438  1.00  0.00     0.034 A 
ENDBRANCH  17  18
ENDBRANCH  16  17
ENDBRANCH   3  16
TORSDOF 6
ENDMDL
MODEL 5
REMARK VINA RESULT:      -5.1      3.398      4.623
REMARK  6 active torsions:
REMARK  status: ('A' for Active; 'I' for Inactive)
REMARK    1  A    between atoms: S_2  and  C_4 
REMARK    2  A    between atoms: N_10  and  C_11 
REMARK    3  A    between atoms: C_11  and  C_12 
REMARK       I    between atoms: C_12  and  N_14 
REMARK    4  A    between atoms: N_14  and  C_15 
REMARK    5  A    between atoms: C_15  and  C_16 
REMARK    6  A    between atoms: C_16  and  C_17 
ROOT
HETATM    1  C   UNL     1     -41.468 -49.206  11.949  1.00  0.00     0.235 C 
HETATM    2  O   UNL     1     -40.910 -48.907  13.002  1.00  0.00    -0.272 OA
HETATM    3  N   UNL     1     -42.352 -50.266  11.853  1.00  0.00    -0.359 N 
HETATM    4  H   UNL     1     -42.969 -50.328  11.051  1.00  0.00     0.162 HD
ENDROOT
BRANCH   1   5
HETATM    5  C   UNL     1     -41.226 -48.451  10.665  1.00  0.00     0.234 C 
BRANCH   5   6
HETATM    6  N   UNL     1     -42.165 -47.370  10.415  1.00  0.00    -0.311 N 
HETATM    7  C   UNL     1     -42.041 -46.076  10.857  1.00  0.00     0.192 A 
HETATM    8  N   UNL     1     -43.129 -45.407  10.534  1.00  0.00    -0.277 N 
HETATM    9  N   UNL     1     -43.954 -46.252   9.836  1.00  0.00    -0.294 N 
ATOM     10  HN  UNL     1     -43.323 -44.433  10.764  1.00  0.00     0.189 HD
HETATM   11  C   UNL     1     -43.352 -47.416   9.750  1.00  0.00     0.202 A 
ATOM     12  HN  UNL     1     -44.870 -46.017   9.452  1.00  0.00     0.187 HD
BRANCH   7  13
HETATM   13  S   UNL     1     -40.701 -45.341  11.676  1.00  0.00     0.081 S 
HETATM   14  C   UNL     1     -39.714 -44.950  10.218  1.00  0.00     0.136 C 
HETATM   15  O   UNL     1     -41.190 -44.059  12.287  1.00  0.00    -0.250 OA
ENDBRANCH   7  13
ENDBRANCH   5   6
ENDBRANCH   1   5
BRANCH   3  16
HETATM   16  C   UNL     1     -42.710 -50.989  13.057  1.00  0.00     0.127 C 
BRANCH  16  17
HETATM   17  C   UNL     1     -44.037 -50.537  13.672  1.00  0.00     0.053 C 
BRANCH  17  18
HETATM   18  C   UNL     1     -44.863 -51.739  14.079  1.00  0.00    -0.082 A 
HETATM   19  C   UNL     1     -44.402 -52.986  13.912  1.00  0.00    -0.024 A 
HETATM   20  C   UNL     1     -45.179 -54.224  14.184  1.00  0.00     0.027 A 
HETATM   21  C   UNL     1     -46.580 -54.052  14.764  1.00  0.00     0.004 A 
HETATM   22  C   UNL     1     -47.095 -52.641  15.029  1.00  0.00     0.005 A 
HETATM   23  C   UNL     1     -46.231 -51.450  14.616  1.00  0.00     0.034 A 
ENDBRANCH  17  18
ENDBRANCH  16  17
ENDBRANCH   3  16
TORSDOF 6
ENDMDL
MODEL 6
REMARK VINA RESULT:      -5.1      2.585      3.233
REMARK  6 active torsions:
REMARK  status: ('A' for Active; 'I' for Inactive)
REMARK    1  A    between atoms: S_2  and  C_4 
REMARK    2  A    between atoms: N_10  and  C_11 
REMARK    3  A    between atoms: C_11  and  C_12 
REMARK       I    between atoms: C_12  and  N_14 
REMARK    4  A    between atoms: N_14  and  C_15 
REMARK    5  A    between atoms: C_15  and  C_16 
REMARK    6  A    between atoms: C_16  and  C_17 
ROOT
HETATM    1  C   UNL     1     -40.564 -48.996  14.489  1.00  0.00     0.235 C 
HETATM    2  O   UNL     1     -39.827 -49.401  15.385  1.00  0.00    -0.272 OA
HETATM    3  N   UNL     1     -41.905 -49.332  14.422  1.00  0.00    -0.359 N 
HETATM    4  H   UNL     1     -42.523 -48.792  13.827  1.00  0.00     0.162 HD
ENDROOT
BRANCH   1   5
HETATM    5  C   UNL     1     -40.067 -48.107  13.375  1.00  0.00     0.234 C 
BRANCH   5   6
HETATM    6  N   UNL     1     -40.341 -48.607  12.037  1.00  0.00    -0.311 N 
HETATM    7  C   UNL     1     -41.065 -47.960  11.067  1.00  0.00     0.192 A 
HETATM    8  N   UNL     1     -41.196 -48.758  10.028  1.00  0.00    -0.277 N 
HETATM    9  N   UNL     1     -40.516 -49.919  10.295  1.00  0.00    -0.294 N 
ATOM     10  HN  UNL     1     -41.714 -48.549   9.174  1.00  0.00     0.189 HD
HETATM   11  C   UNL     1     -39.986 -49.804  11.492  1.00  0.00     0.202 A 
ATOM     12  HN  UNL     1     -40.436 -50.726   9.676  1.00  0.00     0.187 HD
BRANCH   7  13
HETATM   13  S   UNL     1     -41.707 -46.349  11.097  1.00  0.00     0.081 S 
HETATM   14  C   UNL     1     -40.213 -45.486  10.572  1.00  0.00     0.136 C 
HETATM   15  O   UNL     1     -42.732 -46.250  10.004  1.00  0.00    -0.250 OA
ENDBRANCH   7  13
ENDBRANCH   5   6
ENDBRANCH   1   5
BRANCH   3  16
HETATM   16  C   UNL     1     -42.485 -50.109  15.499  1.00  0.00     0.127 C 
BRANCH  16  17
HETATM   17  C   UNL     1     -42.658 -51.591  15.163  1.00  0.00     0.053 C 
BRANCH  17  18
HETATM   18  C   UNL     1     -43.988 -51.822  14.477  1.00  0.00    -0.082 A 
HETATM   19  C   UNL     1     -44.074 -52.552  13.357  1.00  0.00    -0.024 A 
HETATM   20  C   UNL     1     -45.314 -52.746  12.560  1.00  0.00     0.027 A 
HETATM   21  C   UNL     1     -46.595 -52.121  13.104  1.00  0.00     0.004 A 
HETATM   22  C   UNL     1     -46.532 -51.345  14.417  1.00  0.00     0.005 A 
HETATM   23  C   UNL     1     -45.175 -51.140  15.088  1.00  0.00     0.034 A 
ENDBRANCH  17  18
ENDBRANCH  16  17
ENDBRANCH   3  16
TORSDOF 6
ENDMDL
MODEL 7
REMARK VINA RESULT:      -5.0      2.964      4.881
REMARK  6 active torsions:
REMARK  status: ('A' for Active; 'I' for Inactive)
REMARK    1  A    between atoms: S_2  and  C_4 
REMARK    2  A    between atoms: N_10  and  C_11 
REMARK    3  A    between atoms: C_11  and  C_12 
REMARK       I    between atoms: C_12  and  N_14 
REMARK    4  A    between atoms: N_14  and  C_15 
REMARK    5  A    between atoms: C_15  and  C_16 
REMARK    6  A    between atoms: C_16  and  C_17 
ROOT
HETATM    1  C   UNL     1     -43.923 -54.457  14.861  1.00  0.00     0.235 C 
HETATM    2  O   UNL     1     -44.530 -55.480  14.554  1.00  0.00    -0.272 OA
HETATM    3  N   UNL     1     -44.553 -53.357  15.416  1.00  0.00    -0.359 N 
HETATM    4  H   UNL     1     -43.996 -52.645  15.876  1.00  0.00     0.162 HD
ENDROOT
BRANCH   1   5
HETATM    5  C   UNL     1     -42.436 -54.307  14.647  1.00  0.00     0.234 C 
BRANCH   5   6
HETATM    6  N   UNL     1     -42.071 -53.584  13.439  1.00  0.00    -0.311 N 
HETATM    7  C   UNL     1     -40.869 -52.966  13.201  1.00  0.00     0.192 A 
HETATM    8  N   UNL     1     -40.938 -52.323  12.054  1.00  0.00    -0.277 N 
HETATM    9  N   UNL     1     -42.176 -52.556  11.510  1.00  0.00    -0.294 N 
ATOM     10  HN  UNL     1     -40.200 -51.752  11.642  1.00  0.00     0.189 HD
HETATM   11  C   UNL     1     -42.835 -53.335  12.339  1.00  0.00     0.202 A 
ATOM     12  HN  UNL     1     -42.522 -52.191  10.623  1.00  0.00     0.187 HD
BRANCH   7  13
HETATM   13  S   UNL     1     -39.430 -53.001  14.168  1.00  0.00     0.081 S 
HETATM   14  C   UNL     1     -39.056 -54.755  13.978  1.00  0.00     0.136 C 
HETATM   15  O   UNL     1     -38.381 -52.201  13.450  1.00  0.00    -0.250 OA
ENDBRANCH   7  13
ENDBRANCH   5   6
ENDBRANCH   1   5
BRANCH   3  16
HETATM   16  C   UNL     1     -45.963 -53.449  15.739  1.00  0.00     0.127 C 
BRANCH  16  17
HETATM   17  C   UNL     1     -46.776 -52.234  15.286  1.00  0.00     0.053 C 
BRANCH  17  18
HETATM   18  C   UNL     1     -46.822 -51.194  16.385  1.00  0.00    -0.082 A 
HETATM   19  C   UNL     1     -45.733 -50.487  16.717  1.00  0.00    -0.024 A 
HETATM   20  C   UNL     1     -45.655 -49.523  17.846  1.00  0.00     0.027 A 
HETATM   21  C   UNL     1     -46.936 -49.274  18.637  1.00  0.00     0.004 A 
HETATM   22  C   UNL     1     -48.206 -50.016  18.228  1.00  0.00     0.005 A 
HETATM   23  C   UNL     1     -48.127 -51.052  17.107  1.00  0.00     0.034 A 
ENDBRANCH  17  18
ENDBRANCH  16  17
ENDBRANCH   3  16
TORSDOF 6
ENDMDL
MODEL 8
REMARK VINA RESULT:      -5.0      2.465      4.268
REMARK  6 active torsions:
REMARK  status: ('A' for Active; 'I' for Inactive)
REMARK    1  A    between atoms: S_2  and  C_4 
REMARK    2  A    between atoms: N_10  and  C_11 
REMARK    3  A    between atoms: C_11  and  C_12 
REMARK       I    between atoms: C_12  and  N_14 
REMARK    4  A    between atoms: N_14  and  C_15 
REMARK    5  A    between atoms: C_15  and  C_16 
REMARK    6  A    between atoms: C_16  and  C_17 
ROOT
HETATM    1  C   UNL     1     -43.429 -50.152  13.666  1.00  0.00     0.235 C 
HETATM    2  O   UNL     1     -44.108 -50.192  14.689  1.00  0.00    -0.272 OA
HETATM    3  N   UNL     1     -43.367 -51.208  12.774  1.00  0.00    -0.359 N 
HETATM    4  H   UNL     1     -43.006 -51.049  11.840  1.00  0.00     0.162 HD
ENDROOT
BRANCH   1   5
HETATM    5  C   UNL     1     -42.592 -48.951  13.300  1.00  0.00     0.234 C 
BRANCH   5   6
HETATM    6  N   UNL     1     -42.487 -48.701  11.871  1.00  0.00    -0.311 N 
HETATM    7  C   UNL     1     -41.394 -48.966  11.084  1.00  0.00     0.192 A 
HETATM    8  N   UNL     1     -41.621 -48.511   9.870  1.00  0.00    -0.277 N 
HETATM    9  N   UNL     1     -42.888 -47.986   9.843  1.00  0.00    -0.294 N 
ATOM     10  HN  UNL     1     -40.968 -48.543   9.086  1.00  0.00     0.189 HD
HETATM   11  C   UNL     1     -43.404 -48.130  11.042  1.00  0.00     0.202 A 
ATOM     12  HN  UNL     1     -43.346 -47.559   9.037  1.00  0.00     0.187 HD
BRANCH   7  13
HETATM   13  S   UNL     1     -39.930 -49.790  11.516  1.00  0.00     0.081 S 
HETATM   14  C   UNL     1     -39.236 -48.505  12.575  1.00  0.00     0.136 C 
HETATM   15  O   UNL     1     -40.307 -50.968  12.368  1.00  0.00    -0.250 OA
ENDBRANCH   7  13
ENDBRANCH   5   6
ENDBRANCH   1   5
BRANCH   3  16
HETATM   16  C   UNL     1     -44.209 -52.366  13.002  1.00  0.00     0.127 C 
BRANCH  16  17
HETATM   17  C   UNL     1     -43.536 -53.693  12.650  1.00  0.00     0.053 C 
BRANCH  17  18
HETATM   18  C   UNL     1     -42.675 -54.167  13.802  1.00  0.00    -0.082 A 
HETATM   19  C   UNL     1     -41.355 -53.944  13.819  1.00  0.00    -0.024 A 
HETATM   20  C   UNL     1     -40.418 -54.459  14.852  1.00  0.00     0.027 A 
HETATM   21  C   UNL     1     -41.025 -55.240  16.014  1.00  0.00     0.004 A 
HETATM   22  C   UNL     1     -42.537 -55.443  16.050  1.00  0.00     0.005 A 
HETATM   23  C   UNL     1     -43.377 -54.943  14.876  1.00  0.00     0.034 A 
ENDBRANCH  17  18
ENDBRANCH  16  17
ENDBRANCH   3  16
TORSDOF 6
ENDMDL
MODEL 9
REMARK VINA RESULT:      -5.0      2.748      6.497
REMARK  6 active torsions:
REMARK  status: ('A' for Active; 'I' for Inactive)
REMARK    1  A    between atoms: S_2  and  C_4 
REMARK    2  A    between atoms: N_10  and  C_11 
REMARK    3  A    between atoms: C_11  and  C_12 
REMARK       I    between atoms: C_12  and  N_14 
REMARK    4  A    between atoms: N_14  and  C_15 
REMARK    5  A    between atoms: C_15  and  C_16 
REMARK    6  A    between atoms: C_16  and  C_17 
ROOT
HETATM    1  C   UNL     1     -41.026 -51.208  12.394  1.00  0.00     0.235 C 
HETATM    2  O   UNL     1     -40.238 -50.666  13.165  1.00  0.00    -0.272 OA
HETATM    3  N   UNL     1     -42.035 -50.512  11.752  1.00  0.00    -0.359 N 
HETATM    4  H   UNL     1     -42.496 -50.931  10.952  1.00  0.00     0.162 HD
ENDROOT
BRANCH   1   5
HETATM    5  C   UNL     1     -40.971 -52.686  12.092  1.00  0.00     0.234 C 
BRANCH   5   6
HETATM    6  N   UNL     1     -41.354 -53.544  13.202  1.00  0.00    -0.311 N 
HETATM    7  C   UNL     1     -42.634 -53.912  13.532  1.00  0.00     0.192 A 
HETATM    8  N   UNL     1     -42.606 -54.601  14.654  1.00  0.00    -0.277 N 
HETATM    9  N   UNL     1     -41.295 -54.726  15.041  1.00  0.00    -0.294 N 
ATOM     10  HN  UNL     1     -43.415 -54.974  15.148  1.00  0.00     0.189 HD
HETATM   11  C   UNL     1     -40.555 -54.111  14.148  1.00  0.00     0.202 A 
ATOM     12  HN  UNL     1     -40.957 -55.211  15.873  1.00  0.00     0.187 HD
BRANCH   7  13
HETATM   13  S   UNL     1     -44.102 -53.605  12.661  1.00  0.00     0.081 S 
HETATM   14  C   UNL     1     -45.188 -54.659  13.644  1.00  0.00     0.136 C 
HETATM   15  O   UNL     1     -44.478 -52.170  12.897  1.00  0.00    -0.250 OA
ENDBRANCH   7  13
ENDBRANCH   5   6
ENDBRANCH   1   5
BRANCH   3  16
HETATM   16  C   UNL     1     -42.105 -49.074  11.916  1.00  0.00     0.127 C 
BRANCH  16  17
HETATM   17  C   UNL     1     -41.473 -48.293  10.761  1.00  0.00     0.053 C 
BRANCH  17  18
HETATM   18  C   UNL     1     -40.815 -47.031  11.278  1.00  0.00    -0.082 A 
HETATM   19  C   UNL     1     -40.804 -45.907  10.551  1.00  0.00    -0.024 A 
HETATM   20  C   UNL     1     -40.096 -44.655  10.929  1.00  0.00     0.027 A 
HETATM   21  C   UNL     1     -39.392 -44.637  12.283  1.00  0.00     0.004 A 
HETATM   22  C   UNL     1     -39.456 -45.884  13.158  1.00  0.00     0.005 A 
HETATM   23  C   UNL     1     -40.136 -47.138  12.610  1.00  0.00     0.034 A 
ENDBRANCH  17  18
ENDBRANCH  16  17
ENDBRANCH   3  16
TORSDOF 6
ENDMDL
