MODEL 1
REMARK VINA RESULT:      -6.6      0.000      0.000
REMARK  4 active torsions:
REMARK  status: ('A' for Active; 'I' for Inactive)
REMARK    1  A    between atoms: C_2  and  C_3 
REMARK    2  A    between atoms: N_8  and  C_9 
REMARK    3  A    between atoms: C_9  and  C_10 
REMARK       I    between atoms: C_10  and  N_12 
REMARK    4  A    between atoms: N_12  and  C_13 
REMARK       I    between atoms: N_16  and  C_19 
ROOT
HETATM    1  C   UNL     1     -42.185 -48.078  11.069  1.00  0.00     0.237 C 
HETATM    2  O   UNL     1     -41.754 -47.178  11.784  1.00  0.00    -0.272 OA
HETATM    3  N   UNL     1     -42.390 -49.366  11.514  1.00  0.00    -0.355 N 
HETATM    4  H   UNL     1     -42.589 -50.067  10.802  1.00  0.00     0.162 HD
ENDROOT
BRANCH   1   5
HETATM    5  C   UNL     1     -42.461 -47.848   9.597  1.00  0.00     0.250 C 
BRANCH   5   6
HETATM    6  N   UNL     1     -43.320 -46.716   9.368  1.00  0.00    -0.256 N 
HETATM    7  C   UNL     1     -44.671 -46.654   9.160  1.00  0.00     0.109 A 
HETATM    8  N   UNL     1     -44.991 -45.384   9.018  1.00  0.00    -0.274 N 
HETATM    9  N   UNL     1     -43.825 -44.671   9.133  1.00  0.00    -0.007 NA
ATOM     10  HN  UNL     1     -45.924 -45.005   8.855  1.00  0.00     0.185 HD
HETATM   11  N   UNL     1     -42.795 -45.478   9.340  1.00  0.00    -0.005 NA
BRANCH   7  12
HETATM   12  C   UNL     1     -45.596 -47.814   9.091  1.00  0.00     0.074 C 
HETATM   13  C   UNL     1     -47.048 -47.366   9.108  1.00  0.00     0.013 C 
ENDBRANCH   7  12
ENDBRANCH   5   6
ENDBRANCH   1   5
BRANCH   3  14
HETATM   14  C   UNL     1     -41.966 -49.850  12.828  1.00  0.00     0.087 C 
HETATM   15  C   UNL     1     -41.549 -51.319  12.739  1.00  0.00     0.045 C 
HETATM   16  C   UNL     1     -42.752 -52.223  12.488  1.00  0.00     0.127 C 
HETATM   17  N   UNL     1     -43.802 -52.043  13.488  1.00  0.00    -0.352 N 
HETATM   18  C   UNL     1     -44.185 -50.664  13.796  1.00  0.00     0.127 C 
HETATM   19  C   UNL     1     -44.754 -53.021  13.773  1.00  0.00     0.215 C 
HETATM   20  C   UNL     1     -43.015 -49.699  13.935  1.00  0.00     0.045 C 
HETATM   21  O   UNL     1     -45.663 -52.837  14.584  1.00  0.00    -0.274 OA
HETATM   22  C   UNL     1     -44.656 -54.349  13.060  1.00  0.00     0.117 C 
ENDBRANCH   3  14
TORSDOF 4
ENDMDL
MODEL 2
REMARK VINA RESULT:      -6.2      3.523      6.244
REMARK  4 active torsions:
REMARK  status: ('A' for Active; 'I' for Inactive)
REMARK    1  A    between atoms: C_2  and  C_3 
REMARK    2  A    between atoms: N_8  and  C_9 
REMARK    3  A    between atoms: C_9  and  C_10 
REMARK       I    between atoms: C_10  and  N_12 
REMARK    4  A    between atoms: N_12  and  C_13 
REMARK       I    between atoms: N_16  and  C_19 
ROOT
HETATM    1  C   UNL     1     -42.019 -47.854  11.250  1.00  0.00     0.237 C 
HETATM    2  O   UNL     1     -42.416 -48.745  11.994  1.00  0.00    -0.272 OA
HETATM    3  N   UNL     1     -41.253 -46.792  11.680  1.00  0.00    -0.355 N 
HETATM    4  H   UNL     1     -41.120 -46.029  11.019  1.00  0.00     0.162 HD
ENDROOT
BRANCH   1   5
HETATM    5  C   UNL     1     -42.411 -47.820   9.787  1.00  0.00     0.250 C 
BRANCH   5   6
HETATM    6  N   UNL     1     -43.283 -46.719   9.476  1.00  0.00    -0.256 N 
HETATM    7  C   UNL     1     -44.641 -46.680   9.308  1.00  0.00     0.109 A 
HETATM    8  N   UNL     1     -44.971 -45.430   9.051  1.00  0.00    -0.274 N 
HETATM    9  N   UNL     1     -43.805 -44.708   9.055  1.00  0.00    -0.007 NA
ATOM     10  HN  UNL     1     -45.911 -45.070   8.882  1.00  0.00     0.185 HD
HETATM   11  N   UNL     1     -42.765 -45.488   9.306  1.00  0.00    -0.005 NA
BRANCH   7  12
HETATM   12  C   UNL     1     -45.562 -47.842   9.386  1.00  0.00     0.074 C 
HETATM   13  C   UNL     1     -46.989 -47.440   9.054  1.00  0.00     0.013 C 
ENDBRANCH   7  12
ENDBRANCH   5   6
ENDBRANCH   1   5
BRANCH   3  14
HETATM   14  C   UNL     1     -40.965 -46.515  13.088  1.00  0.00     0.087 C 
HETATM   15  C   UNL     1     -41.997 -45.538  13.654  1.00  0.00     0.045 C 
HETATM   16  C   UNL     1     -41.826 -44.145  13.059  1.00  0.00     0.127 C 
HETATM   17  N   UNL     1     -40.472 -43.626  13.235  1.00  0.00    -0.352 N 
HETATM   18  C   UNL     1     -39.373 -44.528  12.887  1.00  0.00     0.127 C 
HETATM   19  C   UNL     1     -40.173 -42.264  13.222  1.00  0.00     0.215 C 
HETATM   20  C   UNL     1     -39.561 -45.964  13.358  1.00  0.00     0.045 C 
HETATM   21  O   UNL     1     -39.019 -41.843  13.324  1.00  0.00    -0.274 OA
HETATM   22  C   UNL     1     -41.310 -41.279  13.081  1.00  0.00     0.117 C 
ENDBRANCH   3  14
TORSDOF 4
ENDMDL
MODEL 3
REMARK VINA RESULT:      -6.2      5.016      7.229
REMARK  4 active torsions:
REMARK  status: ('A' for Active; 'I' for Inactive)
REMARK    1  A    between atoms: C_2  and  C_3 
REMARK    2  A    between atoms: N_8  and  C_9 
REMARK    3  A    between atoms: C_9  and  C_10 
REMARK       I    between atoms: C_10  and  N_12 
REMARK    4  A    between atoms: N_12  and  C_13 
REMARK       I    between atoms: N_16  and  C_19 
ROOT
HETATM    1  C   UNL     1     -42.704 -53.719  13.805  1.00  0.00     0.237 C 
HETATM    2  O   UNL     1     -42.280 -54.567  14.585  1.00  0.00    -0.272 OA
HETATM    3  N   UNL     1     -42.228 -52.427  13.759  1.00  0.00    -0.355 N 
HETATM    4  H   UNL     1     -42.760 -51.766  13.196  1.00  0.00     0.162 HD
ENDROOT
BRANCH   1   5
HETATM    5  C   UNL     1     -43.854 -54.021  12.866  1.00  0.00     0.250 C 
BRANCH   5   6
HETATM    6  N   UNL     1     -45.120 -54.081  13.548  1.00  0.00    -0.256 N 
HETATM    7  C   UNL     1     -46.120 -53.152  13.649  1.00  0.00     0.109 A 
HETATM    8  N   UNL     1     -47.086 -53.688  14.368  1.00  0.00    -0.274 N 
HETATM    9  N   UNL     1     -46.665 -54.948  14.712  1.00  0.00    -0.007 NA
ATOM     10  HN  UNL     1     -47.973 -53.252  14.619  1.00  0.00     0.185 HD
HETATM   11  N   UNL     1     -45.460 -55.195  14.222  1.00  0.00    -0.005 NA
BRANCH   7  12
HETATM   12  C   UNL     1     -46.103 -51.787  13.065  1.00  0.00     0.074 C 
HETATM   13  C   UNL     1     -46.934 -51.717  11.795  1.00  0.00     0.013 C 
ENDBRANCH   7  12
ENDBRANCH   5   6
ENDBRANCH   1   5
BRANCH   3  14
HETATM   14  C   UNL     1     -41.289 -51.871  14.735  1.00  0.00     0.087 C 
HETATM   15  C   UNL     1     -40.963 -50.419  14.383  1.00  0.00     0.045 C 
HETATM   16  C   UNL     1     -40.123 -50.331  13.113  1.00  0.00     0.127 C 
HETATM   17  N   UNL     1     -38.903 -51.130  13.195  1.00  0.00    -0.352 N 
HETATM   18  C   UNL     1     -39.049 -52.502  13.684  1.00  0.00     0.127 C 
HETATM   19  C   UNL     1     -37.774 -50.874  12.419  1.00  0.00     0.215 C 
HETATM   20  C   UNL     1     -39.979 -52.652  14.880  1.00  0.00     0.045 C 
HETATM   21  O   UNL     1     -36.769 -51.586  12.465  1.00  0.00    -0.274 OA
HETATM   22  C   UNL     1     -37.792 -49.679  11.495  1.00  0.00     0.117 C 
ENDBRANCH   3  14
TORSDOF 4
ENDMDL
MODEL 4
REMARK VINA RESULT:      -6.2      4.995      6.936
REMARK  4 active torsions:
REMARK  status: ('A' for Active; 'I' for Inactive)
REMARK    1  A    between atoms: C_2  and  C_3 
REMARK    2  A    between atoms: N_8  and  C_9 
REMARK    3  A    between atoms: C_9  and  C_10 
REMARK       I    between atoms: C_10  and  N_12 
REMARK    4  A    between atoms: N_12  and  C_13 
REMARK       I    between atoms: N_16  and  C_19 
ROOT
HETATM    1  C   UNL     1     -43.723 -54.744  14.889  1.00  0.00     0.237 C 
HETATM    2  O   UNL     1     -43.428 -55.883  15.239  1.00  0.00    -0.272 OA
HETATM    3  N   UNL     1     -42.833 -53.883  14.286  1.00  0.00    -0.355 N 
HETATM    4  H   UNL     1     -43.131 -52.914  14.190  1.00  0.00     0.162 HD
ENDROOT
BRANCH   1   5
HETATM    5  C   UNL     1     -45.098 -54.169  15.166  1.00  0.00     0.250 C 
BRANCH   5   6
HETATM    6  N   UNL     1     -45.560 -53.314  14.105  1.00  0.00    -0.256 N 
HETATM    7  C   UNL     1     -46.021 -52.026  14.138  1.00  0.00     0.109 A 
HETATM    8  N   UNL     1     -46.308 -51.677  12.900  1.00  0.00    -0.274 N 
HETATM    9  N   UNL     1     -46.026 -52.763  12.111  1.00  0.00    -0.007 NA
ATOM     10  HN  UNL     1     -46.668 -50.775  12.589  1.00  0.00     0.185 HD
HETATM   11  N   UNL     1     -45.575 -53.773  12.840  1.00  0.00    -0.005 NA
BRANCH   7  12
HETATM   12  C   UNL     1     -46.181 -51.189  15.354  1.00  0.00     0.074 C 
HETATM   13  C   UNL     1     -47.485 -51.497  16.071  1.00  0.00     0.013 C 
ENDBRANCH   7  12
ENDBRANCH   5   6
ENDBRANCH   1   5
BRANCH   3  14
HETATM   14  C   UNL     1     -41.403 -54.159  14.144  1.00  0.00     0.087 C 
HETATM   15  C   UNL     1     -40.600 -53.291  15.113  1.00  0.00     0.045 C 
HETATM   16  C   UNL     1     -40.638 -51.822  14.704  1.00  0.00     0.127 C 
HETATM   17  N   UNL     1     -40.187 -51.615  13.330  1.00  0.00    -0.352 N 
HETATM   18  C   UNL     1     -40.756 -52.501  12.313  1.00  0.00     0.127 C 
HETATM   19  C   UNL     1     -39.686 -50.398  12.871  1.00  0.00     0.215 C 
HETATM   20  C   UNL     1     -40.850 -53.962  12.728  1.00  0.00     0.045 C 
HETATM   21  O   UNL     1     -39.355 -50.224  11.697  1.00  0.00    -0.274 OA
HETATM   22  C   UNL     1     -39.546 -49.260  13.856  1.00  0.00     0.117 C 
ENDBRANCH   3  14
TORSDOF 4
ENDMDL
MODEL 5
REMARK VINA RESULT:      -6.2      4.652      5.890
REMARK  4 active torsions:
REMARK  status: ('A' for Active; 'I' for Inactive)
REMARK    1  A    between atoms: C_2  and  C_3 
REMARK    2  A    between atoms: N_8  and  C_9 
REMARK    3  A    between atoms: C_9  and  C_10 
REMARK       I    between atoms: C_10  and  N_12 
REMARK    4  A    between atoms: N_12  and  C_13 
REMARK       I    between atoms: N_16  and  C_19 
ROOT
HETATM    1  C   UNL     1     -39.750 -53.194  13.921  1.00  0.00     0.237 C 
HETATM    2  O   UNL     1     -39.205 -54.239  13.578  1.00  0.00    -0.272 OA
HETATM    3  N   UNL     1     -41.115 -53.058  14.048  1.00  0.00    -0.355 N 
HETATM    4  H   UNL     1     -41.468 -52.111  14.174  1.00  0.00     0.162 HD
ENDROOT
BRANCH   1   5
HETATM    5  C   UNL     1     -38.946 -51.932  14.164  1.00  0.00     0.250 C 
BRANCH   5   6
HETATM    6  N   UNL     1     -38.502 -51.318  12.941  1.00  0.00    -0.256 N 
HETATM    7  C   UNL     1     -39.157 -50.484  12.076  1.00  0.00     0.109 A 
HETATM    8  N   UNL     1     -38.316 -50.178  11.109  1.00  0.00    -0.274 N 
HETATM    9  N   UNL     1     -37.145 -50.838  11.384  1.00  0.00    -0.007 NA
ATOM     10  HN  UNL     1     -38.500 -49.570  10.311  1.00  0.00     0.185 HD
HETATM   11  N   UNL     1     -37.251 -51.545  12.499  1.00  0.00    -0.005 NA
BRANCH   7  12
HETATM   12  C   UNL     1     -40.564 -50.026  12.205  1.00  0.00     0.074 C 
HETATM   13  C   UNL     1     -40.890 -48.948  11.186  1.00  0.00     0.013 C 
ENDBRANCH   7  12
ENDBRANCH   5   6
ENDBRANCH   1   5
BRANCH   3  14
HETATM   14  C   UNL     1     -42.077 -54.080  13.635  1.00  0.00     0.087 C 
HETATM   15  C   UNL     1     -43.094 -53.484  12.661  1.00  0.00     0.045 C 
HETATM   16  C   UNL     1     -44.024 -52.501  13.365  1.00  0.00     0.127 C 
HETATM   17  N   UNL     1     -44.698 -53.098  14.516  1.00  0.00    -0.352 N 
HETATM   18  C   UNL     1     -43.858 -53.850  15.449  1.00  0.00     0.127 C 
HETATM   19  C   UNL     1     -45.899 -52.611  15.029  1.00  0.00     0.215 C 
HETATM   20  C   UNL     1     -42.829 -54.755  14.786  1.00  0.00     0.045 C 
HETATM   21  O   UNL     1     -46.431 -53.095  16.029  1.00  0.00    -0.274 OA
HETATM   22  C   UNL     1     -46.565 -51.452  14.324  1.00  0.00     0.117 C 
ENDBRANCH   3  14
TORSDOF 4
ENDMDL
MODEL 6
REMARK VINA RESULT:      -6.0      2.046      2.801
REMARK  4 active torsions:
REMARK  status: ('A' for Active; 'I' for Inactive)
REMARK    1  A    between atoms: C_2  and  C_3 
REMARK    2  A    between atoms: N_8  and  C_9 
REMARK    3  A    between atoms: C_9  and  C_10 
REMARK       I    between atoms: C_10  and  N_12 
REMARK    4  A    between atoms: N_12  and  C_13 
REMARK       I    between atoms: N_16  and  C_19 
ROOT
HETATM    1  C   UNL     1     -42.871 -49.176  12.567  1.00  0.00     0.237 C 
HETATM    2  O   UNL     1     -42.990 -48.208  13.312  1.00  0.00    -0.272 OA
HETATM    3  N   UNL     1     -43.639 -50.316  12.677  1.00  0.00    -0.355 N 
HETATM    4  H   UNL     1     -43.347 -51.116  12.121  1.00  0.00     0.162 HD
ENDROOT
BRANCH   1   5
HETATM    5  C   UNL     1     -41.800 -49.216  11.496  1.00  0.00     0.250 C 
BRANCH   5   6
HETATM    6  N   UNL     1     -41.530 -47.916  10.940  1.00  0.00    -0.256 N 
HETATM    7  C   UNL     1     -42.271 -47.141  10.090  1.00  0.00     0.109 A 
HETATM    8  N   UNL     1     -41.600 -46.025   9.886  1.00  0.00    -0.274 N 
HETATM    9  N   UNL     1     -40.440 -46.128  10.611  1.00  0.00    -0.007 NA
ATOM     10  HN  UNL     1     -41.887 -45.239   9.303  1.00  0.00     0.185 HD
HETATM   11  N   UNL     1     -40.384 -47.285  11.253  1.00  0.00    -0.005 NA
BRANCH   7  12
HETATM   12  C   UNL     1     -43.583 -47.506   9.498  1.00  0.00     0.074 C 
HETATM   13  C   UNL     1     -43.476 -47.704   7.996  1.00  0.00     0.013 C 
ENDBRANCH   7  12
ENDBRANCH   5   6
ENDBRANCH   1   5
BRANCH   3  14
HETATM   14  C   UNL     1     -44.561 -50.571  13.785  1.00  0.00     0.087 C 
HETATM   15  C   UNL     1     -43.794 -51.108  14.994  1.00  0.00     0.045 C 
HETATM   16  C   UNL     1     -43.273 -52.519  14.739  1.00  0.00     0.127 C 
HETATM   17  N   UNL     1     -44.335 -53.443  14.348  1.00  0.00    -0.352 N 
HETATM   18  C   UNL     1     -45.255 -52.982  13.306  1.00  0.00     0.127 C 
HETATM   19  C   UNL     1     -44.238 -54.824  14.511  1.00  0.00     0.215 C 
HETATM   20  C   UNL     1     -45.706 -51.535  13.455  1.00  0.00     0.045 C 
HETATM   21  O   UNL     1     -45.122 -55.594  14.133  1.00  0.00    -0.274 OA
HETATM   22  C   UNL     1     -43.005 -55.384  15.180  1.00  0.00     0.117 C 
ENDBRANCH   3  14
TORSDOF 4
ENDMDL
MODEL 7
REMARK VINA RESULT:      -5.8      4.777      7.624
REMARK  4 active torsions:
REMARK  status: ('A' for Active; 'I' for Inactive)
REMARK    1  A    between atoms: C_2  and  C_3 
REMARK    2  A    between atoms: N_8  and  C_9 
REMARK    3  A    between atoms: C_9  and  C_10 
REMARK       I    between atoms: C_10  and  N_12 
REMARK    4  A    between atoms: N_12  and  C_13 
REMARK       I    between atoms: N_16  and  C_19 
ROOT
HETATM    1  C   UNL     1     -42.549 -54.134  15.962  1.00  0.00     0.237 C 
HETATM    2  O   UNL     1     -41.790 -54.741  16.711  1.00  0.00    -0.272 OA
HETATM    3  N   UNL     1     -42.171 -53.653  14.727  1.00  0.00    -0.355 N 
HETATM    4  H   UNL     1     -42.825 -53.025  14.264  1.00  0.00     0.162 HD
ENDROOT
BRANCH   1   5
HETATM    5  C   UNL     1     -43.967 -53.801  16.382  1.00  0.00     0.250 C 
BRANCH   5   6
HETATM    6  N   UNL     1     -44.945 -54.263  15.433  1.00  0.00    -0.256 N 
HETATM    7  C   UNL     1     -46.170 -53.752  15.100  1.00  0.00     0.109 A 
HETATM    8  N   UNL     1     -46.679 -54.526  14.162  1.00  0.00    -0.274 N 
HETATM    9  N   UNL     1     -45.759 -55.518  13.931  1.00  0.00    -0.007 NA
ATOM     10  HN  UNL     1     -47.580 -54.411  13.699  1.00  0.00     0.185 HD
HETATM   11  N   UNL     1     -44.698 -55.370  14.709  1.00  0.00    -0.005 NA
BRANCH   7  12
HETATM   12  C   UNL     1     -46.808 -52.555  15.703  1.00  0.00     0.074 C 
HETATM   13  C   UNL     1     -46.769 -51.370  14.753  1.00  0.00     0.013 C 
ENDBRANCH   7  12
ENDBRANCH   5   6
ENDBRANCH   1   5
BRANCH   3  14
HETATM   14  C   UNL     1     -40.792 -53.663  14.238  1.00  0.00     0.087 C 
HETATM   15  C   UNL     1     -40.010 -52.497  14.845  1.00  0.00     0.045 C 
HETATM   16  C   UNL     1     -40.489 -51.159  14.292  1.00  0.00     0.127 C 
HETATM   17  N   UNL     1     -40.439 -51.111  12.832  1.00  0.00    -0.352 N 
HETATM   18  C   UNL     1     -41.008 -52.255  12.118  1.00  0.00     0.127 C 
HETATM   19  C   UNL     1     -40.363 -49.918  12.115  1.00  0.00     0.215 C 
HETATM   20  C   UNL     1     -40.653 -53.611  12.713  1.00  0.00     0.045 C 
HETATM   21  O   UNL     1     -40.370 -49.890  10.883  1.00  0.00    -0.274 OA
HETATM   22  C   UNL     1     -40.265 -48.621  12.884  1.00  0.00     0.117 C 
ENDBRANCH   3  14
TORSDOF 4
ENDMDL
MODEL 8
REMARK VINA RESULT:      -5.7      5.827      7.693
REMARK  4 active torsions:
REMARK  status: ('A' for Active; 'I' for Inactive)
REMARK    1  A    between atoms: C_2  and  C_3 
REMARK    2  A    between atoms: N_8  and  C_9 
REMARK    3  A    between atoms: C_9  and  C_10 
REMARK       I    between atoms: C_10  and  N_12 
REMARK    4  A    between atoms: N_12  and  C_13 
REMARK       I    between atoms: N_16  and  C_19 
ROOT
HETATM    1  C   UNL     1     -44.479 -53.672  13.303  1.00  0.00     0.237 C 
HETATM    2  O   UNL     1     -44.621 -54.465  12.377  1.00  0.00    -0.272 OA
HETATM    3  N   UNL     1     -43.260 -53.401  13.887  1.00  0.00    -0.355 N 
HETATM    4  H   UNL     1     -43.280 -52.859  14.749  1.00  0.00     0.162 HD
ENDROOT
BRANCH   1   5
HETATM    5  C   UNL     1     -45.669 -52.974  13.929  1.00  0.00     0.250 C 
BRANCH   5   6
HETATM    6  N   UNL     1     -45.806 -53.270  15.331  1.00  0.00    -0.256 N 
HETATM    7  C   UNL     1     -46.456 -52.589  16.324  1.00  0.00     0.109 A 
HETATM    8  N   UNL     1     -46.305 -53.276  17.438  1.00  0.00    -0.274 N 
HETATM    9  N   UNL     1     -45.552 -54.377  17.121  1.00  0.00    -0.007 NA
ATOM     10  HN  UNL     1     -46.676 -53.035  18.357  1.00  0.00     0.185 HD
HETATM   11  N   UNL     1     -45.235 -54.379  15.835  1.00  0.00    -0.005 NA
BRANCH   7  12
HETATM   12  C   UNL     1     -47.182 -51.303  16.167  1.00  0.00     0.074 C 
HETATM   13  C   UNL     1     -48.118 -51.049  17.336  1.00  0.00     0.013 C 
ENDBRANCH   7  12
ENDBRANCH   5   6
ENDBRANCH   1   5
BRANCH   3  14
HETATM   14  C   UNL     1     -42.033 -54.139  13.589  1.00  0.00     0.087 C 
HETATM   15  C   UNL     1     -41.317 -54.516  14.887  1.00  0.00     0.045 C 
HETATM   16  C   UNL     1     -40.736 -53.286  15.577  1.00  0.00     0.127 C 
HETATM   17  N   UNL     1     -39.852 -52.521  14.701  1.00  0.00    -0.352 N 
HETATM   18  C   UNL     1     -40.351 -52.233  13.355  1.00  0.00     0.127 C 
HETATM   19  C   UNL     1     -38.860 -51.668  15.182  1.00  0.00     0.215 C 
HETATM   20  C   UNL     1     -41.048 -53.403  12.675  1.00  0.00     0.045 C 
HETATM   21  O   UNL     1     -38.153 -50.993  14.431  1.00  0.00    -0.274 OA
HETATM   22  C   UNL     1     -38.649 -51.578  16.675  1.00  0.00     0.117 C 
ENDBRANCH   3  14
TORSDOF 4
ENDMDL
MODEL 9
REMARK VINA RESULT:      -5.4      3.334      6.605
REMARK  4 active torsions:
REMARK  status: ('A' for Active; 'I' for Inactive)
REMARK    1  A    between atoms: C_2  and  C_3 
REMARK    2  A    between atoms: N_8  and  C_9 
REMARK    3  A    between atoms: C_9  and  C_10 
REMARK       I    between atoms: C_10  and  N_12 
REMARK    4  A    between atoms: N_12  and  C_13 
REMARK       I    between atoms: N_16  and  C_19 
ROOT
HETATM    1  C   UNL     1     -39.922 -47.611  14.317  1.00  0.00     0.237 C 
HETATM    2  O   UNL     1     -39.806 -46.892  15.304  1.00  0.00    -0.272 OA
HETATM    3  N   UNL     1     -40.546 -47.207  13.155  1.00  0.00    -0.355 N 
HETATM    4  H   UNL     1     -40.733 -47.931  12.465  1.00  0.00     0.162 HD
ENDROOT
BRANCH   1   5
HETATM    5  C   UNL     1     -39.441 -49.047  14.330  1.00  0.00     0.250 C 
BRANCH   5   6
HETATM    6  N   UNL     1     -38.970 -49.482  13.041  1.00  0.00    -0.256 N 
HETATM    7  C   UNL     1     -39.596 -50.209  12.065  1.00  0.00     0.109 A 
HETATM    8  N   UNL     1     -38.750 -50.333  11.062  1.00  0.00    -0.274 N 
HETATM    9  N   UNL     1     -37.601 -49.684  11.436  1.00  0.00    -0.007 NA
ATOM     10  HN  UNL     1     -38.918 -50.817  10.180  1.00  0.00     0.185 HD
HETATM   11  N   UNL     1     -37.723 -49.167  12.649  1.00  0.00    -0.005 NA
BRANCH   7  12
HETATM   12  C   UNL     1     -40.971 -50.766  12.139  1.00  0.00     0.074 C 
HETATM   13  C   UNL     1     -40.961 -52.281  12.036  1.00  0.00     0.013 C 
ENDBRANCH   7  12
ENDBRANCH   5   6
ENDBRANCH   1   5
BRANCH   3  14
HETATM   14  C   UNL     1     -41.280 -45.949  13.022  1.00  0.00     0.087 C 
HETATM   15  C   UNL     1     -42.786 -46.215  13.034  1.00  0.00     0.045 C 
HETATM   16  C   UNL     1     -43.234 -46.930  11.764  1.00  0.00     0.127 C 
HETATM   17  N   UNL     1     -42.846 -46.211  10.553  1.00  0.00    -0.352 N 
HETATM   18  C   UNL     1     -41.460 -45.746  10.482  1.00  0.00     0.127 C 
HETATM   19  C   UNL     1     -43.501 -46.370   9.333  1.00  0.00     0.215 C 
HETATM   20  C   UNL     1     -40.932 -45.133  11.772  1.00  0.00     0.045 C 
HETATM   21  O   UNL     1     -43.132 -45.793   8.308  1.00  0.00    -0.274 OA
HETATM   22  C   UNL     1     -44.705 -47.280   9.276  1.00  0.00     0.117 C 
ENDBRANCH   3  14
TORSDOF 4
ENDMDL
