MODEL 1
REMARK VINA RESULT:      -6.3      0.000      0.000
REMARK  5 active torsions:
REMARK  status: ('A' for Active; 'I' for Inactive)
REMARK    1  A    between atoms: C_2  and  N_3 
REMARK       I    between atoms: N_3  and  C_4 
REMARK    2  A    between atoms: C_4  and  C_6 
REMARK    3  A    between atoms: C_6  and  N_7 
REMARK    4  A    between atoms: C_10  and  N_11 
REMARK       I    between atoms: N_11  and  C_12 
REMARK    5  A    between atoms: C_12  and  C_14 
ROOT
HETATM    1  N   UNL     1     -42.032 -47.310  10.437  1.00  0.00    -0.293 N 
HETATM    2  C   UNL     1     -40.791 -47.185  10.988  1.00  0.00     0.114 A 
HETATM    3  C   UNL     1     -40.535 -48.393  11.595  1.00  0.00     0.068 A 
HETATM    4  C   UNL     1     -41.678 -49.196  11.350  1.00  0.00     0.123 A 
HETATM    5  N   UNL     1     -42.592 -48.515  10.662  1.00  0.00    -0.283 N 
ATOM      6  HN  UNL     1     -43.515 -48.835  10.368  1.00  0.00     0.189 HD
ENDROOT
BRANCH   4   7
HETATM    7  N   UNL     1     -41.805 -50.499  11.783  1.00  0.00    -0.312 N 
HETATM    8  C   UNL     1     -42.727 -50.958  12.703  1.00  0.00     0.229 C 
HETATM    9  O   UNL     1     -43.598 -50.308  13.262  1.00  0.00    -0.273 OA
HETATM   10  H   UNL     1     -41.181 -51.163  11.351  1.00  0.00     0.170 HD
BRANCH   8  11
HETATM   11  C   UNL     1     -42.576 -52.434  12.952  1.00  0.00     0.095 A 
HETATM   12  C   UNL     1     -42.831 -53.152  14.278  1.00  0.00    -0.027 A 
HETATM   13  C   UNL     1     -43.205 -52.423  15.551  1.00  0.00     0.016 C 
HETATM   14  C   UNL     1     -43.535 -54.497  14.195  1.00  0.00     0.016 C 
HETATM   15  C   UNL     1     -41.398 -53.017  13.727  1.00  0.00    -0.027 A 
HETATM   16  C   UNL     1     -40.709 -54.236  13.148  1.00  0.00     0.016 C 
HETATM   17  C   UNL     1     -40.405 -52.092  14.397  1.00  0.00     0.016 C 
ENDBRANCH   8  11
ENDBRANCH   4   7
BRANCH   1  18
HETATM   18  C   UNL     1     -42.769 -46.306   9.686  1.00  0.00     0.250 C 
BRANCH  18  19
HETATM   19  C   UNL     1     -43.977 -46.859   8.956  1.00  0.00     0.237 C 
HETATM   20  N   UNL     1     -45.207 -46.517   9.466  1.00  0.00    -0.360 N 
HETATM   21  H   UNL     1     -45.233 -45.872  10.264  1.00  0.00     0.162 HD
HETATM   22  O   UNL     1     -43.843 -47.529   7.931  1.00  0.00    -0.272 OA
BRANCH  20  23
HETATM   23  C   UNL     1     -46.459 -46.945   8.888  1.00  0.00     0.118 C 
HETATM   24  C   UNL     1     -46.706 -48.422   9.127  1.00  0.00     0.026 C 
ENDBRANCH  20  23
ENDBRANCH  18  19
ENDBRANCH   1  18
TORSDOF 5
ENDMDL
MODEL 2
REMARK VINA RESULT:      -6.2      1.931      2.856
REMARK  5 active torsions:
REMARK  status: ('A' for Active; 'I' for Inactive)
REMARK    1  A    between atoms: C_2  and  N_3 
REMARK       I    between atoms: N_3  and  C_4 
REMARK    2  A    between atoms: C_4  and  C_6 
REMARK    3  A    between atoms: C_6  and  N_7 
REMARK    4  A    between atoms: C_10  and  N_11 
REMARK       I    between atoms: N_11  and  C_12 
REMARK    5  A    between atoms: C_12  and  C_14 
ROOT
HETATM    1  N   UNL     1     -42.298 -48.051  10.739  1.00  0.00    -0.293 N 
HETATM    2  C   UNL     1     -41.139 -48.690  11.069  1.00  0.00     0.114 A 
HETATM    3  C   UNL     1     -41.474 -49.559  12.081  1.00  0.00     0.068 A 
HETATM    4  C   UNL     1     -42.866 -49.385  12.293  1.00  0.00     0.123 A 
HETATM    5  N   UNL     1     -43.350 -48.446  11.482  1.00  0.00    -0.283 N 
ATOM      6  HN  UNL     1     -44.309 -48.102  11.434  1.00  0.00     0.189 HD
ENDROOT
BRANCH   4   7
HETATM    7  N   UNL     1     -43.594 -50.097  13.222  1.00  0.00    -0.312 N 
HETATM    8  C   UNL     1     -43.676 -51.472  13.303  1.00  0.00     0.229 C 
HETATM    9  O   UNL     1     -43.102 -52.289  12.597  1.00  0.00    -0.273 OA
HETATM   10  H   UNL     1     -44.075 -49.542  13.914  1.00  0.00     0.170 HD
BRANCH   8  11
HETATM   11  C   UNL     1     -44.570 -51.911  14.431  1.00  0.00     0.095 A 
HETATM   12  C   UNL     1     -45.289 -53.257  14.535  1.00  0.00    -0.027 A 
HETATM   13  C   UNL     1     -45.239 -54.305  13.443  1.00  0.00     0.016 C 
HETATM   14  C   UNL     1     -45.315 -53.905  15.910  1.00  0.00     0.016 C 
HETATM   15  C   UNL     1     -46.090 -51.962  14.298  1.00  0.00    -0.027 A 
HETATM   16  C   UNL     1     -46.913 -51.382  15.431  1.00  0.00     0.016 C 
HETATM   17  C   UNL     1     -46.738 -51.697  12.956  1.00  0.00     0.016 C 
ENDBRANCH   8  11
ENDBRANCH   4   7
BRANCH   1  18
HETATM   18  C   UNL     1     -42.481 -47.026   9.724  1.00  0.00     0.250 C 
BRANCH  18  19
HETATM   19  C   UNL     1     -43.762 -47.183   8.927  1.00  0.00     0.237 C 
HETATM   20  N   UNL     1     -44.861 -46.505   9.399  1.00  0.00    -0.360 N 
HETATM   21  H   UNL     1     -44.736 -45.900  10.218  1.00  0.00     0.162 HD
HETATM   22  O   UNL     1     -43.780 -47.839   7.885  1.00  0.00    -0.272 OA
BRANCH  20  23
HETATM   23  C   UNL     1     -46.154 -46.533   8.757  1.00  0.00     0.118 C 
HETATM   24  C   UNL     1     -46.945 -47.765   9.152  1.00  0.00     0.026 C 
ENDBRANCH  20  23
ENDBRANCH  18  19
ENDBRANCH   1  18
TORSDOF 5
ENDMDL
MODEL 3
REMARK VINA RESULT:      -6.0      0.973      1.147
REMARK  5 active torsions:
REMARK  status: ('A' for Active; 'I' for Inactive)
REMARK    1  A    between atoms: C_2  and  N_3 
REMARK       I    between atoms: N_3  and  C_4 
REMARK    2  A    between atoms: C_4  and  C_6 
REMARK    3  A    between atoms: C_6  and  N_7 
REMARK    4  A    between atoms: C_10  and  N_11 
REMARK       I    between atoms: N_11  and  C_12 
REMARK    5  A    between atoms: C_12  and  C_14 
ROOT
HETATM    1  N   UNL     1     -41.891 -47.745  10.807  1.00  0.00    -0.293 N 
HETATM    2  C   UNL     1     -40.630 -47.851  11.315  1.00  0.00     0.114 A 
HETATM    3  C   UNL     1     -40.575 -49.090  11.909  1.00  0.00     0.068 A 
HETATM    4  C   UNL     1     -41.852 -49.672  11.702  1.00  0.00     0.123 A 
HETATM    5  N   UNL     1     -42.651 -48.831  11.048  1.00  0.00    -0.283 N 
ATOM      6  HN  UNL     1     -43.626 -48.977  10.786  1.00  0.00     0.189 HD
ENDROOT
BRANCH   4   7
HETATM    7  N   UNL     1     -42.198 -50.935  12.135  1.00  0.00    -0.312 N 
HETATM    8  C   UNL     1     -43.334 -51.261  12.848  1.00  0.00     0.229 C 
HETATM    9  O   UNL     1     -44.235 -50.506  13.188  1.00  0.00    -0.273 OA
HETATM   10  H   UNL     1     -41.567 -51.674  11.867  1.00  0.00     0.170 HD
BRANCH   8  11
HETATM   11  C   UNL     1     -43.389 -52.730  13.167  1.00  0.00     0.095 A 
HETATM   12  C   UNL     1     -44.381 -53.408  14.114  1.00  0.00    -0.027 A 
HETATM   13  C   UNL     1     -45.407 -52.640  14.919  1.00  0.00     0.016 C 
HETATM   14  C   UNL     1     -44.936 -54.750  13.664  1.00  0.00     0.016 C 
HETATM   15  C   UNL     1     -42.891 -53.299  14.493  1.00  0.00    -0.027 A 
HETATM   16  C   UNL     1     -42.021 -54.538  14.444  1.00  0.00     0.016 C 
HETATM   17  C   UNL     1     -42.450 -52.361  15.597  1.00  0.00     0.016 C 
ENDBRANCH   8  11
ENDBRANCH   4   7
BRANCH   1  18
HETATM   18  C   UNL     1     -42.459 -46.618  10.086  1.00  0.00     0.250 C 
BRANCH  18  19
HETATM   19  C   UNL     1     -43.629 -46.993   9.197  1.00  0.00     0.237 C 
HETATM   20  N   UNL     1     -44.870 -46.570   9.611  1.00  0.00    -0.360 N 
HETATM   21  H   UNL     1     -44.921 -45.988  10.453  1.00  0.00     0.162 HD
HETATM   22  O   UNL     1     -43.448 -47.594   8.137  1.00  0.00    -0.272 OA
BRANCH  20  23
HETATM   23  C   UNL     1     -46.087 -46.829   8.879  1.00  0.00     0.118 C 
HETATM   24  C   UNL     1     -46.586 -48.242   9.110  1.00  0.00     0.026 C 
ENDBRANCH  20  23
ENDBRANCH  18  19
ENDBRANCH   1  18
TORSDOF 5
ENDMDL
MODEL 4
REMARK VINA RESULT:      -5.8      2.785      6.608
REMARK  5 active torsions:
REMARK  status: ('A' for Active; 'I' for Inactive)
REMARK    1  A    between atoms: C_2  and  N_3 
REMARK       I    between atoms: N_3  and  C_4 
REMARK    2  A    between atoms: C_4  and  C_6 
REMARK    3  A    between atoms: C_6  and  N_7 
REMARK    4  A    between atoms: C_10  and  N_11 
REMARK       I    between atoms: N_11  and  C_12 
REMARK    5  A    between atoms: C_12  and  C_14 
ROOT
HETATM    1  N   UNL     1     -42.549 -53.288  12.854  1.00  0.00    -0.293 N 
HETATM    2  C   UNL     1     -41.199 -53.450  12.942  1.00  0.00     0.114 A 
HETATM    3  C   UNL     1     -40.656 -52.298  12.420  1.00  0.00     0.068 A 
HETATM    4  C   UNL     1     -41.759 -51.487  12.048  1.00  0.00     0.123 A 
HETATM    5  N   UNL     1     -42.907 -52.113  12.298  1.00  0.00    -0.283 N 
ATOM      6  HN  UNL     1     -43.852 -51.777  12.111  1.00  0.00     0.189 HD
ENDROOT
BRANCH   4   7
HETATM    7  N   UNL     1     -41.634 -50.230  11.497  1.00  0.00    -0.312 N 
HETATM    8  C   UNL     1     -40.932 -49.175  12.044  1.00  0.00     0.229 C 
HETATM    9  O   UNL     1     -40.282 -49.178  13.080  1.00  0.00    -0.273 OA
HETATM   10  H   UNL     1     -42.075 -50.103  10.599  1.00  0.00     0.170 HD
BRANCH   8  11
HETATM   11  C   UNL     1     -41.016 -47.944  11.183  1.00  0.00     0.095 A 
HETATM   12  C   UNL     1     -40.602 -46.530  11.593  1.00  0.00    -0.027 A 
HETATM   13  C   UNL     1     -40.113 -46.186  12.984  1.00  0.00     0.016 C 
HETATM   14  C   UNL     1     -39.876 -45.706  10.542  1.00  0.00     0.016 C 
HETATM   15  C   UNL     1     -42.089 -46.877  11.382  1.00  0.00    -0.027 A 
HETATM   16  C   UNL     1     -42.803 -46.359  10.150  1.00  0.00     0.016 C 
HETATM   17  C   UNL     1     -43.029 -46.966  12.565  1.00  0.00     0.016 C 
ENDBRANCH   8  11
ENDBRANCH   4   7
BRANCH   1  18
HETATM   18  C   UNL     1     -43.579 -54.228  13.268  1.00  0.00     0.250 C 
BRANCH  18  19
HETATM   19  C   UNL     1     -44.976 -53.639  13.263  1.00  0.00     0.237 C 
HETATM   20  N   UNL     1     -45.565 -53.456  14.493  1.00  0.00    -0.360 N 
HETATM   21  H   UNL     1     -45.009 -53.674  15.327  1.00  0.00     0.162 HD
HETATM   22  O   UNL     1     -45.513 -53.297  12.209  1.00  0.00    -0.272 OA
BRANCH  20  23
HETATM   23  C   UNL     1     -46.883 -52.896  14.672  1.00  0.00     0.118 C 
HETATM   24  C   UNL     1     -46.843 -51.381  14.720  1.00  0.00     0.026 C 
ENDBRANCH  20  23
ENDBRANCH  18  19
ENDBRANCH   1  18
TORSDOF 5
ENDMDL
MODEL 5
REMARK VINA RESULT:      -5.7      3.360      5.876
REMARK  5 active torsions:
REMARK  status: ('A' for Active; 'I' for Inactive)
REMARK    1  A    between atoms: C_2  and  N_3 
REMARK       I    between atoms: N_3  and  C_4 
REMARK    2  A    between atoms: C_4  and  C_6 
REMARK    3  A    between atoms: C_6  and  N_7 
REMARK    4  A    between atoms: C_10  and  N_11 
REMARK       I    between atoms: N_11  and  C_12 
REMARK    5  A    between atoms: C_12  and  C_14 
ROOT
HETATM    1  N   UNL     1     -39.694 -49.427  11.731  1.00  0.00    -0.293 N 
HETATM    2  C   UNL     1     -40.129 -48.189  11.361  1.00  0.00     0.114 A 
HETATM    3  C   UNL     1     -41.494 -48.212  11.535  1.00  0.00     0.068 A 
HETATM    4  C   UNL     1     -41.797 -49.509  12.025  1.00  0.00     0.123 A 
HETATM    5  N   UNL     1     -40.692 -50.245  12.119  1.00  0.00    -0.283 N 
ATOM      6  HN  UNL     1     -40.617 -51.218  12.418  1.00  0.00     0.189 HD
ENDROOT
BRANCH   4   7
HETATM    7  N   UNL     1     -43.071 -49.928  12.346  1.00  0.00    -0.312 N 
HETATM    8  C   UNL     1     -43.447 -50.537  13.526  1.00  0.00     0.229 C 
HETATM    9  O   UNL     1     -42.736 -50.780  14.491  1.00  0.00    -0.273 OA
HETATM   10  H   UNL     1     -43.779 -49.731  11.655  1.00  0.00     0.170 HD
BRANCH   8  11
HETATM   11  C   UNL     1     -44.913 -50.873  13.536  1.00  0.00     0.095 A 
HETATM   12  C   UNL     1     -45.597 -51.883  14.458  1.00  0.00    -0.027 A 
HETATM   13  C   UNL     1     -44.838 -52.740  15.448  1.00  0.00     0.016 C 
HETATM   14  C   UNL     1     -46.954 -51.480  15.015  1.00  0.00     0.016 C 
HETATM   15  C   UNL     1     -45.459 -52.173  12.951  1.00  0.00    -0.027 A 
HETATM   16  C   UNL     1     -46.685 -52.085  12.064  1.00  0.00     0.016 C 
HETATM   17  C   UNL     1     -44.502 -53.239  12.461  1.00  0.00     0.016 C 
ENDBRANCH   8  11
ENDBRANCH   4   7
BRANCH   1  18
HETATM   18  C   UNL     1     -38.325 -49.918  11.726  1.00  0.00     0.250 C 
BRANCH  18  19
HETATM   19  C   UNL     1     -37.934 -50.640  13.002  1.00  0.00     0.237 C 
HETATM   20  N   UNL     1     -37.656 -49.848  14.090  1.00  0.00    -0.360 N 
HETATM   21  H   UNL     1     -37.782 -48.834  13.990  1.00  0.00     0.162 HD
HETATM   22  O   UNL     1     -37.929 -51.870  13.054  1.00  0.00    -0.272 OA
BRANCH  20  23
HETATM   23  C   UNL     1     -37.281 -50.369  15.383  1.00  0.00     0.118 C 
HETATM   24  C   UNL     1     -36.099 -49.619  15.965  1.00  0.00     0.026 C 
ENDBRANCH  20  23
ENDBRANCH  18  19
ENDBRANCH   1  18
TORSDOF 5
ENDMDL
MODEL 6
REMARK VINA RESULT:      -5.6      3.973      6.671
REMARK  5 active torsions:
REMARK  status: ('A' for Active; 'I' for Inactive)
REMARK    1  A    between atoms: C_2  and  N_3 
REMARK       I    between atoms: N_3  and  C_4 
REMARK    2  A    between atoms: C_4  and  C_6 
REMARK    3  A    between atoms: C_6  and  N_7 
REMARK    4  A    between atoms: C_10  and  N_11 
REMARK       I    between atoms: N_11  and  C_12 
REMARK    5  A    between atoms: C_12  and  C_14 
ROOT
HETATM    1  N   UNL     1     -42.422 -54.545  14.597  1.00  0.00    -0.293 N 
HETATM    2  C   UNL     1     -41.295 -54.833  15.309  1.00  0.00     0.114 A 
HETATM    3  C   UNL     1     -40.336 -53.963  14.847  1.00  0.00     0.068 A 
HETATM    4  C   UNL     1     -40.977 -53.174  13.857  1.00  0.00     0.123 A 
HETATM    5  N   UNL     1     -42.243 -53.556  13.700  1.00  0.00    -0.283 N 
ATOM      6  HN  UNL     1     -42.928 -53.181  13.044  1.00  0.00     0.189 HD
ENDROOT
BRANCH   4   7
HETATM    7  N   UNL     1     -40.351 -52.162  13.161  1.00  0.00    -0.312 N 
HETATM    8  C   UNL     1     -40.941 -50.986  12.743  1.00  0.00     0.229 C 
HETATM    9  O   UNL     1     -42.093 -50.626  12.940  1.00  0.00    -0.273 OA
HETATM   10  H   UNL     1     -39.369 -52.301  12.981  1.00  0.00     0.170 HD
BRANCH   8  11
HETATM   11  C   UNL     1     -39.970 -50.110  11.998  1.00  0.00     0.095 A 
HETATM   12  C   UNL     1     -38.505 -49.875  12.370  1.00  0.00    -0.027 A 
HETATM   13  C   UNL     1     -37.866 -50.458  13.612  1.00  0.00     0.016 C 
HETATM   14  C   UNL     1     -37.513 -49.831  11.218  1.00  0.00     0.016 C 
HETATM   15  C   UNL     1     -39.538 -48.741  12.517  1.00  0.00    -0.027 A 
HETATM   16  C   UNL     1     -39.521 -47.590  11.532  1.00  0.00     0.016 C 
HETATM   17  C   UNL     1     -39.981 -48.282  13.890  1.00  0.00     0.016 C 
ENDBRANCH   8  11
ENDBRANCH   4   7
BRANCH   1  18
HETATM   18  C   UNL     1     -43.721 -55.191  14.703  1.00  0.00     0.250 C 
BRANCH  18  19
HETATM   19  C   UNL     1     -44.828 -54.449  13.979  1.00  0.00     0.237 C 
HETATM   20  N   UNL     1     -45.671 -53.697  14.763  1.00  0.00    -0.360 N 
HETATM   21  H   UNL     1     -45.469 -53.640  15.767  1.00  0.00     0.162 HD
HETATM   22  O   UNL     1     -44.914 -54.485  12.751  1.00  0.00    -0.272 OA
BRANCH  20  23
HETATM   23  C   UNL     1     -46.768 -52.919  14.238  1.00  0.00     0.118 C 
HETATM   24  C   UNL     1     -46.425 -51.443  14.178  1.00  0.00     0.026 C 
ENDBRANCH  20  23
ENDBRANCH  18  19
ENDBRANCH   1  18
TORSDOF 5
ENDMDL
MODEL 7
REMARK VINA RESULT:      -5.5      2.982      7.394
REMARK  5 active torsions:
REMARK  status: ('A' for Active; 'I' for Inactive)
REMARK    1  A    between atoms: C_2  and  N_3 
REMARK       I    between atoms: N_3  and  C_4 
REMARK    2  A    between atoms: C_4  and  C_6 
REMARK    3  A    between atoms: C_6  and  N_7 
REMARK    4  A    between atoms: C_10  and  N_11 
REMARK       I    between atoms: N_11  and  C_12 
REMARK    5  A    between atoms: C_12  and  C_14 
ROOT
HETATM    1  N   UNL     1     -38.568 -51.373  13.191  1.00  0.00    -0.293 N 
HETATM    2  C   UNL     1     -37.340 -51.132  12.648  1.00  0.00     0.114 A 
HETATM    3  C   UNL     1     -37.469 -49.949  11.958  1.00  0.00     0.068 A 
HETATM    4  C   UNL     1     -38.814 -49.538  12.147  1.00  0.00     0.123 A 
HETATM    5  N   UNL     1     -39.478 -50.428  12.882  1.00  0.00    -0.283 N 
ATOM      6  HN  UNL     1     -40.461 -50.400  13.154  1.00  0.00     0.189 HD
ENDROOT
BRANCH   4   7
HETATM    7  N   UNL     1     -39.340 -48.377  11.624  1.00  0.00    -0.312 N 
HETATM    8  C   UNL     1     -40.670 -48.155  11.325  1.00  0.00     0.229 C 
HETATM    9  O   UNL     1     -41.603 -48.926  11.498  1.00  0.00    -0.273 OA
HETATM   10  H   UNL     1     -38.682 -47.625  11.487  1.00  0.00     0.170 HD
BRANCH   8  11
HETATM   11  C   UNL     1     -40.891 -46.780  10.757  1.00  0.00     0.095 A 
HETATM   12  C   UNL     1     -40.382 -45.468  11.357  1.00  0.00    -0.027 A 
HETATM   13  C   UNL     1     -39.634 -45.398  12.671  1.00  0.00     0.016 C 
HETATM   14  C   UNL     1     -39.851 -44.437  10.373  1.00  0.00     0.016 C 
HETATM   15  C   UNL     1     -41.888 -45.795  11.363  1.00  0.00    -0.027 A 
HETATM   16  C   UNL     1     -42.811 -45.056  10.416  1.00  0.00     0.016 C 
HETATM   17  C   UNL     1     -42.590 -46.136  12.660  1.00  0.00     0.016 C 
ENDBRANCH   8  11
ENDBRANCH   4   7
BRANCH   1  18
HETATM   18  C   UNL     1     -38.962 -52.507  14.011  1.00  0.00     0.250 C 
BRANCH  18  19
HETATM   19  C   UNL     1     -40.238 -53.181  13.543  1.00  0.00     0.237 C 
HETATM   20  N   UNL     1     -41.155 -53.496  14.519  1.00  0.00    -0.360 N 
HETATM   21  H   UNL     1     -40.946 -53.210  15.482  1.00  0.00     0.162 HD
HETATM   22  O   UNL     1     -40.447 -53.373  12.345  1.00  0.00    -0.272 OA
BRANCH  20  23
HETATM   23  C   UNL     1     -42.425 -54.126  14.248  1.00  0.00     0.118 C 
HETATM   24  C   UNL     1     -42.729 -55.219  15.254  1.00  0.00     0.026 C 
ENDBRANCH  20  23
ENDBRANCH  18  19
ENDBRANCH   1  18
TORSDOF 5
ENDMDL
MODEL 8
REMARK VINA RESULT:      -5.5      3.675      6.121
REMARK  5 active torsions:
REMARK  status: ('A' for Active; 'I' for Inactive)
REMARK    1  A    between atoms: C_2  and  N_3 
REMARK       I    between atoms: N_3  and  C_4 
REMARK    2  A    between atoms: C_4  and  C_6 
REMARK    3  A    between atoms: C_6  and  N_7 
REMARK    4  A    between atoms: C_10  and  N_11 
REMARK       I    between atoms: N_11  and  C_12 
REMARK    5  A    between atoms: C_12  and  C_14 
ROOT
HETATM    1  N   UNL     1     -39.138 -50.026  12.258  1.00  0.00    -0.293 N 
HETATM    2  C   UNL     1     -39.702 -49.073  11.463  1.00  0.00     0.114 A 
HETATM    3  C   UNL     1     -41.014 -49.454  11.306  1.00  0.00     0.068 A 
HETATM    4  C   UNL     1     -41.159 -50.651  12.052  1.00  0.00     0.123 A 
HETATM    5  N   UNL     1     -40.001 -51.000  12.610  1.00  0.00    -0.283 N 
ATOM      6  HN  UNL     1     -39.809 -51.824  13.179  1.00  0.00     0.189 HD
ENDROOT
BRANCH   4   7
HETATM    7  N   UNL     1     -42.345 -51.345  12.165  1.00  0.00    -0.312 N 
HETATM    8  C   UNL     1     -42.470 -52.688  12.457  1.00  0.00     0.229 C 
HETATM    9  O   UNL     1     -41.569 -53.479  12.695  1.00  0.00    -0.273 OA
HETATM   10  H   UNL     1     -43.183 -50.795  12.051  1.00  0.00     0.170 HD
BRANCH   8  11
HETATM   11  C   UNL     1     -43.911 -53.119  12.489  1.00  0.00     0.095 A 
HETATM   12  C   UNL     1     -45.061 -52.361  13.155  1.00  0.00    -0.027 A 
HETATM   13  C   UNL     1     -44.859 -51.086  13.946  1.00  0.00     0.016 C 
HETATM   14  C   UNL     1     -46.378 -52.327  12.396  1.00  0.00     0.016 C 
HETATM   15  C   UNL     1     -44.565 -53.697  13.742  1.00  0.00    -0.027 A 
HETATM   16  C   UNL     1     -45.418 -54.939  13.581  1.00  0.00     0.016 C 
HETATM   17  C   UNL     1     -43.800 -53.721  15.048  1.00  0.00     0.016 C 
ENDBRANCH   8  11
ENDBRANCH   4   7
BRANCH   1  18
HETATM   18  C   UNL     1     -37.760 -50.090  12.717  1.00  0.00     0.250 C 
BRANCH  18  19
HETATM   19  C   UNL     1     -37.616 -49.979  14.223  1.00  0.00     0.237 C 
HETATM   20  N   UNL     1     -37.179 -48.768  14.707  1.00  0.00    -0.360 N 
HETATM   21  H   UNL     1     -37.033 -48.008  14.034  1.00  0.00     0.162 HD
HETATM   22  O   UNL     1     -37.934 -50.915  14.958  1.00  0.00    -0.272 OA
BRANCH  20  23
HETATM   23  C   UNL     1     -37.000 -48.487  16.111  1.00  0.00     0.118 C 
HETATM   24  C   UNL     1     -35.574 -48.752  16.554  1.00  0.00     0.026 C 
ENDBRANCH  20  23
ENDBRANCH  18  19
ENDBRANCH   1  18
TORSDOF 5
ENDMDL
MODEL 9
REMARK VINA RESULT:      -5.5      2.681      6.942
REMARK  5 active torsions:
REMARK  status: ('A' for Active; 'I' for Inactive)
REMARK    1  A    between atoms: C_2  and  N_3 
REMARK       I    between atoms: N_3  and  C_4 
REMARK    2  A    between atoms: C_4  and  C_6 
REMARK    3  A    between atoms: C_6  and  N_7 
REMARK    4  A    between atoms: C_10  and  N_11 
REMARK       I    between atoms: N_11  and  C_12 
REMARK    5  A    between atoms: C_12  and  C_14 
ROOT
HETATM    1  N   UNL     1     -40.819 -51.467  11.869  1.00  0.00    -0.293 N 
HETATM    2  C   UNL     1     -39.563 -51.274  12.363  1.00  0.00     0.114 A 
HETATM    3  C   UNL     1     -39.298 -49.936  12.181  1.00  0.00     0.068 A 
HETATM    4  C   UNL     1     -40.460 -49.393  11.575  1.00  0.00     0.123 A 
HETATM    5  N   UNL     1     -41.371 -50.343  11.371  1.00  0.00    -0.283 N 
ATOM      6  HN  UNL     1     -42.287 -50.242  10.933  1.00  0.00     0.189 HD
ENDROOT
BRANCH   4   7
HETATM    7  N   UNL     1     -40.601 -48.062  11.246  1.00  0.00    -0.312 N 
HETATM    8  C   UNL     1     -41.795 -47.410  11.011  1.00  0.00     0.229 C 
HETATM    9  O   UNL     1     -42.921 -47.882  11.083  1.00  0.00    -0.273 OA
HETATM   10  H   UNL     1     -39.745 -47.530  11.212  1.00  0.00     0.170 HD
BRANCH   8  11
HETATM   11  C   UNL     1     -41.580 -45.962  10.663  1.00  0.00     0.095 A 
HETATM   12  C   UNL     1     -40.547 -45.030  11.298  1.00  0.00    -0.027 A 
HETATM   13  C   UNL     1     -39.644 -45.454  12.436  1.00  0.00     0.016 C 
HETATM   14  C   UNL     1     -39.826 -44.079  10.356  1.00  0.00     0.016 C 
HETATM   15  C   UNL     1     -42.051 -44.825  11.567  1.00  0.00    -0.027 A 
HETATM   16  C   UNL     1     -42.769 -43.660  10.915  1.00  0.00     0.016 C 
HETATM   17  C   UNL     1     -42.634 -45.137  12.929  1.00  0.00     0.016 C 
ENDBRANCH   8  11
ENDBRANCH   4   7
BRANCH   1  18
HETATM   18  C   UNL     1     -41.565 -52.714  11.819  1.00  0.00     0.250 C 
BRANCH  18  19
HETATM   19  C   UNL     1     -42.862 -52.679  12.604  1.00  0.00     0.237 C 
HETATM   20  N   UNL     1     -43.787 -53.648  12.297  1.00  0.00    -0.360 N 
HETATM   21  H   UNL     1     -43.525 -54.359  11.605  1.00  0.00     0.162 HD
HETATM   22  O   UNL     1     -43.033 -51.854  13.502  1.00  0.00    -0.272 OA
BRANCH  20  23
HETATM   23  C   UNL     1     -45.067 -53.769  12.955  1.00  0.00     0.118 C 
HETATM   24  C   UNL     1     -45.102 -54.963  13.889  1.00  0.00     0.026 C 
ENDBRANCH  20  23
ENDBRANCH  18  19
ENDBRANCH   1  18
TORSDOF 5
ENDMDL
