MODEL 1
REMARK VINA RESULT:      -5.8      0.000      0.000
REMARK  9 active torsions:
REMARK  status: ('A' for Active; 'I' for Inactive)
REMARK    1  A    between atoms: O_1  and  C_2 
REMARK    2  A    between atoms: C_2  and  C_3 
REMARK    3  A    between atoms: N_12  and  C_13 
REMARK    4  A    between atoms: C_13  and  C_14 
REMARK    5  A    between atoms: C_14  and  O_15 
REMARK    6  A    between atoms: C_14  and  C_16 
REMARK    7  A    between atoms: C_16  and  O_17 
REMARK    8  A    between atoms: O_17  and  C_18 
REMARK    9  A    between atoms: C_18  and  C_19 
ROOT
HETATM    1  C   UNL     1     -40.995 -52.694  11.875  1.00  0.00     0.164 C 
ENDROOT
BRANCH   1   2
HETATM    2  N   UNL     1     -41.464 -53.516  12.981  1.00  0.00    -0.330 N 
HETATM    3  C   UNL     1     -40.705 -53.979  14.040  1.00  0.00     0.108 A 
HETATM    4  N   UNL     1     -41.456 -54.657  14.890  1.00  0.00    -0.342 N 
HETATM    5  C   UNL     1     -42.731 -54.602  14.393  1.00  0.00     0.060 A 
ATOM      6  HN  UNL     1     -41.149 -55.126  15.741  1.00  0.00     0.167 HD
HETATM    7  C   UNL     1     -43.914 -55.138  14.925  1.00  0.00     0.032 A 
HETATM    8  C   UNL     1     -42.772 -53.894  13.196  1.00  0.00     0.062 A 
HETATM    9  C   UNL     1     -45.114 -54.947  14.232  1.00  0.00     0.002 A 
HETATM   10  C   UNL     1     -45.135 -54.236  13.031  1.00  0.00     0.002 A 
HETATM   11  C   UNL     1     -43.965 -53.693  12.488  1.00  0.00     0.032 A 
BRANCH   3  12
HETATM   12  C   UNL     1     -39.239 -53.765  14.194  1.00  0.00     0.240 C 
BRANCH  12  13
HETATM   13  O   UNL     1     -38.566 -54.775  13.454  1.00  0.00    -0.393 OA
HETATM   14  H   UNL     1     -37.652 -54.466  13.333  1.00  0.00     0.209 HD
ENDBRANCH  12  13
ENDBRANCH   3  12
ENDBRANCH   1   2
BRANCH   1  15
HETATM   15  C   UNL     1     -40.713 -51.235  12.270  1.00  0.00     0.160 C 
BRANCH  15  16
HETATM   16  O   UNL     1     -39.751 -50.617  11.409  1.00  0.00    -0.392 OA
HETATM   17  H   UNL     1     -38.967 -51.188  11.349  1.00  0.00     0.210 HD
ENDBRANCH  15  16
BRANCH  15  18
HETATM   18  C   UNL     1     -42.001 -50.399  12.236  1.00  0.00     0.201 C 
BRANCH  18  19
HETATM   19  O   UNL     1     -42.584 -50.379  13.532  1.00  0.00    -0.384 OA
BRANCH  19  20
HETATM   20  C   UNL     1     -43.992 -50.150  13.502  1.00  0.00     0.206 C 
BRANCH  20  21
HETATM   21  C   UNL     1     -44.627 -50.898  14.651  1.00  0.00    -0.035 A 
HETATM   22  C   UNL     1     -46.003 -51.180  14.655  1.00  0.00     0.011 A 
HETATM   23  C   UNL     1     -46.593 -51.839  15.734  1.00  0.00     0.024 A 
HETATM   24  C   UNL     1     -45.808 -52.238  16.812  1.00  0.00     0.034 A 
HETATM   25 CL   UNL     1     -46.540 -53.016  18.160  1.00  0.00    -0.084 Cl
HETATM   26  C   UNL     1     -44.434 -52.005  16.807  1.00  0.00     0.024 A 
HETATM   27  C   UNL     1     -43.844 -51.344  15.726  1.00  0.00     0.011 A 
ENDBRANCH  20  21
ENDBRANCH  19  20
ENDBRANCH  18  19
ENDBRANCH  15  18
ENDBRANCH   1  15
TORSDOF 9
ENDMDL
MODEL 2
REMARK VINA RESULT:      -5.7      2.560      4.806
REMARK  9 active torsions:
REMARK  status: ('A' for Active; 'I' for Inactive)
REMARK    1  A    between atoms: O_1  and  C_2 
REMARK    2  A    between atoms: C_2  and  C_3 
REMARK    3  A    between atoms: N_12  and  C_13 
REMARK    4  A    between atoms: C_13  and  C_14 
REMARK    5  A    between atoms: C_14  and  O_15 
REMARK    6  A    between atoms: C_14  and  C_16 
REMARK    7  A    between atoms: C_16  and  O_17 
REMARK    8  A    between atoms: O_17  and  C_18 
REMARK    9  A    between atoms: C_18  and  C_19 
ROOT
HETATM    1  C   UNL     1     -40.805 -51.164  13.039  1.00  0.00     0.164 C 
ENDROOT
BRANCH   1   2
HETATM    2  N   UNL     1     -40.465 -49.908  12.385  1.00  0.00    -0.330 N 
HETATM    3  C   UNL     1     -39.198 -49.485  12.027  1.00  0.00     0.108 A 
HETATM    4  N   UNL     1     -39.255 -48.318  11.411  1.00  0.00    -0.342 N 
HETATM    5  C   UNL     1     -40.583 -47.995  11.335  1.00  0.00     0.060 A 
ATOM      6  HN  UNL     1     -38.469 -47.769  11.063  1.00  0.00     0.167 HD
HETATM    7  C   UNL     1     -41.191 -46.872  10.753  1.00  0.00     0.032 A 
HETATM    8  C   UNL     1     -41.371 -48.971  11.937  1.00  0.00     0.062 A 
HETATM    9  C   UNL     1     -42.585 -46.760  10.794  1.00  0.00     0.002 A 
HETATM   10  C   UNL     1     -43.358 -47.749  11.405  1.00  0.00     0.002 A 
HETATM   11  C   UNL     1     -42.769 -48.876  11.988  1.00  0.00     0.032 A 
BRANCH   3  12
HETATM   12  C   UNL     1     -37.940 -50.229  12.315  1.00  0.00     0.240 C 
BRANCH  12  13
HETATM   13  O   UNL     1     -37.811 -51.267  11.353  1.00  0.00    -0.393 OA
HETATM   14  H   UNL     1     -38.318 -50.986  10.574  1.00  0.00     0.209 HD
ENDBRANCH  12  13
ENDBRANCH   3  12
ENDBRANCH   1   2
BRANCH   1  15
HETATM   15  C   UNL     1     -41.450 -52.192  12.094  1.00  0.00     0.160 C 
BRANCH  15  16
HETATM   16  O   UNL     1     -40.474 -52.994  11.420  1.00  0.00    -0.392 OA
HETATM   17  H   UNL     1     -40.498 -52.790  10.470  1.00  0.00     0.210 HD
ENDBRANCH  15  16
BRANCH  15  18
HETATM   18  C   UNL     1     -42.395 -53.126  12.864  1.00  0.00     0.201 C 
BRANCH  18  19
HETATM   19  O   UNL     1     -43.660 -53.153  12.216  1.00  0.00    -0.384 OA
BRANCH  19  20
HETATM   20  C   UNL     1     -44.570 -54.075  12.817  1.00  0.00     0.206 C 
BRANCH  20  21
HETATM   21  C   UNL     1     -45.438 -53.324  13.799  1.00  0.00    -0.035 A 
HETATM   22  C   UNL     1     -46.036 -52.103  13.446  1.00  0.00     0.011 A 
HETATM   23  C   UNL     1     -46.807 -51.392  14.367  1.00  0.00     0.024 A 
HETATM   24  C   UNL     1     -47.004 -51.908  15.644  1.00  0.00     0.034 A 
HETATM   25 CL   UNL     1     -47.923 -51.016  16.793  1.00  0.00    -0.084 Cl
HETATM   26  C   UNL     1     -46.455 -53.138  15.999  1.00  0.00     0.024 A 
HETATM   27  C   UNL     1     -45.681 -53.848  15.077  1.00  0.00     0.011 A 
ENDBRANCH  20  21
ENDBRANCH  19  20
ENDBRANCH  18  19
ENDBRANCH  15  18
ENDBRANCH   1  15
TORSDOF 9
ENDMDL
MODEL 3
REMARK VINA RESULT:      -5.7      2.172      4.431
REMARK  9 active torsions:
REMARK  status: ('A' for Active; 'I' for Inactive)
REMARK    1  A    between atoms: O_1  and  C_2 
REMARK    2  A    between atoms: C_2  and  C_3 
REMARK    3  A    between atoms: N_12  and  C_13 
REMARK    4  A    between atoms: C_13  and  C_14 
REMARK    5  A    between atoms: C_14  and  O_15 
REMARK    6  A    between atoms: C_14  and  C_16 
REMARK    7  A    between atoms: C_16  and  O_17 
REMARK    8  A    between atoms: O_17  and  C_18 
REMARK    9  A    between atoms: C_18  and  C_19 
ROOT
HETATM    1  C   UNL     1     -39.986 -49.795  14.062  1.00  0.00     0.164 C 
ENDROOT
BRANCH   1   2
HETATM    2  N   UNL     1     -41.333 -49.876  13.517  1.00  0.00    -0.330 N 
HETATM    3  C   UNL     1     -41.718 -49.568  12.225  1.00  0.00     0.108 A 
HETATM    4  N   UNL     1     -43.007 -49.799  12.056  1.00  0.00    -0.342 N 
HETATM    5  C   UNL     1     -43.461 -50.300  13.247  1.00  0.00     0.060 A 
ATOM      6  HN  UNL     1     -43.553 -49.637  11.210  1.00  0.00     0.167 HD
HETATM    7  C   UNL     1     -44.750 -50.733  13.593  1.00  0.00     0.032 A 
HETATM    8  C   UNL     1     -42.437 -50.362  14.186  1.00  0.00     0.062 A 
HETATM    9  C   UNL     1     -44.976 -51.217  14.886  1.00  0.00     0.002 A 
HETATM   10  C   UNL     1     -43.936 -51.268  15.816  1.00  0.00     0.002 A 
HETATM   11  C   UNL     1     -42.644 -50.843  15.487  1.00  0.00     0.032 A 
BRANCH   3  12
HETATM   12  C   UNL     1     -40.810 -49.029  11.174  1.00  0.00     0.240 C 
BRANCH  12  13
HETATM   13  O   UNL     1     -40.415 -50.107  10.336  1.00  0.00    -0.393 OA
HETATM   14  H   UNL     1     -40.999 -50.853  10.552  1.00  0.00     0.209 HD
ENDBRANCH  12  13
ENDBRANCH   3  12
ENDBRANCH   1   2
BRANCH   1  15
HETATM   15  C   UNL     1     -39.117 -51.022  13.738  1.00  0.00     0.160 C 
BRANCH  15  16
HETATM   16  O   UNL     1     -37.909 -50.664  13.058  1.00  0.00    -0.392 OA
HETATM   17  H   UNL     1     -37.835 -51.192  12.245  1.00  0.00     0.210 HD
ENDBRANCH  15  16
BRANCH  15  18
HETATM   18  C   UNL     1     -38.745 -51.784  15.018  1.00  0.00     0.201 C 
BRANCH  18  19
HETATM   19  O   UNL     1     -39.718 -52.789  15.266  1.00  0.00    -0.384 OA
BRANCH  19  20
HETATM   20  C   UNL     1     -39.935 -53.640  14.140  1.00  0.00     0.206 C 
BRANCH  20  21
HETATM   21  C   UNL     1     -41.395 -54.023  14.100  1.00  0.00    -0.035 A 
HETATM   22  C   UNL     1     -42.181 -53.753  12.968  1.00  0.00     0.011 A 
HETATM   23  C   UNL     1     -43.539 -54.074  12.947  1.00  0.00     0.024 A 
HETATM   24  C   UNL     1     -44.119 -54.688  14.053  1.00  0.00     0.034 A 
HETATM   25 CL   UNL     1     -45.800 -55.051  14.045  1.00  0.00    -0.084 Cl
HETATM   26  C   UNL     1     -43.347 -55.003  15.169  1.00  0.00     0.024 A 
HETATM   27  C   UNL     1     -41.987 -54.679  15.190  1.00  0.00     0.011 A 
ENDBRANCH  20  21
ENDBRANCH  19  20
ENDBRANCH  18  19
ENDBRANCH  15  18
ENDBRANCH   1  15
TORSDOF 9
ENDMDL
MODEL 4
REMARK VINA RESULT:      -5.4      3.685      5.579
REMARK  9 active torsions:
REMARK  status: ('A' for Active; 'I' for Inactive)
REMARK    1  A    between atoms: O_1  and  C_2 
REMARK    2  A    between atoms: C_2  and  C_3 
REMARK    3  A    between atoms: N_12  and  C_13 
REMARK    4  A    between atoms: C_13  and  C_14 
REMARK    5  A    between atoms: C_14  and  O_15 
REMARK    6  A    between atoms: C_14  and  C_16 
REMARK    7  A    between atoms: C_16  and  O_17 
REMARK    8  A    between atoms: O_17  and  C_18 
REMARK    9  A    between atoms: C_18  and  C_19 
ROOT
HETATM    1  C   UNL     1     -41.746 -50.657  14.565  1.00  0.00     0.164 C 
ENDROOT
BRANCH   1   2
HETATM    2  N   UNL     1     -42.596 -51.421  13.665  1.00  0.00    -0.330 N 
HETATM    3  C   UNL     1     -42.178 -52.203  12.604  1.00  0.00     0.108 A 
HETATM    4  N   UNL     1     -43.209 -52.794  12.027  1.00  0.00    -0.342 N 
HETATM    5  C   UNL     1     -44.312 -52.419  12.747  1.00  0.00     0.060 A 
ATOM      6  HN  UNL     1     -43.188 -53.405  11.211  1.00  0.00     0.167 HD
HETATM    7  C   UNL     1     -45.654 -52.789  12.572  1.00  0.00     0.032 A 
HETATM    8  C   UNL     1     -43.964 -51.558  13.783  1.00  0.00     0.062 A 
HETATM    9  C   UNL     1     -46.616 -52.276  13.447  1.00  0.00     0.002 A 
HETATM   10  C   UNL     1     -46.248 -51.410  14.478  1.00  0.00     0.002 A 
HETATM   11  C   UNL     1     -44.915 -51.033  14.670  1.00  0.00     0.032 A 
BRANCH   3  12
HETATM   12  C   UNL     1     -40.764 -52.343  12.156  1.00  0.00     0.240 C 
BRANCH  12  13
HETATM   13  O   UNL     1     -40.651 -53.558  11.426  1.00  0.00    -0.393 OA
HETATM   14  H   UNL     1     -41.392 -54.119  11.708  1.00  0.00     0.209 HD
ENDBRANCH  12  13
ENDBRANCH   3  12
ENDBRANCH   1   2
BRANCH   1  15
HETATM   15  C   UNL     1     -41.677 -49.159  14.220  1.00  0.00     0.160 C 
BRANCH  15  16
HETATM   16  O   UNL     1     -42.188 -48.337  15.275  1.00  0.00    -0.392 OA
HETATM   17  H   UNL     1     -42.207 -48.852  16.098  1.00  0.00     0.210 HD
ENDBRANCH  15  16
BRANCH  15  18
HETATM   18  C   UNL     1     -40.231 -48.730  13.928  1.00  0.00     0.201 C 
BRANCH  18  19
HETATM   19  O   UNL     1     -39.942 -48.957  12.556  1.00  0.00    -0.384 OA
BRANCH  19  20
HETATM   20  C   UNL     1     -39.591 -47.761  11.859  1.00  0.00     0.206 C 
BRANCH  20  21
HETATM   21  C   UNL     1     -40.798 -47.279  11.091  1.00  0.00    -0.035 A 
HETATM   22  C   UNL     1     -41.078 -45.907  10.975  1.00  0.00     0.011 A 
HETATM   23  C   UNL     1     -42.215 -45.465  10.297  1.00  0.00     0.024 A 
HETATM   24  C   UNL     1     -43.072 -46.392   9.710  1.00  0.00     0.034 A 
HETATM   25 CL   UNL     1     -44.493 -45.851   8.905  1.00  0.00    -0.084 Cl
HETATM   26  C   UNL     1     -42.787 -47.754   9.776  1.00  0.00     0.024 A 
HETATM   27  C   UNL     1     -41.650 -48.196  10.458  1.00  0.00     0.011 A 
ENDBRANCH  20  21
ENDBRANCH  19  20
ENDBRANCH  18  19
ENDBRANCH  15  18
ENDBRANCH   1  15
TORSDOF 9
ENDMDL
MODEL 5
REMARK VINA RESULT:      -5.4      2.182      4.012
REMARK  9 active torsions:
REMARK  status: ('A' for Active; 'I' for Inactive)
REMARK    1  A    between atoms: O_1  and  C_2 
REMARK    2  A    between atoms: C_2  and  C_3 
REMARK    3  A    between atoms: N_12  and  C_13 
REMARK    4  A    between atoms: C_13  and  C_14 
REMARK    5  A    between atoms: C_14  and  O_15 
REMARK    6  A    between atoms: C_14  and  C_16 
REMARK    7  A    between atoms: C_16  and  O_17 
REMARK    8  A    between atoms: O_17  and  C_18 
REMARK    9  A    between atoms: C_18  and  C_19 
ROOT
HETATM    1  C   UNL     1     -41.462 -49.473  12.681  1.00  0.00     0.164 C 
ENDROOT
BRANCH   1   2
HETATM    2  N   UNL     1     -42.124 -49.911  13.901  1.00  0.00    -0.330 N 
HETATM    3  C   UNL     1     -41.619 -49.831  15.185  1.00  0.00     0.108 A 
HETATM    4  N   UNL     1     -42.501 -50.277  16.062  1.00  0.00    -0.342 N 
HETATM    5  C   UNL     1     -43.613 -50.618  15.338  1.00  0.00     0.060 A 
ATOM      6  HN  UNL     1     -42.380 -50.352  17.071  1.00  0.00     0.167 HD
HETATM    7  C   UNL     1     -44.844 -51.118  15.787  1.00  0.00     0.032 A 
HETATM    8  C   UNL     1     -43.411 -50.402  13.978  1.00  0.00     0.062 A 
HETATM    9  C   UNL     1     -45.845 -51.391  14.849  1.00  0.00     0.002 A 
HETATM   10  C   UNL     1     -45.623 -51.170  13.489  1.00  0.00     0.002 A 
HETATM   11  C   UNL     1     -44.402 -50.670  13.024  1.00  0.00     0.032 A 
BRANCH   3  12
HETATM   12  C   UNL     1     -40.259 -49.334  15.535  1.00  0.00     0.240 C 
BRANCH  12  13
HETATM   13  O   UNL     1     -40.319 -47.917  15.632  1.00  0.00    -0.393 OA
HETATM   14  H   UNL     1     -40.050 -47.569  14.766  1.00  0.00     0.209 HD
ENDBRANCH  12  13
ENDBRANCH   3  12
ENDBRANCH   1   2
BRANCH   1  15
HETATM   15  C   UNL     1     -40.935 -50.633  11.819  1.00  0.00     0.160 C 
BRANCH  15  16
HETATM   16  O   UNL     1     -40.509 -50.194  10.524  1.00  0.00    -0.392 OA
HETATM   17  H   UNL     1     -40.955 -49.358  10.310  1.00  0.00     0.210 HD
ENDBRANCH  15  16
BRANCH  15  18
HETATM   18  C   UNL     1     -39.752 -51.333  12.505  1.00  0.00     0.201 C 
BRANCH  18  19
HETATM   19  O   UNL     1     -40.028 -52.722  12.614  1.00  0.00    -0.384 OA
BRANCH  19  20
HETATM   20  C   UNL     1     -40.324 -53.125  13.951  1.00  0.00     0.206 C 
BRANCH  20  21
HETATM   21  C   UNL     1     -41.731 -53.673  13.989  1.00  0.00    -0.035 A 
HETATM   22  C   UNL     1     -42.496 -53.778  12.816  1.00  0.00     0.011 A 
HETATM   23  C   UNL     1     -43.809 -54.249  12.860  1.00  0.00     0.024 A 
HETATM   24  C   UNL     1     -44.362 -54.639  14.076  1.00  0.00     0.034 A 
HETATM   25 CL   UNL     1     -45.992 -55.185  14.138  1.00  0.00    -0.084 Cl
HETATM   26  C   UNL     1     -43.604 -54.583  15.244  1.00  0.00     0.024 A 
HETATM   27  C   UNL     1     -42.290 -54.109  15.200  1.00  0.00     0.011 A 
ENDBRANCH  20  21
ENDBRANCH  19  20
ENDBRANCH  18  19
ENDBRANCH  15  18
ENDBRANCH   1  15
TORSDOF 9
ENDMDL
MODEL 6
REMARK VINA RESULT:      -5.3      2.552      5.204
REMARK  9 active torsions:
REMARK  status: ('A' for Active; 'I' for Inactive)
REMARK    1  A    between atoms: O_1  and  C_2 
REMARK    2  A    between atoms: C_2  and  C_3 
REMARK    3  A    between atoms: N_12  and  C_13 
REMARK    4  A    between atoms: C_13  and  C_14 
REMARK    5  A    between atoms: C_14  and  O_15 
REMARK    6  A    between atoms: C_14  and  C_16 
REMARK    7  A    between atoms: C_16  and  O_17 
REMARK    8  A    between atoms: O_17  and  C_18 
REMARK    9  A    between atoms: C_18  and  C_19 
ROOT
HETATM    1  C   UNL     1     -42.268 -50.738  12.684  1.00  0.00     0.164 C 
ENDROOT
BRANCH   1   2
HETATM    2  N   UNL     1     -41.084 -50.099  12.131  1.00  0.00    -0.330 N 
HETATM    3  C   UNL     1     -41.059 -49.018  11.269  1.00  0.00     0.108 A 
HETATM    4  N   UNL     1     -39.815 -48.665  11.001  1.00  0.00    -0.342 N 
HETATM    5  C   UNL     1     -39.018 -49.506  11.730  1.00  0.00     0.060 A 
ATOM      6  HN  UNL     1     -39.510 -47.917  10.378  1.00  0.00     0.167 HD
HETATM    7  C   UNL     1     -37.619 -49.540  11.826  1.00  0.00     0.032 A 
HETATM    8  C   UNL     1     -39.781 -50.419  12.450  1.00  0.00     0.062 A 
HETATM    9  C   UNL     1     -37.021 -50.500  12.650  1.00  0.00     0.002 A 
HETATM   10  C   UNL     1     -37.803 -51.410  13.363  1.00  0.00     0.002 A 
HETATM   11  C   UNL     1     -39.200 -51.389  13.280  1.00  0.00     0.032 A 
BRANCH   3  12
HETATM   12  C   UNL     1     -42.267 -48.356  10.700  1.00  0.00     0.240 C 
BRANCH  12  13
HETATM   13  O   UNL     1     -42.095 -48.259   9.293  1.00  0.00    -0.393 OA
HETATM   14  H   UNL     1     -42.571 -47.459   9.011  1.00  0.00     0.209 HD
ENDBRANCH  12  13
ENDBRANCH   3  12
ENDBRANCH   1   2
BRANCH   1  15
HETATM   15  C   UNL     1     -42.478 -52.178  12.186  1.00  0.00     0.160 C 
BRANCH  15  16
HETATM   16  O   UNL     1     -41.535 -52.543  11.173  1.00  0.00    -0.392 OA
HETATM   17  H   UNL     1     -41.914 -52.345  10.301  1.00  0.00     0.210 HD
ENDBRANCH  15  16
BRANCH  15  18
HETATM   18  C   UNL     1     -42.359 -53.181  13.343  1.00  0.00     0.201 C 
BRANCH  18  19
HETATM   19  O   UNL     1     -43.332 -54.204  13.181  1.00  0.00    -0.384 OA
BRANCH  19  20
HETATM   20  C   UNL     1     -44.548 -53.725  12.604  1.00  0.00     0.206 C 
BRANCH  20  21
HETATM   21  C   UNL     1     -45.389 -53.109  13.697  1.00  0.00    -0.035 A 
HETATM   22  C   UNL     1     -45.561 -53.761  14.929  1.00  0.00     0.011 A 
HETATM   23  C   UNL     1     -46.370 -53.207  15.923  1.00  0.00     0.024 A 
HETATM   24  C   UNL     1     -46.998 -51.986  15.700  1.00  0.00     0.034 A 
HETATM   25 CL   UNL     1     -48.025 -51.320  16.909  1.00  0.00    -0.084 Cl
HETATM   26  C   UNL     1     -46.805 -51.303  14.501  1.00  0.00     0.024 A 
HETATM   27  C   UNL     1     -45.997 -51.859  13.505  1.00  0.00     0.011 A 
ENDBRANCH  20  21
ENDBRANCH  19  20
ENDBRANCH  18  19
ENDBRANCH  15  18
ENDBRANCH   1  15
TORSDOF 9
ENDMDL
MODEL 7
REMARK VINA RESULT:      -5.3      3.321      5.296
REMARK  9 active torsions:
REMARK  status: ('A' for Active; 'I' for Inactive)
REMARK    1  A    between atoms: O_1  and  C_2 
REMARK    2  A    between atoms: C_2  and  C_3 
REMARK    3  A    between atoms: N_12  and  C_13 
REMARK    4  A    between atoms: C_13  and  C_14 
REMARK    5  A    between atoms: C_14  and  O_15 
REMARK    6  A    between atoms: C_14  and  C_16 
REMARK    7  A    between atoms: C_16  and  O_17 
REMARK    8  A    between atoms: O_17  and  C_18 
REMARK    9  A    between atoms: C_18  and  C_19 
ROOT
HETATM    1  C   UNL     1     -41.737 -52.338  15.189  1.00  0.00     0.164 C 
ENDROOT
BRANCH   1   2
HETATM    2  N   UNL     1     -42.681 -52.630  14.120  1.00  0.00    -0.330 N 
HETATM    3  C   UNL     1     -42.457 -53.441  13.023  1.00  0.00     0.108 A 
HETATM    4  N   UNL     1     -43.542 -53.524  12.275  1.00  0.00    -0.342 N 
HETATM    5  C   UNL     1     -44.500 -52.783  12.916  1.00  0.00     0.060 A 
ATOM      6  HN  UNL     1     -43.646 -54.034  11.399  1.00  0.00     0.167 HD
HETATM    7  C   UNL     1     -45.838 -52.564  12.558  1.00  0.00     0.032 A 
HETATM    8  C   UNL     1     -43.993 -52.208  14.077  1.00  0.00     0.062 A 
HETATM    9  C   UNL     1     -46.637 -51.765  13.383  1.00  0.00     0.002 A 
HETATM   10  C   UNL     1     -46.110 -51.194  14.542  1.00  0.00     0.002 A 
HETATM   11  C   UNL     1     -44.778 -51.404  14.916  1.00  0.00     0.032 A 
BRANCH   3  12
HETATM   12  C   UNL     1     -41.163 -54.112  12.713  1.00  0.00     0.240 C 
BRANCH  12  13
HETATM   13  O   UNL     1     -40.585 -53.458  11.591  1.00  0.00    -0.393 OA
HETATM   14  H   UNL     1     -39.725 -53.883  11.436  1.00  0.00     0.209 HD
ENDBRANCH  12  13
ENDBRANCH   3  12
ENDBRANCH   1   2
BRANCH   1  15
HETATM   15  C   UNL     1     -40.930 -51.048  14.959  1.00  0.00     0.160 C 
BRANCH  15  16
HETATM   16  O   UNL     1     -40.798 -50.273  16.156  1.00  0.00    -0.392 OA
HETATM   17  H   UNL     1     -40.476 -49.386  15.925  1.00  0.00     0.210 HD
ENDBRANCH  15  16
BRANCH  15  18
HETATM   18  C   UNL     1     -39.524 -51.368  14.432  1.00  0.00     0.201 C 
BRANCH  18  19
HETATM   19  O   UNL     1     -39.451 -51.029  13.054  1.00  0.00    -0.384 OA
BRANCH  19  20
HETATM   20  C   UNL     1     -38.771 -49.795  12.823  1.00  0.00     0.206 C 
BRANCH  20  21
HETATM   21  C   UNL     1     -39.705 -48.859  12.093  1.00  0.00    -0.035 A 
HETATM   22  C   UNL     1     -40.771 -49.358  11.326  1.00  0.00     0.011 A 
HETATM   23  C   UNL     1     -41.610 -48.493  10.622  1.00  0.00     0.024 A 
HETATM   24  C   UNL     1     -41.403 -47.118  10.696  1.00  0.00     0.034 A 
HETATM   25 CL   UNL     1     -42.413 -46.052   9.800  1.00  0.00    -0.084 Cl
HETATM   26  C   UNL     1     -40.378 -46.603  11.487  1.00  0.00     0.024 A 
HETATM   27  C   UNL     1     -39.537 -47.470  12.190  1.00  0.00     0.011 A 
ENDBRANCH  20  21
ENDBRANCH  19  20
ENDBRANCH  18  19
ENDBRANCH  15  18
ENDBRANCH   1  15
TORSDOF 9
ENDMDL
MODEL 8
REMARK VINA RESULT:      -5.1      3.537      5.386
REMARK  9 active torsions:
REMARK  status: ('A' for Active; 'I' for Inactive)
REMARK    1  A    between atoms: O_1  and  C_2 
REMARK    2  A    between atoms: C_2  and  C_3 
REMARK    3  A    between atoms: N_12  and  C_13 
REMARK    4  A    between atoms: C_13  and  C_14 
REMARK    5  A    between atoms: C_14  and  O_15 
REMARK    6  A    between atoms: C_14  and  C_16 
REMARK    7  A    between atoms: C_16  and  O_17 
REMARK    8  A    between atoms: O_17  and  C_18 
REMARK    9  A    between atoms: C_18  and  C_19 
ROOT
HETATM    1  C   UNL     1     -41.872 -50.705  13.208  1.00  0.00     0.164 C 
ENDROOT
BRANCH   1   2
HETATM    2  N   UNL     1     -42.672 -51.920  13.247  1.00  0.00    -0.330 N 
HETATM    3  C   UNL     1     -42.211 -53.214  13.089  1.00  0.00     0.108 A 
HETATM    4  N   UNL     1     -43.198 -54.080  13.228  1.00  0.00    -0.342 N 
HETATM    5  C   UNL     1     -44.313 -53.340  13.517  1.00  0.00     0.060 A 
ATOM      6  HN  UNL     1     -43.142 -55.094  13.137  1.00  0.00     0.167 HD
HETATM    7  C   UNL     1     -45.620 -53.772  13.783  1.00  0.00     0.032 A 
HETATM    8  C   UNL     1     -44.019 -51.980  13.537  1.00  0.00     0.062 A 
HETATM    9  C   UNL     1     -46.605 -52.818  14.061  1.00  0.00     0.002 A 
HETATM   10  C   UNL     1     -46.291 -51.458  14.074  1.00  0.00     0.002 A 
HETATM   11  C   UNL     1     -44.992 -51.009  13.813  1.00  0.00     0.032 A 
BRANCH   3  12
HETATM   12  C   UNL     1     -40.800 -53.582  12.781  1.00  0.00     0.240 C 
BRANCH  12  13
HETATM   13  O   UNL     1     -40.575 -53.349  11.397  1.00  0.00    -0.393 OA
HETATM   14  H   UNL     1     -41.396 -52.968  11.044  1.00  0.00     0.209 HD
ENDBRANCH  12  13
ENDBRANCH   3  12
ENDBRANCH   1   2
BRANCH   1  15
HETATM   15  C   UNL     1     -41.818 -50.050  11.817  1.00  0.00     0.160 C 
BRANCH  15  16
HETATM   16  O   UNL     1     -42.759 -48.979  11.686  1.00  0.00    -0.392 OA
HETATM   17  H   UNL     1     -42.884 -48.559  12.553  1.00  0.00     0.210 HD
ENDBRANCH  15  16
BRANCH  15  18
HETATM   18  C   UNL     1     -40.414 -49.500  11.524  1.00  0.00     0.201 C 
BRANCH  18  19
HETATM   19  O   UNL     1     -39.443 -50.474  11.884  1.00  0.00    -0.384 OA
BRANCH  19  20
HETATM   20  C   UNL     1     -38.112 -49.959  11.872  1.00  0.00     0.206 C 
BRANCH  20  21
HETATM   21  C   UNL     1     -37.744 -49.539  13.275  1.00  0.00    -0.035 A 
HETATM   22  C   UNL     1     -37.735 -48.183  13.642  1.00  0.00     0.011 A 
HETATM   23  C   UNL     1     -37.359 -47.795  14.929  1.00  0.00     0.024 A 
HETATM   24  C   UNL     1     -37.007 -48.762  15.866  1.00  0.00     0.034 A 
HETATM   25 CL   UNL     1     -36.507 -48.283  17.441  1.00  0.00    -0.084 Cl
HETATM   26  C   UNL     1     -37.052 -50.114  15.534  1.00  0.00     0.024 A 
HETATM   27  C   UNL     1     -37.427 -50.502  14.244  1.00  0.00     0.011 A 
ENDBRANCH  20  21
ENDBRANCH  19  20
ENDBRANCH  18  19
ENDBRANCH  15  18
ENDBRANCH   1  15
TORSDOF 9
ENDMDL
MODEL 9
REMARK VINA RESULT:      -5.1      4.436      7.425
REMARK  9 active torsions:
REMARK  status: ('A' for Active; 'I' for Inactive)
REMARK    1  A    between atoms: O_1  and  C_2 
REMARK    2  A    between atoms: C_2  and  C_3 
REMARK    3  A    between atoms: N_12  and  C_13 
REMARK    4  A    between atoms: C_13  and  C_14 
REMARK    5  A    between atoms: C_14  and  O_15 
REMARK    6  A    between atoms: C_14  and  C_16 
REMARK    7  A    between atoms: C_16  and  O_17 
REMARK    8  A    between atoms: O_17  and  C_18 
REMARK    9  A    between atoms: C_18  and  C_19 
ROOT
HETATM    1  C   UNL     1     -41.610 -48.371  10.346  1.00  0.00     0.164 C 
ENDROOT
BRANCH   1   2
HETATM    2  N   UNL     1     -42.041 -46.982  10.408  1.00  0.00    -0.330 N 
HETATM    3  C   UNL     1     -43.294 -46.495  10.086  1.00  0.00     0.108 A 
HETATM    4  N   UNL     1     -43.357 -45.193  10.301  1.00  0.00    -0.342 N 
HETATM    5  C   UNL     1     -42.135 -44.834  10.806  1.00  0.00     0.060 A 
ATOM      6  HN  UNL     1     -44.152 -44.580  10.126  1.00  0.00     0.167 HD
HETATM    7  C   UNL     1     -41.685 -43.574  11.227  1.00  0.00     0.032 A 
HETATM    8  C   UNL     1     -41.285 -45.933  10.886  1.00  0.00     0.062 A 
HETATM    9  C   UNL     1     -40.381 -43.452  11.718  1.00  0.00     0.002 A 
HETATM   10  C   UNL     1     -39.542 -44.565  11.788  1.00  0.00     0.002 A 
HETATM   11  C   UNL     1     -39.975 -45.829  11.376  1.00  0.00     0.032 A 
BRANCH   3  12
HETATM   12  C   UNL     1     -44.414 -47.317   9.548  1.00  0.00     0.240 C 
BRANCH  12  13
HETATM   13  O   UNL     1     -45.613 -46.562   9.668  1.00  0.00    -0.393 OA
HETATM   14  H   UNL     1     -45.751 -46.125   8.811  1.00  0.00     0.209 HD
ENDBRANCH  12  13
ENDBRANCH   3  12
ENDBRANCH   1   2
BRANCH   1  15
HETATM   15  C   UNL     1     -41.688 -49.099  11.699  1.00  0.00     0.160 C 
BRANCH  15  16
HETATM   16  O   UNL     1     -43.027 -49.481  12.031  1.00  0.00    -0.392 OA
HETATM   17  H   UNL     1     -42.999 -50.165  12.721  1.00  0.00     0.210 HD
ENDBRANCH  15  16
BRANCH  15  18
HETATM   18  C   UNL     1     -40.811 -50.360  11.693  1.00  0.00     0.201 C 
BRANCH  18  19
HETATM   19  O   UNL     1     -41.203 -51.209  12.763  1.00  0.00    -0.384 OA
BRANCH  19  20
HETATM   20  C   UNL     1     -41.181 -52.592  12.409  1.00  0.00     0.206 C 
BRANCH  20  21
HETATM   21  C   UNL     1     -42.462 -53.233  12.887  1.00  0.00    -0.035 A 
HETATM   22  C   UNL     1     -43.697 -52.898  12.308  1.00  0.00     0.011 A 
HETATM   23  C   UNL     1     -44.883 -53.464  12.777  1.00  0.00     0.024 A 
HETATM   24  C   UNL     1     -44.842 -54.386  13.819  1.00  0.00     0.034 A 
HETATM   25 CL   UNL     1     -46.307 -55.056  14.424  1.00  0.00    -0.084 Cl
HETATM   26  C   UNL     1     -43.623 -54.763  14.378  1.00  0.00     0.024 A 
HETATM   27  C   UNL     1     -42.436 -54.195  13.908  1.00  0.00     0.011 A 
ENDBRANCH  20  21
ENDBRANCH  19  20
ENDBRANCH  18  19
ENDBRANCH  15  18
ENDBRANCH   1  15
TORSDOF 9
ENDMDL
