MODEL 1
REMARK VINA RESULT:      -6.1      0.000      0.000
REMARK  5 active torsions:
REMARK  status: ('A' for Active; 'I' for Inactive)
REMARK    1  A    between atoms: C_2  and  C_3 
REMARK    2  A    between atoms: C_2  and  N_15 
REMARK       I    between atoms: C_3  and  N_5 
REMARK    3  A    between atoms: N_5  and  C_6 
REMARK    4  A    between atoms: C_6  and  C_7 
REMARK    5  A    between atoms: C_7  and  N_8 
ROOT
HETATM    1  C   UNL     1     -42.573 -48.203  11.376  1.00  0.00     0.242 C 
HETATM    2  O   UNL     1     -43.065 -47.690  12.380  1.00  0.00    -0.271 OA
HETATM    3  N   UNL     1     -42.010 -49.464  11.399  1.00  0.00    -0.358 N 
HETATM    4  H   UNL     1     -41.729 -49.915  10.533  1.00  0.00     0.162 HD
ENDROOT
BRANCH   1   5
HETATM    5  C   UNL     1     -42.487 -47.467  10.047  1.00  0.00     0.196 C 
HETATM    6  C   UNL     1     -42.261 -45.970  10.251  1.00  0.00     0.044 C 
BRANCH   5   7
HETATM    7  N   UNL     1     -43.664 -47.727   9.242  1.00  0.00    -0.273 N 
HETATM    8  C   UNL     1     -43.750 -47.916   7.897  1.00  0.00     0.202 A 
HETATM    9  N   UNL     1     -45.004 -48.108   7.561  1.00  0.00    -0.346 N 
HETATM   10  C   UNL     1     -45.662 -48.019   8.754  1.00  0.00     0.198 A 
ATOM     11  HN  UNL     1     -45.392 -48.282   6.635  1.00  0.00     0.167 HD
HETATM   12  N   UNL     1     -44.888 -47.758   9.810  1.00  0.00    -0.292 N 
ATOM     13  HN  UNL     1     -45.150 -47.620  10.786  1.00  0.00     0.188 HD
ENDBRANCH   5   7
ENDBRANCH   1   5
BRANCH   3  14
HETATM   14  C   UNL     1     -41.983 -50.214  12.645  1.00  0.00     0.152 C 
BRANCH  14  15
HETATM   15  C   UNL     1     -42.413 -51.681  12.492  1.00  0.00     0.292 C 
BRANCH  15  16
HETATM   16  N   UNL     1     -42.881 -52.290  13.750  1.00  0.00     0.090 N 
HETATM   17  C   UNL     1     -43.045 -53.750  13.691  1.00  0.00     0.272 C 
HETATM   18  C   UNL     1     -44.227 -54.199  12.828  1.00  0.00     0.031 C 
HETATM   19  C   UNL     1     -45.522 -53.550  13.304  1.00  0.00     0.007 C 
HETATM   20  C   UNL     1     -45.369 -52.026  13.409  1.00  0.00     0.010 C 
HETATM   21  C   UNL     1     -46.624 -51.399  14.013  1.00  0.00     0.011 C 
HETATM   22  C   UNL     1     -44.123 -51.664  14.238  1.00  0.00     0.276 C 
ENDBRANCH  15  16
ENDBRANCH  14  15
ENDBRANCH   3  14
TORSDOF 5
ENDMDL
MODEL 2
REMARK VINA RESULT:      -5.9      1.680      2.410
REMARK  5 active torsions:
REMARK  status: ('A' for Active; 'I' for Inactive)
REMARK    1  A    between atoms: C_2  and  C_3 
REMARK    2  A    between atoms: C_2  and  N_15 
REMARK       I    between atoms: C_3  and  N_5 
REMARK    3  A    between atoms: N_5  and  C_6 
REMARK    4  A    between atoms: C_6  and  C_7 
REMARK    5  A    between atoms: C_7  and  N_8 
ROOT
HETATM    1  C   UNL     1     -40.960 -50.379  12.153  1.00  0.00     0.242 C 
HETATM    2  O   UNL     1     -40.959 -50.338  13.382  1.00  0.00    -0.271 OA
HETATM    3  N   UNL     1     -41.213 -51.546  11.459  1.00  0.00    -0.358 N 
HETATM    4  H   UNL     1     -41.335 -51.525  10.451  1.00  0.00     0.162 HD
ENDROOT
BRANCH   1   5
HETATM    5  C   UNL     1     -40.619 -49.166  11.299  1.00  0.00     0.196 C 
HETATM    6  C   UNL     1     -39.747 -48.171  12.064  1.00  0.00     0.044 C 
BRANCH   5   7
HETATM    7  N   UNL     1     -41.827 -48.542  10.793  1.00  0.00    -0.273 N 
HETATM    8  C   UNL     1     -42.983 -48.267  11.455  1.00  0.00     0.202 A 
HETATM    9  N   UNL     1     -43.838 -47.710  10.631  1.00  0.00    -0.346 N 
HETATM   10  C   UNL     1     -43.151 -47.670   9.452  1.00  0.00     0.198 A 
ATOM     11  HN  UNL     1     -44.785 -47.385  10.823  1.00  0.00     0.167 HD
HETATM   12  N   UNL     1     -41.923 -48.194   9.493  1.00  0.00    -0.292 N 
ATOM     13  HN  UNL     1     -41.241 -48.302   8.742  1.00  0.00     0.188 HD
ENDBRANCH   5   7
ENDBRANCH   1   5
BRANCH   3  14
HETATM   14  C   UNL     1     -41.478 -52.772  12.194  1.00  0.00     0.152 C 
BRANCH  14  15
HETATM   15  C   UNL     1     -42.968 -53.007  12.486  1.00  0.00     0.292 C 
BRANCH  15  16
HETATM   16  N   UNL     1     -43.269 -53.150  13.922  1.00  0.00     0.090 N 
HETATM   17  C   UNL     1     -43.696 -54.500  14.319  1.00  0.00     0.272 C 
HETATM   18  C   UNL     1     -45.089 -54.876  13.808  1.00  0.00     0.031 C 
HETATM   19  C   UNL     1     -46.125 -53.851  14.257  1.00  0.00     0.007 C 
HETATM   20  C   UNL     1     -45.688 -52.427  13.887  1.00  0.00     0.010 C 
HETATM   21  C   UNL     1     -46.663 -51.399  14.457  1.00  0.00     0.011 C 
HETATM   22  C   UNL     1     -44.255 -52.156  14.381  1.00  0.00     0.276 C 
ENDBRANCH  15  16
ENDBRANCH  14  15
ENDBRANCH   3  14
TORSDOF 5
ENDMDL
MODEL 3
REMARK VINA RESULT:      -5.8      1.240      2.181
REMARK  5 active torsions:
REMARK  status: ('A' for Active; 'I' for Inactive)
REMARK    1  A    between atoms: C_2  and  C_3 
REMARK    2  A    between atoms: C_2  and  N_15 
REMARK       I    between atoms: C_3  and  N_5 
REMARK    3  A    between atoms: N_5  and  C_6 
REMARK    4  A    between atoms: C_6  and  C_7 
REMARK    5  A    between atoms: C_7  and  N_8 
ROOT
HETATM    1  C   UNL     1     -42.382 -48.410  11.488  1.00  0.00     0.242 C 
HETATM    2  O   UNL     1     -42.781 -47.878  12.522  1.00  0.00    -0.271 OA
HETATM    3  N   UNL     1     -41.916 -49.710  11.466  1.00  0.00    -0.358 N 
HETATM    4  H   UNL     1     -41.716 -50.166  10.580  1.00  0.00     0.162 HD
ENDROOT
BRANCH   1   5
HETATM    5  C   UNL     1     -42.308 -47.661  10.165  1.00  0.00     0.196 C 
HETATM    6  C   UNL     1     -41.816 -46.227  10.362  1.00  0.00     0.044 C 
BRANCH   5   7
HETATM    7  N   UNL     1     -43.588 -47.700   9.483  1.00  0.00    -0.273 N 
HETATM    8  C   UNL     1     -43.837 -47.777   8.148  1.00  0.00     0.202 A 
HETATM    9  N   UNL     1     -45.134 -47.774   7.944  1.00  0.00    -0.346 N 
HETATM   10  C   UNL     1     -45.646 -47.684   9.206  1.00  0.00     0.198 A 
ATOM     11  HN  UNL     1     -45.636 -47.826   7.059  1.00  0.00     0.167 HD
HETATM   12  N   UNL     1     -44.738 -47.608  10.183  1.00  0.00    -0.292 N 
ATOM     13  HN  UNL     1     -44.876 -47.508  11.188  1.00  0.00     0.188 HD
ENDBRANCH   5   7
ENDBRANCH   1   5
BRANCH   3  14
HETATM   14  C   UNL     1     -41.883 -50.480  12.698  1.00  0.00     0.152 C 
BRANCH  14  15
HETATM   15  C   UNL     1     -43.097 -51.404  12.882  1.00  0.00     0.292 C 
BRANCH  15  16
HETATM   16  N   UNL     1     -42.881 -52.768  12.365  1.00  0.00     0.090 N 
HETATM   17  C   UNL     1     -44.045 -53.656  12.496  1.00  0.00     0.272 C 
HETATM   18  C   UNL     1     -44.346 -54.062  13.941  1.00  0.00     0.031 C 
HETATM   19  C   UNL     1     -43.124 -54.707  14.587  1.00  0.00     0.007 C 
HETATM   20  C   UNL     1     -41.884 -53.816  14.434  1.00  0.00     0.010 C 
HETATM   21  C   UNL     1     -40.641 -54.528  14.964  1.00  0.00     0.011 C 
HETATM   22  C   UNL     1     -41.693 -53.404  12.963  1.00  0.00     0.276 C 
ENDBRANCH  15  16
ENDBRANCH  14  15
ENDBRANCH   3  14
TORSDOF 5
ENDMDL
MODEL 4
REMARK VINA RESULT:      -5.8      1.312      1.894
REMARK  5 active torsions:
REMARK  status: ('A' for Active; 'I' for Inactive)
REMARK    1  A    between atoms: C_2  and  C_3 
REMARK    2  A    between atoms: C_2  and  N_15 
REMARK       I    between atoms: C_3  and  N_5 
REMARK    3  A    between atoms: N_5  and  C_6 
REMARK    4  A    between atoms: C_6  and  C_7 
REMARK    5  A    between atoms: C_7  and  N_8 
ROOT
HETATM    1  C   UNL     1     -41.757 -48.031  10.956  1.00  0.00     0.242 C 
HETATM    2  O   UNL     1     -42.071 -47.884  12.136  1.00  0.00    -0.271 OA
HETATM    3  N   UNL     1     -40.916 -49.046  10.543  1.00  0.00    -0.358 N 
HETATM    4  H   UNL     1     -40.777 -49.223   9.552  1.00  0.00     0.162 HD
ENDROOT
BRANCH   1   5
HETATM    5  C   UNL     1     -42.214 -47.070   9.868  1.00  0.00     0.196 C 
HETATM    6  C   UNL     1     -42.163 -45.619  10.346  1.00  0.00     0.044 C 
BRANCH   5   7
HETATM    7  N   UNL     1     -43.535 -47.431   9.390  1.00  0.00    -0.273 N 
HETATM    8  C   UNL     1     -43.911 -47.816   8.140  1.00  0.00     0.202 A 
HETATM    9  N   UNL     1     -45.204 -48.040   8.122  1.00  0.00    -0.346 N 
HETATM   10  C   UNL     1     -45.584 -47.766   9.403  1.00  0.00     0.198 A 
ATOM     11  HN  UNL     1     -45.783 -48.344   7.340  1.00  0.00     0.167 HD
HETATM   12  N   UNL     1     -44.602 -47.361  10.213  1.00  0.00    -0.292 N 
ATOM     13  HN  UNL     1     -44.646 -47.077  11.191  1.00  0.00     0.188 HD
ENDBRANCH   5   7
ENDBRANCH   1   5
BRANCH   3  14
HETATM   14  C   UNL     1     -40.373 -49.970  11.525  1.00  0.00     0.152 C 
BRANCH  14  15
HETATM   15  C   UNL     1     -41.232 -51.227  11.732  1.00  0.00     0.292 C 
BRANCH  15  16
HETATM   16  N   UNL     1     -41.671 -51.415  13.127  1.00  0.00     0.090 N 
HETATM   17  C   UNL     1     -40.761 -52.235  13.941  1.00  0.00     0.272 C 
HETATM   18  C   UNL     1     -40.762 -53.716  13.555  1.00  0.00     0.031 C 
HETATM   19  C   UNL     1     -42.173 -54.291  13.615  1.00  0.00     0.007 C 
HETATM   20  C   UNL     1     -43.152 -53.433  12.801  1.00  0.00     0.010 C 
HETATM   21  C   UNL     1     -44.583 -53.938  12.975  1.00  0.00     0.011 C 
HETATM   22  C   UNL     1     -43.040 -51.952  13.208  1.00  0.00     0.276 C 
ENDBRANCH  15  16
ENDBRANCH  14  15
ENDBRANCH   3  14
TORSDOF 5
ENDMDL
MODEL 5
REMARK VINA RESULT:      -5.7      1.296      1.745
REMARK  5 active torsions:
REMARK  status: ('A' for Active; 'I' for Inactive)
REMARK    1  A    between atoms: C_2  and  C_3 
REMARK    2  A    between atoms: C_2  and  N_15 
REMARK       I    between atoms: C_3  and  N_5 
REMARK    3  A    between atoms: N_5  and  C_6 
REMARK    4  A    between atoms: C_6  and  C_7 
REMARK    5  A    between atoms: C_7  and  N_8 
ROOT
HETATM    1  C   UNL     1     -41.923 -48.562  11.081  1.00  0.00     0.242 C 
HETATM    2  O   UNL     1     -40.863 -49.133  10.829  1.00  0.00    -0.271 OA
HETATM    3  N   UNL     1     -42.858 -49.102  11.943  1.00  0.00    -0.358 N 
HETATM    4  H   UNL     1     -43.662 -48.553  12.233  1.00  0.00     0.162 HD
ENDROOT
BRANCH   1   5
HETATM    5  C   UNL     1     -42.318 -47.252  10.416  1.00  0.00     0.196 C 
HETATM    6  C   UNL     1     -42.536 -46.146  11.448  1.00  0.00     0.044 C 
BRANCH   5   7
HETATM    7  N   UNL     1     -43.486 -47.437   9.575  1.00  0.00    -0.273 N 
HETATM    8  C   UNL     1     -43.542 -47.825   8.273  1.00  0.00     0.202 A 
HETATM    9  N   UNL     1     -44.793 -47.857   7.879  1.00  0.00    -0.346 N 
HETATM   10  C   UNL     1     -45.478 -47.465   8.992  1.00  0.00     0.198 A 
ATOM     11  HN  UNL     1     -45.163 -48.112   6.964  1.00  0.00     0.167 HD
HETATM   12  N   UNL     1     -44.720 -47.170  10.051  1.00  0.00    -0.292 N 
ATOM     13  HN  UNL     1     -44.998 -46.832  10.972  1.00  0.00     0.188 HD
ENDBRANCH   5   7
ENDBRANCH   1   5
BRANCH   3  14
HETATM   14  C   UNL     1     -42.596 -50.387  12.570  1.00  0.00     0.152 C 
BRANCH  14  15
HETATM   15  C   UNL     1     -43.244 -50.541  13.955  1.00  0.00     0.292 C 
BRANCH  15  16
HETATM   16  N   UNL     1     -43.877 -51.857  14.163  1.00  0.00     0.090 N 
HETATM   17  C   UNL     1     -44.751 -52.288  13.062  1.00  0.00     0.272 C 
HETATM   18  C   UNL     1     -46.049 -51.483  12.960  1.00  0.00     0.031 C 
HETATM   19  C   UNL     1     -46.816 -51.521  14.277  1.00  0.00     0.007 C 
HETATM   20  C   UNL     1     -45.916 -51.109  15.450  1.00  0.00     0.010 C 
HETATM   21  C   UNL     1     -46.651 -51.279  16.778  1.00  0.00     0.011 C 
HETATM   22  C   UNL     1     -44.608 -51.922  15.441  1.00  0.00     0.276 C 
ENDBRANCH  15  16
ENDBRANCH  14  15
ENDBRANCH   3  14
TORSDOF 5
ENDMDL
MODEL 6
REMARK VINA RESULT:      -5.5      3.462      4.396
REMARK  5 active torsions:
REMARK  status: ('A' for Active; 'I' for Inactive)
REMARK    1  A    between atoms: C_2  and  C_3 
REMARK    2  A    between atoms: C_2  and  N_15 
REMARK       I    between atoms: C_3  and  N_5 
REMARK    3  A    between atoms: N_5  and  C_6 
REMARK    4  A    between atoms: C_6  and  C_7 
REMARK    5  A    between atoms: C_7  and  N_8 
ROOT
HETATM    1  C   UNL     1     -39.794 -51.058  12.093  1.00  0.00     0.242 C 
HETATM    2  O   UNL     1     -39.376 -51.817  12.965  1.00  0.00    -0.271 OA
HETATM    3  N   UNL     1     -41.083 -51.145  11.604  1.00  0.00    -0.358 N 
HETATM    4  H   UNL     1     -41.443 -50.427  10.981  1.00  0.00     0.162 HD
ENDROOT
BRANCH   1   5
HETATM    5  C   UNL     1     -38.910 -50.006  11.437  1.00  0.00     0.196 C 
HETATM    6  C   UNL     1     -37.428 -50.308  11.656  1.00  0.00     0.044 C 
BRANCH   5   7
HETATM    7  N   UNL     1     -39.262 -48.679  11.905  1.00  0.00    -0.273 N 
HETATM    8  C   UNL     1     -39.214 -48.183  13.171  1.00  0.00     0.202 A 
HETATM    9  N   UNL     1     -39.631 -46.939  13.169  1.00  0.00    -0.346 N 
HETATM   10  C   UNL     1     -39.937 -46.716  11.858  1.00  0.00     0.198 A 
ATOM     11  HN  UNL     1     -39.708 -46.296  13.957  1.00  0.00     0.167 HD
HETATM   12  N   UNL     1     -39.754 -47.761  11.047  1.00  0.00    -0.292 N 
ATOM     13  HN  UNL     1     -39.937 -47.843  10.047  1.00  0.00     0.188 HD
ENDBRANCH   5   7
ENDBRANCH   1   5
BRANCH   3  14
HETATM   14  C   UNL     1     -41.978 -52.167  12.121  1.00  0.00     0.152 C 
BRANCH  14  15
HETATM   15  C   UNL     1     -43.170 -51.602  12.909  1.00  0.00     0.292 C 
BRANCH  15  16
HETATM   16  N   UNL     1     -44.058 -52.644  13.457  1.00  0.00     0.090 N 
HETATM   17  C   UNL     1     -45.269 -52.888  12.660  1.00  0.00     0.272 C 
HETATM   18  C   UNL     1     -46.283 -51.743  12.721  1.00  0.00     0.031 C 
HETATM   19  C   UNL     1     -46.665 -51.435  14.164  1.00  0.00     0.007 C 
HETATM   20  C   UNL     1     -45.417 -51.211  15.029  1.00  0.00     0.010 C 
HETATM   21  C   UNL     1     -45.803 -51.036  16.497  1.00  0.00     0.011 C 
HETATM   22  C   UNL     1     -44.425 -52.376  14.859  1.00  0.00     0.276 C 
ENDBRANCH  15  16
ENDBRANCH  14  15
ENDBRANCH   3  14
TORSDOF 5
ENDMDL
MODEL 7
REMARK VINA RESULT:      -5.4      4.287      5.545
REMARK  5 active torsions:
REMARK  status: ('A' for Active; 'I' for Inactive)
REMARK    1  A    between atoms: C_2  and  C_3 
REMARK    2  A    between atoms: C_2  and  N_15 
REMARK       I    between atoms: C_3  and  N_5 
REMARK    3  A    between atoms: N_5  and  C_6 
REMARK    4  A    between atoms: C_6  and  C_7 
REMARK    5  A    between atoms: C_7  and  N_8 
ROOT
HETATM    1  C   UNL     1     -39.840 -52.736  13.797  1.00  0.00     0.242 C 
HETATM    2  O   UNL     1     -39.721 -53.823  13.235  1.00  0.00    -0.271 OA
HETATM    3  N   UNL     1     -41.063 -52.270  14.239  1.00  0.00    -0.358 N 
HETATM    4  H   UNL     1     -41.113 -51.433  14.813  1.00  0.00     0.162 HD
ENDROOT
BRANCH   1   5
HETATM    5  C   UNL     1     -38.664 -51.790  13.993  1.00  0.00     0.196 C 
HETATM    6  C   UNL     1     -38.877 -50.879  15.202  1.00  0.00     0.044 C 
BRANCH   5   7
HETATM    7  N   UNL     1     -38.414 -51.028  12.785  1.00  0.00    -0.273 N 
HETATM    8  C   UNL     1     -39.309 -50.396  11.978  1.00  0.00     0.202 A 
HETATM    9  N   UNL     1     -38.674 -49.832  10.978  1.00  0.00    -0.346 N 
HETATM   10  C   UNL     1     -37.370 -50.158  11.215  1.00  0.00     0.198 A 
ATOM     11  HN  UNL     1     -39.061 -49.283  10.211  1.00  0.00     0.167 HD
HETATM   12  N   UNL     1     -37.162 -50.914  12.296  1.00  0.00    -0.292 N 
ATOM     13  HN  UNL     1     -36.289 -51.301  12.656  1.00  0.00     0.188 HD
ENDBRANCH   5   7
ENDBRANCH   1   5
BRANCH   3  14
HETATM   14  C   UNL     1     -42.254 -53.076  14.030  1.00  0.00     0.152 C 
BRANCH  14  15
HETATM   15  C   UNL     1     -43.432 -52.684  14.936  1.00  0.00     0.292 C 
BRANCH  15  16
HETATM   16  N   UNL     1     -43.933 -51.319  14.690  1.00  0.00     0.090 N 
HETATM   17  C   UNL     1     -44.763 -50.776  15.775  1.00  0.00     0.272 C 
HETATM   18  C   UNL     1     -46.133 -51.448  15.893  1.00  0.00     0.031 C 
HETATM   19  C   UNL     1     -46.890 -51.371  14.572  1.00  0.00     0.007 C 
HETATM   20  C   UNL     1     -46.033 -51.900  13.414  1.00  0.00     0.010 C 
HETATM   21  C   UNL     1     -46.746 -51.695  12.079  1.00  0.00     0.011 C 
HETATM   22  C   UNL     1     -44.652 -51.218  13.408  1.00  0.00     0.276 C 
ENDBRANCH  15  16
ENDBRANCH  14  15
ENDBRANCH   3  14
TORSDOF 5
ENDMDL
MODEL 8
REMARK VINA RESULT:      -5.4      3.203      4.688
REMARK  5 active torsions:
REMARK  status: ('A' for Active; 'I' for Inactive)
REMARK    1  A    between atoms: C_2  and  C_3 
REMARK    2  A    between atoms: C_2  and  N_15 
REMARK       I    between atoms: C_3  and  N_5 
REMARK    3  A    between atoms: N_5  and  C_6 
REMARK    4  A    between atoms: C_6  and  C_7 
REMARK    5  A    between atoms: C_7  and  N_8 
ROOT
HETATM    1  C   UNL     1     -41.518 -52.742  12.916  1.00  0.00     0.242 C 
HETATM    2  O   UNL     1     -42.454 -52.545  12.143  1.00  0.00    -0.271 OA
HETATM    3  N   UNL     1     -41.626 -53.601  13.993  1.00  0.00    -0.358 N 
HETATM    4  H   UNL     1     -40.804 -53.845  14.536  1.00  0.00     0.162 HD
ENDROOT
BRANCH   1   5
HETATM    5  C   UNL     1     -40.190 -52.010  12.789  1.00  0.00     0.196 C 
HETATM    6  C   UNL     1     -39.409 -52.038  14.103  1.00  0.00     0.044 C 
BRANCH   5   7
HETATM    7  N   UNL     1     -40.396 -50.655  12.316  1.00  0.00    -0.273 N 
HETATM    8  C   UNL     1     -40.350 -49.493  13.021  1.00  0.00     0.202 A 
HETATM    9  N   UNL     1     -40.608 -48.485  12.222  1.00  0.00    -0.346 N 
HETATM   10  C   UNL     1     -40.818 -49.091  11.017  1.00  0.00     0.198 A 
ATOM     11  HN  UNL     1     -40.644 -47.491  12.446  1.00  0.00     0.167 HD
HETATM   12  N   UNL     1     -40.727 -50.424  11.029  1.00  0.00    -0.292 N 
ATOM     13  HN  UNL     1     -40.869 -51.088  10.268  1.00  0.00     0.188 HD
ENDBRANCH   5   7
ENDBRANCH   1   5
BRANCH   3  14
HETATM   14  C   UNL     1     -42.883 -54.291  14.235  1.00  0.00     0.152 C 
BRANCH  14  15
HETATM   15  C   UNL     1     -43.907 -53.452  15.014  1.00  0.00     0.292 C 
BRANCH  15  16
HETATM   16  N   UNL     1     -45.307 -53.809  14.717  1.00  0.00     0.090 N 
HETATM   17  C   UNL     1     -45.748 -53.448  13.361  1.00  0.00     0.272 C 
HETATM   18  C   UNL     1     -45.903 -51.940  13.149  1.00  0.00     0.031 C 
HETATM   19  C   UNL     1     -46.853 -51.343  14.181  1.00  0.00     0.007 C 
HETATM   20  C   UNL     1     -46.436 -51.734  15.606  1.00  0.00     0.010 C 
HETATM   21  C   UNL     1     -47.467 -51.244  16.621  1.00  0.00     0.011 C 
HETATM   22  C   UNL     1     -46.241 -53.257  15.713  1.00  0.00     0.276 C 
ENDBRANCH  15  16
ENDBRANCH  14  15
ENDBRANCH   3  14
TORSDOF 5
ENDMDL
MODEL 9
REMARK VINA RESULT:      -5.4      2.036      2.990
REMARK  5 active torsions:
REMARK  status: ('A' for Active; 'I' for Inactive)
REMARK    1  A    between atoms: C_2  and  C_3 
REMARK    2  A    between atoms: C_2  and  N_15 
REMARK       I    between atoms: C_3  and  N_5 
REMARK    3  A    between atoms: N_5  and  C_6 
REMARK    4  A    between atoms: C_6  and  C_7 
REMARK    5  A    between atoms: C_7  and  N_8 
ROOT
HETATM    1  C   UNL     1     -41.659 -48.342  11.811  1.00  0.00     0.242 C 
HETATM    2  O   UNL     1     -40.975 -48.111  12.806  1.00  0.00    -0.271 OA
HETATM    3  N   UNL     1     -41.844 -49.625  11.333  1.00  0.00    -0.358 N 
HETATM    4  H   UNL     1     -42.515 -49.802  10.591  1.00  0.00     0.162 HD
ENDROOT
BRANCH   1   5
HETATM    5  C   UNL     1     -42.302 -47.234  10.990  1.00  0.00     0.196 C 
HETATM    6  C   UNL     1     -42.776 -47.750   9.631  1.00  0.00     0.044 C 
BRANCH   5   7
HETATM    7  N   UNL     1     -41.396 -46.110  10.850  1.00  0.00    -0.273 N 
HETATM    8  C   UNL     1     -41.628 -44.795  11.106  1.00  0.00     0.202 A 
HETATM    9  N   UNL     1     -40.548 -44.099  10.836  1.00  0.00    -0.346 N 
HETATM   10  C   UNL     1     -39.669 -45.048  10.402  1.00  0.00     0.198 A 
ATOM     11  HN  UNL     1     -40.402 -43.094  10.928  1.00  0.00     0.167 HD
HETATM   12  N   UNL     1     -40.150 -46.293  10.366  1.00  0.00    -0.292 N 
ATOM     13  HN  UNL     1     -39.696 -47.153  10.056  1.00  0.00     0.188 HD
ENDBRANCH   5   7
ENDBRANCH   1   5
BRANCH   3  14
HETATM   14  C   UNL     1     -41.208 -50.742  12.013  1.00  0.00     0.152 C 
BRANCH  14  15
HETATM   15  C   UNL     1     -42.154 -51.924  12.277  1.00  0.00     0.292 C 
BRANCH  15  16
HETATM   16  N   UNL     1     -42.763 -51.900  13.619  1.00  0.00     0.090 N 
HETATM   17  C   UNL     1     -42.780 -53.204  14.298  1.00  0.00     0.272 C 
HETATM   18  C   UNL     1     -43.759 -54.204  13.679  1.00  0.00     0.031 C 
HETATM   19  C   UNL     1     -45.168 -53.625  13.632  1.00  0.00     0.007 C 
HETATM   20  C   UNL     1     -45.175 -52.245  12.959  1.00  0.00     0.010 C 
HETATM   21  C   UNL     1     -46.564 -51.615  13.037  1.00  0.00     0.011 C 
HETATM   22  C   UNL     1     -44.120 -51.325  13.600  1.00  0.00     0.276 C 
ENDBRANCH  15  16
ENDBRANCH  14  15
ENDBRANCH   3  14
TORSDOF 5
ENDMDL
