MODEL 1
REMARK VINA RESULT:      -5.7      0.000      0.000
REMARK  4 active torsions:
REMARK  status: ('A' for Active; 'I' for Inactive)
REMARK    1  A    between atoms: C_2  and  N_3 
REMARK    2  A    between atoms: C_2  and  C_18 
REMARK       I    between atoms: N_3  and  C_4 
REMARK       I    between atoms: C_4  and  N_6 
REMARK    3  A    between atoms: N_6  and  C_7 
REMARK    4  A    between atoms: C_11  and  N_15 
ROOT
HETATM    1  N   UNL     1     -44.099 -50.938  12.811  1.00  0.00    -0.338 N 
HETATM    2  C   UNL     1     -43.141 -49.948  12.765  1.00  0.00     0.321 C 
HETATM    3  O   UNL     1     -42.151 -49.971  13.482  1.00  0.00    -0.247 OA
HETATM    4  N   UNL     1     -43.408 -48.986  11.815  1.00  0.00    -0.306 N 
HETATM    5  H   UNL     1     -45.026 -50.726  12.477  1.00  0.00     0.164 HD
HETATM    6  H   UNL     1     -44.164 -49.171  11.173  1.00  0.00     0.171 HD
ENDROOT
BRANCH   4   7
HETATM    7  C   UNL     1     -42.592 -47.856  11.569  1.00  0.00     0.068 A 
HETATM    8  C   UNL     1     -42.717 -46.627  12.178  1.00  0.00     0.137 A 
HETATM    9  N   UNL     1     -41.921 -45.566  11.922  1.00  0.00    -0.200 N 
HETATM   10  C   UNL     1     -40.945 -45.702  11.014  1.00  0.00     0.679 A 
ATOM     11  HN  UNL     1     -42.060 -44.681  12.408  1.00  0.00     0.183 HD
HETATM   12  N   UNL     1     -40.744 -46.861  10.363  1.00  0.00    -0.200 N 
HETATM   13  C   UNL     1     -41.567 -47.901  10.651  1.00  0.00     0.137 A 
ATOM     14  HN  UNL     1     -39.998 -46.956   9.675  1.00  0.00     0.183 HD
BRANCH  10  15
HETATM   15  N   UNL     1     -40.175 -44.601  10.713  1.00  0.00    -0.226 N 
HETATM   16  C   UNL     1     -39.184 -44.681   9.655  1.00  0.00     0.168 C 
HETATM   17  C   UNL     1     -40.561 -43.285  11.173  1.00  0.00     0.168 C 
ENDBRANCH  10  15
ENDBRANCH   4   7
BRANCH   1  18
HETATM   18  C   UNL     1     -43.947 -52.034  13.764  1.00  0.00     0.086 C 
HETATM   19  C   UNL     1     -43.534 -53.318  13.054  1.00  0.00     0.032 C 
BRANCH  18  20
HETATM   20  C   UNL     1     -45.287 -52.235  14.472  1.00  0.00     0.008 C 
HETATM   21  C   UNL     1     -46.601 -51.639  13.880  1.00  0.00     0.007 C 
HETATM   22  C   UNL     1     -47.019 -51.295  15.324  1.00  0.00     0.001 C 
HETATM   23  C   UNL     1     -45.520 -51.268  15.673  1.00  0.00     0.007 C 
ENDBRANCH  18  20
ENDBRANCH   1  18
TORSDOF 4
ENDMDL
MODEL 2
REMARK VINA RESULT:      -5.7      2.178      2.654
REMARK  4 active torsions:
REMARK  status: ('A' for Active; 'I' for Inactive)
REMARK    1  A    between atoms: C_2  and  N_3 
REMARK    2  A    between atoms: C_2  and  C_18 
REMARK       I    between atoms: N_3  and  C_4 
REMARK       I    between atoms: C_4  and  N_6 
REMARK    3  A    between atoms: N_6  and  C_7 
REMARK    4  A    between atoms: C_11  and  N_15 
ROOT
HETATM    1  N   UNL     1     -41.745 -52.585  12.388  1.00  0.00    -0.338 N 
HETATM    2  C   UNL     1     -41.470 -51.239  12.503  1.00  0.00     0.321 C 
HETATM    3  O   UNL     1     -41.536 -50.654  13.574  1.00  0.00    -0.247 OA
HETATM    4  N   UNL     1     -41.085 -50.666  11.310  1.00  0.00    -0.306 N 
HETATM    5  H   UNL     1     -42.008 -52.947  11.484  1.00  0.00     0.164 HD
HETATM    6  H   UNL     1     -40.905 -51.289  10.537  1.00  0.00     0.171 HD
ENDROOT
BRANCH   4   7
HETATM    7  C   UNL     1     -40.758 -49.299  11.147  1.00  0.00     0.068 A 
HETATM    8  C   UNL     1     -39.629 -48.680  11.635  1.00  0.00     0.137 A 
HETATM    9  N   UNL     1     -39.343 -47.371  11.463  1.00  0.00    -0.200 N 
HETATM   10  C   UNL     1     -40.209 -46.611  10.778  1.00  0.00     0.679 A 
ATOM     11  HN  UNL     1     -38.488 -46.970  11.846  1.00  0.00     0.183 HD
HETATM   12  N   UNL     1     -41.341 -47.123  10.263  1.00  0.00    -0.200 N 
HETATM   13  C   UNL     1     -41.588 -48.442  10.461  1.00  0.00     0.137 A 
ATOM     14  HN  UNL     1     -41.993 -46.537   9.742  1.00  0.00     0.183 HD
BRANCH  10  15
HETATM   15  N   UNL     1     -39.943 -45.266  10.655  1.00  0.00    -0.226 N 
HETATM   16  C   UNL     1     -40.120 -44.388  11.798  1.00  0.00     0.168 C 
HETATM   17  C   UNL     1     -39.168 -44.768   9.539  1.00  0.00     0.168 C 
ENDBRANCH  10  15
ENDBRANCH   4   7
BRANCH   1  18
HETATM   18  C   UNL     1     -42.157 -53.333  13.572  1.00  0.00     0.086 C 
HETATM   19  C   UNL     1     -41.009 -54.184  14.104  1.00  0.00     0.032 C 
BRANCH  18  20
HETATM   20  C   UNL     1     -43.334 -54.226  13.183  1.00  0.00     0.008 C 
HETATM   21  C   UNL     1     -44.745 -53.616  12.915  1.00  0.00     0.007 C 
HETATM   22  C   UNL     1     -45.340 -54.841  13.638  1.00  0.00     0.001 C 
HETATM   23  C   UNL     1     -44.001 -54.957  14.388  1.00  0.00     0.007 C 
ENDBRANCH  18  20
ENDBRANCH   1  18
TORSDOF 4
ENDMDL
MODEL 3
REMARK VINA RESULT:      -5.5      1.907      2.508
REMARK  4 active torsions:
REMARK  status: ('A' for Active; 'I' for Inactive)
REMARK    1  A    between atoms: C_2  and  N_3 
REMARK    2  A    between atoms: C_2  and  C_18 
REMARK       I    between atoms: N_3  and  C_4 
REMARK       I    between atoms: C_4  and  N_6 
REMARK    3  A    between atoms: N_6  and  C_7 
REMARK    4  A    between atoms: C_11  and  N_15 
ROOT
HETATM    1  N   UNL     1     -42.308 -51.784  12.274  1.00  0.00    -0.338 N 
HETATM    2  C   UNL     1     -42.049 -50.449  12.496  1.00  0.00     0.321 C 
HETATM    3  O   UNL     1     -41.627 -50.042  13.569  1.00  0.00    -0.247 OA
HETATM    4  N   UNL     1     -42.277 -49.666  11.385  1.00  0.00    -0.306 N 
HETATM    5  H   UNL     1     -42.950 -52.034  11.537  1.00  0.00     0.164 HD
HETATM    6  H   UNL     1     -42.458 -50.143  10.515  1.00  0.00     0.171 HD
ENDROOT
BRANCH   4   7
HETATM    7  C   UNL     1     -42.099 -48.262  11.345  1.00  0.00     0.068 A 
HETATM    8  C   UNL     1     -40.947 -47.609  10.972  1.00  0.00     0.137 A 
HETATM    9  N   UNL     1     -40.808 -46.265  10.943  1.00  0.00    -0.200 N 
HETATM   10  C   UNL     1     -41.852 -45.506  11.304  1.00  0.00     0.679 A 
ATOM     11  HN  UNL     1     -39.929 -45.838  10.654  1.00  0.00     0.183 HD
HETATM   12  N   UNL     1     -43.020 -46.050  11.687  1.00  0.00    -0.200 N 
HETATM   13  C   UNL     1     -43.115 -47.403  11.701  1.00  0.00     0.137 A 
ATOM     14  HN  UNL     1     -43.809 -45.464  11.957  1.00  0.00     0.183 HD
BRANCH  10  15
HETATM   15  N   UNL     1     -41.688 -44.140  11.331  1.00  0.00    -0.226 N 
HETATM   16  C   UNL     1     -42.740 -43.296  11.866  1.00  0.00     0.168 C 
HETATM   17  C   UNL     1     -40.374 -43.553  11.168  1.00  0.00     0.168 C 
ENDBRANCH  10  15
ENDBRANCH   4   7
BRANCH   1  18
HETATM   18  C   UNL     1     -42.104 -52.742  13.357  1.00  0.00     0.086 C 
HETATM   19  C   UNL     1     -41.256 -53.920  12.890  1.00  0.00     0.032 C 
BRANCH  18  20
HETATM   20  C   UNL     1     -43.475 -53.234  13.820  1.00  0.00     0.008 C 
HETATM   21  C   UNL     1     -43.641 -54.644  14.466  1.00  0.00     0.007 C 
HETATM   22  C   UNL     1     -44.963 -54.775  13.682  1.00  0.00     0.001 C 
HETATM   23  C   UNL     1     -44.375 -53.776  12.669  1.00  0.00     0.007 C 
ENDBRANCH  18  20
ENDBRANCH   1  18
TORSDOF 4
ENDMDL
MODEL 4
REMARK VINA RESULT:      -5.4      3.384      7.589
REMARK  4 active torsions:
REMARK  status: ('A' for Active; 'I' for Inactive)
REMARK    1  A    between atoms: C_2  and  N_3 
REMARK    2  A    between atoms: C_2  and  C_18 
REMARK       I    between atoms: N_3  and  C_4 
REMARK       I    between atoms: C_4  and  N_6 
REMARK    3  A    between atoms: N_6  and  C_7 
REMARK    4  A    between atoms: C_11  and  N_15 
ROOT
HETATM    1  N   UNL     1     -41.602 -48.206  10.074  1.00  0.00    -0.338 N 
HETATM    2  C   UNL     1     -41.674 -49.103  11.117  1.00  0.00     0.321 C 
HETATM    3  O   UNL     1     -42.461 -48.958  12.042  1.00  0.00    -0.247 OA
HETATM    4  N   UNL     1     -40.810 -50.166  10.971  1.00  0.00    -0.306 N 
HETATM    5  H   UNL     1     -40.752 -48.164   9.533  1.00  0.00     0.164 HD
HETATM    6  H   UNL     1     -40.339 -50.259  10.084  1.00  0.00     0.171 HD
ENDROOT
BRANCH   4   7
HETATM    7  C   UNL     1     -40.676 -51.223  11.904  1.00  0.00     0.068 A 
HETATM    8  C   UNL     1     -39.835 -51.230  12.994  1.00  0.00     0.137 A 
HETATM    9  N   UNL     1     -39.730 -52.255  13.868  1.00  0.00    -0.200 N 
HETATM   10  C   UNL     1     -40.484 -53.344  13.672  1.00  0.00     0.679 A 
ATOM     11  HN  UNL     1     -39.090 -52.200  14.660  1.00  0.00     0.183 HD
HETATM   12  N   UNL     1     -41.335 -53.434  12.634  1.00  0.00    -0.200 N 
HETATM   13  C   UNL     1     -41.409 -52.382  11.781  1.00  0.00     0.137 A 
ATOM     14  HN  UNL     1     -41.907 -54.266  12.494  1.00  0.00     0.183 HD
BRANCH  10  15
HETATM   15  N   UNL     1     -40.331 -54.409  14.530  1.00  0.00    -0.226 N 
HETATM   16  C   UNL     1     -39.002 -54.919  14.818  1.00  0.00     0.168 C 
HETATM   17  C   UNL     1     -41.407 -54.804  15.413  1.00  0.00     0.168 C 
ENDBRANCH  10  15
ENDBRANCH   4   7
BRANCH   1  18
HETATM   18  C   UNL     1     -42.467 -47.029  10.083  1.00  0.00     0.086 C 
HETATM   19  C   UNL     1     -43.223 -46.899   8.766  1.00  0.00     0.032 C 
BRANCH  18  20
HETATM   20  C   UNL     1     -41.589 -45.797  10.306  1.00  0.00     0.008 C 
HETATM   21  C   UNL     1     -40.076 -45.947  10.653  1.00  0.00     0.007 C 
HETATM   22  C   UNL     1     -40.253 -44.770  11.634  1.00  0.00     0.001 C 
HETATM   23  C   UNL     1     -41.739 -45.161  11.721  1.00  0.00     0.007 C 
ENDBRANCH  18  20
ENDBRANCH   1  18
TORSDOF 4
ENDMDL
MODEL 5
REMARK VINA RESULT:      -5.0      3.100      4.505
REMARK  4 active torsions:
REMARK  status: ('A' for Active; 'I' for Inactive)
REMARK    1  A    between atoms: C_2  and  N_3 
REMARK    2  A    between atoms: C_2  and  C_18 
REMARK       I    between atoms: N_3  and  C_4 
REMARK       I    between atoms: C_4  and  N_6 
REMARK    3  A    between atoms: N_6  and  C_7 
REMARK    4  A    between atoms: C_11  and  N_15 
ROOT
HETATM    1  N   UNL     1     -41.456 -52.522  14.438  1.00  0.00    -0.338 N 
HETATM    2  C   UNL     1     -41.962 -51.876  13.331  1.00  0.00     0.321 C 
HETATM    3  O   UNL     1     -42.755 -52.414  12.572  1.00  0.00    -0.247 OA
HETATM    4  N   UNL     1     -41.510 -50.579  13.215  1.00  0.00    -0.306 N 
HETATM    5  H   UNL     1     -40.586 -52.197  14.830  1.00  0.00     0.164 HD
HETATM    6  H   UNL     1     -40.997 -50.197  13.995  1.00  0.00     0.171 HD
ENDROOT
BRANCH   4   7
HETATM    7  C   UNL     1     -41.866 -49.699  12.164  1.00  0.00     0.068 A 
HETATM    8  C   UNL     1     -41.087 -49.398  11.070  1.00  0.00     0.137 A 
HETATM    9  N   UNL     1     -41.454 -48.553  10.082  1.00  0.00    -0.200 N 
HETATM   10  C   UNL     1     -42.652 -47.957  10.161  1.00  0.00     0.679 A 
ATOM     11  HN  UNL     1     -40.834 -48.373   9.293  1.00  0.00     0.183 HD
HETATM   12  N   UNL     1     -43.485 -48.185  11.192  1.00  0.00    -0.200 N 
HETATM   13  C   UNL     1     -43.075 -49.040  12.163  1.00  0.00     0.137 A 
ATOM     14  HN  UNL     1     -44.395 -47.729  11.243  1.00  0.00     0.183 HD
BRANCH  10  15
HETATM   15  N   UNL     1     -42.998 -47.053   9.184  1.00  0.00    -0.226 N 
HETATM   16  C   UNL     1     -43.396 -47.525   7.870  1.00  0.00     0.168 C 
HETATM   17  C   UNL     1     -43.311 -45.682   9.527  1.00  0.00     0.168 C 
ENDBRANCH  10  15
ENDBRANCH   4   7
BRANCH   1  18
HETATM   18  C   UNL     1     -41.853 -53.903  14.702  1.00  0.00     0.086 C 
HETATM   19  C   UNL     1     -42.660 -54.001  15.991  1.00  0.00     0.032 C 
BRANCH  18  20
HETATM   20  C   UNL     1     -40.583 -54.747  14.813  1.00  0.00     0.008 C 
HETATM   21  C   UNL     1     -40.103 -55.289  16.194  1.00  0.00     0.007 C 
HETATM   22  C   UNL     1     -38.662 -54.975  15.743  1.00  0.00     0.001 C 
HETATM   23  C   UNL     1     -39.265 -53.914  14.806  1.00  0.00     0.007 C 
ENDBRANCH  18  20
ENDBRANCH   1  18
TORSDOF 4
ENDMDL
MODEL 6
REMARK VINA RESULT:      -4.7     14.196     14.797
REMARK  4 active torsions:
REMARK  status: ('A' for Active; 'I' for Inactive)
REMARK    1  A    between atoms: C_2  and  N_3 
REMARK    2  A    between atoms: C_2  and  C_18 
REMARK       I    between atoms: N_3  and  C_4 
REMARK       I    between atoms: C_4  and  N_6 
REMARK    3  A    between atoms: N_6  and  C_7 
REMARK    4  A    between atoms: C_11  and  N_15 
ROOT
HETATM    1  N   UNL     1     -50.837 -51.149  -0.565  1.00  0.00    -0.338 N 
HETATM    2  C   UNL     1     -50.556 -50.141   0.332  1.00  0.00     0.321 C 
HETATM    3  O   UNL     1     -49.818 -50.316   1.291  1.00  0.00    -0.247 OA
HETATM    4  N   UNL     1     -51.156 -48.946   0.002  1.00  0.00    -0.306 N 
HETATM    5  H   UNL     1     -51.677 -51.080  -1.118  1.00  0.00     0.164 HD
HETATM    6  H   UNL     1     -51.599 -48.887  -0.903  1.00  0.00     0.171 HD
ENDROOT
BRANCH   4   7
HETATM    7  C   UNL     1     -51.041 -47.756   0.760  1.00  0.00     0.068 A 
HETATM    8  C   UNL     1     -49.978 -46.882   0.726  1.00  0.00     0.137 A 
HETATM    9  N   UNL     1     -49.896 -45.752   1.462  1.00  0.00    -0.200 N 
HETATM   10  C   UNL     1     -50.908 -45.451   2.288  1.00  0.00     0.679 A 
ATOM     11  HN  UNL     1     -49.083 -45.141   1.391  1.00  0.00     0.183 HD
HETATM   12  N   UNL     1     -51.990 -46.243   2.393  1.00  0.00    -0.200 N 
HETATM   13  C   UNL     1     -52.029 -47.368   1.637  1.00  0.00     0.137 A 
ATOM     14  HN  UNL     1     -52.756 -46.005   3.023  1.00  0.00     0.183 HD
BRANCH  10  15
HETATM   15  N   UNL     1     -50.795 -44.331   3.079  1.00  0.00    -0.226 N 
HETATM   16  C   UNL     1     -49.482 -43.864   3.486  1.00  0.00     0.168 C 
HETATM   17  C   UNL     1     -51.907 -43.416   3.223  1.00  0.00     0.168 C 
ENDBRANCH  10  15
ENDBRANCH   4   7
BRANCH   1  18
HETATM   18  C   UNL     1     -50.262 -52.474  -0.353  1.00  0.00     0.086 C 
HETATM   19  C   UNL     1     -49.023 -52.675  -1.218  1.00  0.00     0.032 C 
BRANCH  18  20
HETATM   20  C   UNL     1     -51.324 -53.514  -0.712  1.00  0.00     0.008 C 
HETATM   21  C   UNL     1     -51.320 -54.213  -2.106  1.00  0.00     0.007 C 
HETATM   22  C   UNL     1     -52.858 -54.101  -2.094  1.00  0.00     0.001 C 
HETATM   23  C   UNL     1     -52.690 -52.900  -1.146  1.00  0.00     0.007 C 
ENDBRANCH  18  20
ENDBRANCH   1  18
TORSDOF 4
ENDMDL
MODEL 7
REMARK VINA RESULT:      -4.7      3.138      4.884
REMARK  4 active torsions:
REMARK  status: ('A' for Active; 'I' for Inactive)
REMARK    1  A    between atoms: C_2  and  N_3 
REMARK    2  A    between atoms: C_2  and  C_18 
REMARK       I    between atoms: N_3  and  C_4 
REMARK       I    between atoms: C_4  and  N_6 
REMARK    3  A    between atoms: N_6  and  C_7 
REMARK    4  A    between atoms: C_11  and  N_15 
ROOT
HETATM    1  N   UNL     1     -40.682 -49.357  10.611  1.00  0.00    -0.338 N 
HETATM    2  C   UNL     1     -40.927 -48.126  11.178  1.00  0.00     0.321 C 
HETATM    3  O   UNL     1     -40.924 -47.958  12.389  1.00  0.00    -0.247 OA
HETATM    4  N   UNL     1     -41.128 -47.135  10.242  1.00  0.00    -0.306 N 
HETATM    5  H   UNL     1     -41.017 -49.532   9.676  1.00  0.00     0.164 HD
HETATM    6  H   UNL     1     -40.936 -47.365   9.279  1.00  0.00     0.171 HD
ENDROOT
BRANCH   4   7
HETATM    7  C   UNL     1     -41.410 -45.783  10.555  1.00  0.00     0.068 A 
HETATM    8  C   UNL     1     -42.665 -45.236  10.698  1.00  0.00     0.137 A 
HETATM    9  N   UNL     1     -42.902 -43.940  10.998  1.00  0.00    -0.200 N 
HETATM   10  C   UNL     1     -41.856 -43.120  11.166  1.00  0.00     0.679 A 
ATOM     11  HN  UNL     1     -43.856 -43.594  11.094  1.00  0.00     0.183 HD
HETATM   12  N   UNL     1     -40.590 -43.559  11.046  1.00  0.00    -0.200 N 
HETATM   13  C   UNL     1     -40.398 -44.867  10.743  1.00  0.00     0.137 A 
ATOM     14  HN  UNL     1     -39.800 -42.928  11.177  1.00  0.00     0.183 HD
BRANCH  10  15
HETATM   15  N   UNL     1     -42.102 -41.789  11.413  1.00  0.00    -0.226 N 
HETATM   16  C   UNL     1     -43.469 -41.322  11.556  1.00  0.00     0.168 C 
HETATM   17  C   UNL     1     -41.043 -40.918  11.877  1.00  0.00     0.168 C 
ENDBRANCH  10  15
ENDBRANCH   4   7
BRANCH   1  18
HETATM   18  C   UNL     1     -40.440 -50.507  11.478  1.00  0.00     0.086 C 
HETATM   19  C   UNL     1     -41.655 -50.795  12.352  1.00  0.00     0.032 C 
BRANCH  18  20
HETATM   20  C   UNL     1     -39.227 -50.193  12.355  1.00  0.00     0.008 C 
HETATM   21  C   UNL     1     -37.781 -50.272  11.776  1.00  0.00     0.007 C 
HETATM   22  C   UNL     1     -37.347 -50.887  13.122  1.00  0.00     0.001 C 
HETATM   23  C   UNL     1     -38.800 -51.366  13.289  1.00  0.00     0.007 C 
ENDBRANCH  18  20
ENDBRANCH   1  18
TORSDOF 4
ENDMDL
MODEL 8
REMARK VINA RESULT:      -4.6     14.441     15.094
REMARK  4 active torsions:
REMARK  status: ('A' for Active; 'I' for Inactive)
REMARK    1  A    between atoms: C_2  and  N_3 
REMARK    2  A    between atoms: C_2  and  C_18 
REMARK       I    between atoms: N_3  and  C_4 
REMARK       I    between atoms: C_4  and  N_6 
REMARK    3  A    between atoms: N_6  and  C_7 
REMARK    4  A    between atoms: C_11  and  N_15 
ROOT
HETATM    1  N   UNL     1     -50.728 -52.249  -0.467  1.00  0.00    -0.338 N 
HETATM    2  C   UNL     1     -51.059 -50.935  -0.219  1.00  0.00     0.321 C 
HETATM    3  O   UNL     1     -51.968 -50.373  -0.812  1.00  0.00    -0.247 OA
HETATM    4  N   UNL     1     -50.291 -50.366   0.774  1.00  0.00    -0.306 N 
HETATM    5  H   UNL     1     -49.801 -52.565  -0.228  1.00  0.00     0.164 HD
HETATM    6  H   UNL     1     -49.692 -50.982   1.303  1.00  0.00     0.171 HD
ENDROOT
BRANCH   4   7
HETATM    7  C   UNL     1     -50.416 -49.026   1.215  1.00  0.00     0.068 A 
HETATM    8  C   UNL     1     -51.584 -48.421   1.621  1.00  0.00     0.137 A 
HETATM    9  N   UNL     1     -51.672 -47.139   2.038  1.00  0.00    -0.200 N 
HETATM   10  C   UNL     1     -50.559 -46.394   2.059  1.00  0.00     0.679 A 
ATOM     11  HN  UNL     1     -52.567 -46.747   2.330  1.00  0.00     0.183 HD
HETATM   12  N   UNL     1     -49.370 -46.895   1.680  1.00  0.00    -0.200 N 
HETATM   13  C   UNL     1     -49.327 -48.186   1.267  1.00  0.00     0.137 A 
ATOM     14  HN  UNL     1     -48.527 -46.321   1.701  1.00  0.00     0.183 HD
BRANCH  10  15
HETATM   15  N   UNL     1     -50.663 -45.072   2.428  1.00  0.00    -0.226 N 
HETATM   16  C   UNL     1     -49.522 -44.393   3.013  1.00  0.00     0.168 C 
HETATM   17  C   UNL     1     -51.750 -44.254   1.934  1.00  0.00     0.168 C 
ENDBRANCH  10  15
ENDBRANCH   4   7
BRANCH   1  18
HETATM   18  C   UNL     1     -51.463 -52.990  -1.488  1.00  0.00     0.086 C 
HETATM   19  C   UNL     1     -52.412 -53.999  -0.852  1.00  0.00     0.032 C 
BRANCH  18  20
HETATM   20  C   UNL     1     -50.447 -53.713  -2.373  1.00  0.00     0.008 C 
HETATM   21  C   UNL     1     -50.498 -55.262  -2.547  1.00  0.00     0.007 C 
HETATM   22  C   UNL     1     -48.957 -55.253  -2.494  1.00  0.00     0.001 C 
HETATM   23  C   UNL     1     -49.065 -53.946  -1.690  1.00  0.00     0.007 C 
ENDBRANCH  18  20
ENDBRANCH   1  18
TORSDOF 4
ENDMDL
MODEL 9
REMARK VINA RESULT:      -4.6      6.412      9.916
REMARK  4 active torsions:
REMARK  status: ('A' for Active; 'I' for Inactive)
REMARK    1  A    between atoms: C_2  and  N_3 
REMARK    2  A    between atoms: C_2  and  C_18 
REMARK       I    between atoms: N_3  and  C_4 
REMARK       I    between atoms: C_4  and  N_6 
REMARK    3  A    between atoms: N_6  and  C_7 
REMARK    4  A    between atoms: C_11  and  N_15 
ROOT
HETATM    1  N   UNL     1     -43.462 -53.780  14.620  1.00  0.00    -0.338 N 
HETATM    2  C   UNL     1     -42.945 -54.883  15.265  1.00  0.00     0.321 C 
HETATM    3  O   UNL     1     -43.407 -56.003  15.104  1.00  0.00    -0.247 OA
HETATM    4  N   UNL     1     -41.856 -54.581  16.054  1.00  0.00    -0.306 N 
HETATM    5  H   UNL     1     -43.295 -52.868  15.016  1.00  0.00     0.164 HD
HETATM    6  H   UNL     1     -41.468 -53.654  15.968  1.00  0.00     0.171 HD
ENDROOT
BRANCH   4   7
HETATM    7  C   UNL     1     -41.145 -55.526  16.832  1.00  0.00     0.068 A 
HETATM    8  C   UNL     1     -39.924 -56.075  16.510  1.00  0.00     0.137 A 
HETATM    9  N   UNL     1     -39.269 -56.976  17.275  1.00  0.00    -0.200 N 
HETATM   10  C   UNL     1     -39.834 -57.374  18.423  1.00  0.00     0.679 A 
ATOM     11  HN  UNL     1     -38.364 -57.345  16.985  1.00  0.00     0.183 HD
HETATM   12  N   UNL     1     -41.026 -56.897  18.823  1.00  0.00    -0.200 N 
HETATM   13  C   UNL     1     -41.649 -55.995  18.024  1.00  0.00     0.137 A 
ATOM     14  HN  UNL     1     -41.448 -57.204  19.699  1.00  0.00     0.183 HD
BRANCH  10  15
HETATM   15  N   UNL     1     -39.192 -58.335  19.169  1.00  0.00    -0.226 N 
HETATM   16  C   UNL     1     -39.138 -59.705  18.690  1.00  0.00     0.168 C 
HETATM   17  C   UNL     1     -38.280 -57.958  20.228  1.00  0.00     0.168 C 
ENDBRANCH  10  15
ENDBRANCH   4   7
BRANCH   1  18
HETATM   18  C   UNL     1     -44.615 -53.944  13.739  1.00  0.00     0.086 C 
HETATM   19  C   UNL     1     -44.326 -53.376  12.354  1.00  0.00     0.032 C 
BRANCH  18  20
HETATM   20  C   UNL     1     -45.800 -53.211  14.368  1.00  0.00     0.008 C 
HETATM   21  C   UNL     1     -46.535 -52.072  13.597  1.00  0.00     0.007 C 
HETATM   22  C   UNL     1     -46.634 -51.317  14.939  1.00  0.00     0.001 C 
HETATM   23  C   UNL     1     -45.392 -52.106  15.390  1.00  0.00     0.007 C 
ENDBRANCH  18  20
ENDBRANCH   1  18
TORSDOF 4
ENDMDL
