MODEL 1
REMARK VINA RESULT:      -6.2      0.000      0.000
REMARK  8 active torsions:
REMARK  status: ('A' for Active; 'I' for Inactive)
REMARK    1  A    between atoms: O_1  and  C_2 
REMARK    2  A    between atoms: C_2  and  C_3 
REMARK    3  A    between atoms: C_3  and  C_4 
REMARK    4  A    between atoms: C_4  and  C_5 
REMARK    5  A    between atoms: N_14  and  C_15 
REMARK    6  A    between atoms: C_15  and  C_16 
REMARK    7  A    between atoms: C_16  and  O_17 
REMARK    8  A    between atoms: C_16  and  C_18 
ROOT
HETATM    1  C   UNL     1     -41.904 -47.021  10.197  1.00  0.00     0.084 A 
HETATM    2  N   UNL     1     -41.366 -45.827  10.034  1.00  0.00    -0.344 N 
ATOM      3  HN  UNL     1     -41.521 -45.187   9.255  1.00  0.00     0.167 HD
HETATM    4  C   UNL     1     -40.561 -45.621  11.118  1.00  0.00     0.060 A 
HETATM    5  C   UNL     1     -39.779 -44.503  11.438  1.00  0.00     0.032 A 
HETATM    6  C   UNL     1     -39.054 -44.507  12.635  1.00  0.00     0.002 A 
HETATM    7  C   UNL     1     -39.104 -45.607  13.491  1.00  0.00     0.002 A 
HETATM    8  C   UNL     1     -39.874 -46.736  13.182  1.00  0.00     0.032 A 
HETATM    9  C   UNL     1     -40.597 -46.713  11.980  1.00  0.00     0.062 A 
HETATM   10  N   UNL     1     -41.452 -47.604  11.364  1.00  0.00    -0.332 N 
ENDROOT
BRANCH  10  11
HETATM   11  C   UNL     1     -41.908 -48.863  11.933  1.00  0.00     0.167 C 
BRANCH  11  12
HETATM   12  C   UNL     1     -40.991 -50.066  11.637  1.00  0.00     0.169 C 
BRANCH  12  13
HETATM   13  O   UNL     1     -40.472 -50.005  10.307  1.00  0.00    -0.389 OA
HETATM   14  H   UNL     1     -39.881 -49.238  10.246  1.00  0.00     0.210 HD
ENDBRANCH  12  13
BRANCH  12  15
HETATM   15  C   UNL     1     -39.795 -50.186  12.573  1.00  0.00    -0.028 A 
HETATM   16  C   UNL     1     -38.497 -50.016  12.052  1.00  0.00     0.013 A 
HETATM   17  C   UNL     1     -37.373 -50.087  12.880  1.00  0.00     0.043 A 
HETATM   18  C   UNL     1     -37.536 -50.320  14.239  1.00  0.00     0.116 A 
HETATM   19  F   UNL     1     -36.461 -50.390  15.035  1.00  0.00    -0.206 F 
HETATM   20  C   UNL     1     -38.803 -50.474  14.785  1.00  0.00     0.043 A 
HETATM   21  C   UNL     1     -39.930 -50.401  13.957  1.00  0.00     0.013 A 
ENDBRANCH  12  15
ENDBRANCH  11  12
ENDBRANCH  10  11
BRANCH   1  22
HETATM   22  C   UNL     1     -42.884 -47.645   9.256  1.00  0.00     0.079 C 
BRANCH  22  23
HETATM   23  C   UNL     1     -43.504 -46.617   8.304  1.00  0.00     0.033 C 
BRANCH  23  24
HETATM   24  C   UNL     1     -44.634 -45.821   8.947  1.00  0.00     0.164 C 
BRANCH  24  25
HETATM   25  O   UNL     1     -44.174 -44.510   9.258  1.00  0.00    -0.401 OA
HETATM   26  H   UNL     1     -44.405 -44.355  10.191  1.00  0.00     0.209 HD
ENDBRANCH  24  25
ENDBRANCH  23  24
ENDBRANCH  22  23
ENDBRANCH   1  22
TORSDOF 8
ENDMDL
MODEL 2
REMARK VINA RESULT:      -6.1      3.857      5.431
REMARK  8 active torsions:
REMARK  status: ('A' for Active; 'I' for Inactive)
REMARK    1  A    between atoms: O_1  and  C_2 
REMARK    2  A    between atoms: C_2  and  C_3 
REMARK    3  A    between atoms: C_3  and  C_4 
REMARK    4  A    between atoms: C_4  and  C_5 
REMARK    5  A    between atoms: N_14  and  C_15 
REMARK    6  A    between atoms: C_15  and  C_16 
REMARK    7  A    between atoms: C_16  and  O_17 
REMARK    8  A    between atoms: C_16  and  C_18 
ROOT
HETATM    1  C   UNL     1     -41.016 -48.383  11.672  1.00  0.00     0.084 A 
HETATM    2  N   UNL     1     -39.800 -48.357  11.161  1.00  0.00    -0.344 N 
ATOM      3  HN  UNL     1     -39.450 -47.722  10.443  1.00  0.00     0.167 HD
HETATM    4  C   UNL     1     -39.104 -49.352  11.786  1.00  0.00     0.060 A 
HETATM    5  C   UNL     1     -37.764 -49.732  11.619  1.00  0.00     0.032 A 
HETATM    6  C   UNL     1     -37.256 -50.772  12.404  1.00  0.00     0.002 A 
HETATM    7  C   UNL     1     -38.070 -51.424  13.331  1.00  0.00     0.002 A 
HETATM    8  C   UNL     1     -39.412 -51.063  13.503  1.00  0.00     0.032 A 
HETATM    9  C   UNL     1     -39.903 -50.015  12.711  1.00  0.00     0.062 A 
HETATM   10  N   UNL     1     -41.129 -49.388  12.612  1.00  0.00    -0.332 N 
ENDROOT
BRANCH  10  11
HETATM   11  C   UNL     1     -42.278 -49.648  13.465  1.00  0.00     0.167 C 
BRANCH  11  12
HETATM   12  C   UNL     1     -43.385 -50.493  12.803  1.00  0.00     0.169 C 
BRANCH  12  13
HETATM   13  O   UNL     1     -42.867 -51.730  12.313  1.00  0.00    -0.389 OA
HETATM   14  H   UNL     1     -42.347 -52.144  13.019  1.00  0.00     0.210 HD
ENDBRANCH  12  13
BRANCH  12  15
HETATM   15  C   UNL     1     -44.547 -50.835  13.727  1.00  0.00    -0.028 A 
HETATM   16  C   UNL     1     -44.414 -50.603  15.111  1.00  0.00     0.013 A 
HETATM   17  C   UNL     1     -45.466 -50.874  15.991  1.00  0.00     0.043 A 
HETATM   18  C   UNL     1     -46.663 -51.370  15.496  1.00  0.00     0.116 A 
HETATM   19  F   UNL     1     -47.673 -51.632  16.337  1.00  0.00    -0.206 F 
HETATM   20  C   UNL     1     -46.832 -51.592  14.136  1.00  0.00     0.043 A 
HETATM   21  C   UNL     1     -45.779 -51.320  13.252  1.00  0.00     0.013 A 
ENDBRANCH  12  15
ENDBRANCH  11  12
ENDBRANCH  10  11
BRANCH   1  22
HETATM   22  C   UNL     1     -42.113 -47.437  11.298  1.00  0.00     0.079 C 
BRANCH  22  23
HETATM   23  C   UNL     1     -42.553 -47.612   9.842  1.00  0.00     0.033 C 
BRANCH  23  24
HETATM   24  C   UNL     1     -43.221 -46.367   9.272  1.00  0.00     0.164 C 
BRANCH  24  25
HETATM   25  O   UNL     1     -42.696 -46.097   7.976  1.00  0.00    -0.401 OA
HETATM   26  H   UNL     1     -41.844 -45.647   8.116  1.00  0.00     0.209 HD
ENDBRANCH  24  25
ENDBRANCH  23  24
ENDBRANCH  22  23
ENDBRANCH   1  22
TORSDOF 8
ENDMDL
MODEL 3
REMARK VINA RESULT:      -6.1      5.409      7.980
REMARK  8 active torsions:
REMARK  status: ('A' for Active; 'I' for Inactive)
REMARK    1  A    between atoms: O_1  and  C_2 
REMARK    2  A    between atoms: C_2  and  C_3 
REMARK    3  A    between atoms: C_3  and  C_4 
REMARK    4  A    between atoms: C_4  and  C_5 
REMARK    5  A    between atoms: N_14  and  C_15 
REMARK    6  A    between atoms: C_15  and  C_16 
REMARK    7  A    between atoms: C_16  and  O_17 
REMARK    8  A    between atoms: C_16  and  C_18 
ROOT
HETATM    1  C   UNL     1     -39.056 -52.469  15.905  1.00  0.00     0.084 A 
HETATM    2  N   UNL     1     -38.475 -51.378  16.367  1.00  0.00    -0.344 N 
ATOM      3  HN  UNL     1     -38.252 -51.167  17.340  1.00  0.00     0.167 HD
HETATM    4  C   UNL     1     -38.232 -50.587  15.280  1.00  0.00     0.060 A 
HETATM    5  C   UNL     1     -37.615 -49.330  15.222  1.00  0.00     0.032 A 
HETATM    6  C   UNL     1     -37.444 -48.719  13.975  1.00  0.00     0.002 A 
HETATM    7  C   UNL     1     -37.886 -49.348  12.811  1.00  0.00     0.002 A 
HETATM    8  C   UNL     1     -38.512 -50.600  12.852  1.00  0.00     0.032 A 
HETATM    9  C   UNL     1     -38.671 -51.199  14.110  1.00  0.00     0.062 A 
HETATM   10  N   UNL     1     -39.209 -52.397  14.535  1.00  0.00    -0.332 N 
ENDROOT
BRANCH  10  11
HETATM   11  C   UNL     1     -39.702 -53.454  13.665  1.00  0.00     0.167 C 
BRANCH  11  12
HETATM   12  C   UNL     1     -40.896 -53.045  12.779  1.00  0.00     0.169 C 
BRANCH  12  13
HETATM   13  O   UNL     1     -40.693 -53.443  11.422  1.00  0.00    -0.389 OA
HETATM   14  H   UNL     1     -40.666 -54.413  11.390  1.00  0.00     0.210 HD
ENDBRANCH  12  13
BRANCH  12  15
HETATM   15  C   UNL     1     -42.230 -53.635  13.218  1.00  0.00    -0.028 A 
HETATM   16  C   UNL     1     -43.384 -53.363  12.456  1.00  0.00     0.013 A 
HETATM   17  C   UNL     1     -44.623 -53.908  12.805  1.00  0.00     0.043 A 
HETATM   18  C   UNL     1     -44.720 -54.737  13.913  1.00  0.00     0.116 A 
HETATM   19  F   UNL     1     -45.906 -55.261  14.251  1.00  0.00    -0.206 F 
HETATM   20  C   UNL     1     -43.598 -55.039  14.674  1.00  0.00     0.043 A 
HETATM   21  C   UNL     1     -42.355 -54.495  14.325  1.00  0.00     0.013 A 
ENDBRANCH  12  15
ENDBRANCH  11  12
ENDBRANCH  10  11
BRANCH   1  22
HETATM   22  C   UNL     1     -39.472 -53.631  16.751  1.00  0.00     0.079 C 
BRANCH  22  23
HETATM   23  C   UNL     1     -38.276 -54.479  17.192  1.00  0.00     0.033 C 
BRANCH  23  24
HETATM   24  C   UNL     1     -38.343 -55.911  16.675  1.00  0.00     0.164 C 
BRANCH  24  25
HETATM   25  O   UNL     1     -37.919 -55.946  15.316  1.00  0.00    -0.401 OA
HETATM   26  H   UNL     1     -38.555 -55.403  14.819  1.00  0.00     0.209 HD
ENDBRANCH  24  25
ENDBRANCH  23  24
ENDBRANCH  22  23
ENDBRANCH   1  22
TORSDOF 8
ENDMDL
MODEL 4
REMARK VINA RESULT:      -6.0      5.033      7.969
REMARK  8 active torsions:
REMARK  status: ('A' for Active; 'I' for Inactive)
REMARK    1  A    between atoms: O_1  and  C_2 
REMARK    2  A    between atoms: C_2  and  C_3 
REMARK    3  A    between atoms: C_3  and  C_4 
REMARK    4  A    between atoms: C_4  and  C_5 
REMARK    5  A    between atoms: N_14  and  C_15 
REMARK    6  A    between atoms: C_15  and  C_16 
REMARK    7  A    between atoms: C_16  and  O_17 
REMARK    8  A    between atoms: C_16  and  C_18 
ROOT
HETATM    1  C   UNL     1     -40.253 -52.276  13.252  1.00  0.00     0.084 A 
HETATM    2  N   UNL     1     -39.587 -53.017  14.117  1.00  0.00    -0.344 N 
ATOM      3  HN  UNL     1     -38.589 -52.973  14.322  1.00  0.00     0.167 HD
HETATM    4  C   UNL     1     -40.505 -53.856  14.684  1.00  0.00     0.060 A 
HETATM    5  C   UNL     1     -40.318 -54.828  15.677  1.00  0.00     0.032 A 
HETATM    6  C   UNL     1     -41.427 -55.551  16.130  1.00  0.00     0.002 A 
HETATM    7  C   UNL     1     -42.695 -55.313  15.598  1.00  0.00     0.002 A 
HETATM    8  C   UNL     1     -42.897 -54.351  14.600  1.00  0.00     0.032 A 
HETATM    9  C   UNL     1     -41.775 -53.633  14.161  1.00  0.00     0.062 A 
HETATM   10  N   UNL     1     -41.588 -52.627  13.235  1.00  0.00    -0.332 N 
ENDROOT
BRANCH  10  11
HETATM   11  C   UNL     1     -42.647 -51.958  12.494  1.00  0.00     0.167 C 
BRANCH  11  12
HETATM   12  C   UNL     1     -43.182 -50.677  13.163  1.00  0.00     0.169 C 
BRANCH  12  13
HETATM   13  O   UNL     1     -43.483 -49.673  12.193  1.00  0.00    -0.389 OA
HETATM   14  H   UNL     1     -42.721 -49.587  11.597  1.00  0.00     0.210 HD
ENDBRANCH  12  13
BRANCH  12  15
HETATM   15  C   UNL     1     -44.444 -50.884  13.991  1.00  0.00    -0.028 A 
HETATM   16  C   UNL     1     -45.613 -51.347  13.355  1.00  0.00     0.013 A 
HETATM   17  C   UNL     1     -46.785 -51.581  14.081  1.00  0.00     0.043 A 
HETATM   18  C   UNL     1     -46.797 -51.361  15.452  1.00  0.00     0.116 A 
HETATM   19  F   UNL     1     -47.918 -51.582  16.151  1.00  0.00    -0.206 F 
HETATM   20  C   UNL     1     -45.656 -50.922  16.110  1.00  0.00     0.043 A 
HETATM   21  C   UNL     1     -44.481 -50.690  15.384  1.00  0.00     0.013 A 
ENDBRANCH  12  15
ENDBRANCH  11  12
ENDBRANCH  10  11
BRANCH   1  22
HETATM   22  C   UNL     1     -39.645 -51.192  12.421  1.00  0.00     0.079 C 
BRANCH  22  23
HETATM   23  C   UNL     1     -38.194 -50.903  12.821  1.00  0.00     0.033 C 
BRANCH  23  24
HETATM   24  C   UNL     1     -37.448 -50.076  11.782  1.00  0.00     0.164 C 
BRANCH  24  25
HETATM   25  O   UNL     1     -38.206 -50.029  10.578  1.00  0.00    -0.401 OA
HETATM   26  H   UNL     1     -37.587 -49.758   9.877  1.00  0.00     0.209 HD
ENDBRANCH  24  25
ENDBRANCH  23  24
ENDBRANCH  22  23
ENDBRANCH   1  22
TORSDOF 8
ENDMDL
MODEL 5
REMARK VINA RESULT:      -6.0      5.747      8.365
REMARK  8 active torsions:
REMARK  status: ('A' for Active; 'I' for Inactive)
REMARK    1  A    between atoms: O_1  and  C_2 
REMARK    2  A    between atoms: C_2  and  C_3 
REMARK    3  A    between atoms: C_3  and  C_4 
REMARK    4  A    between atoms: C_4  and  C_5 
REMARK    5  A    between atoms: N_14  and  C_15 
REMARK    6  A    between atoms: C_15  and  C_16 
REMARK    7  A    between atoms: C_16  and  O_17 
REMARK    8  A    between atoms: C_16  and  C_18 
ROOT
HETATM    1  C   UNL     1     -43.134 -54.125  13.768  1.00  0.00     0.084 A 
HETATM    2  N   UNL     1     -42.586 -54.958  14.632  1.00  0.00    -0.344 N 
ATOM      3  HN  UNL     1     -42.974 -55.841  14.963  1.00  0.00     0.167 HD
HETATM    4  C   UNL     1     -41.392 -54.399  14.993  1.00  0.00     0.060 A 
HETATM    5  C   UNL     1     -40.416 -54.892  15.871  1.00  0.00     0.032 A 
HETATM    6  C   UNL     1     -39.245 -54.151  16.061  1.00  0.00     0.002 A 
HETATM    7  C   UNL     1     -39.055 -52.940  15.394  1.00  0.00     0.002 A 
HETATM    8  C   UNL     1     -40.024 -52.430  14.521  1.00  0.00     0.032 A 
HETATM    9  C   UNL     1     -41.190 -53.189  14.338  1.00  0.00     0.062 A 
HETATM   10  N   UNL     1     -42.325 -53.024  13.570  1.00  0.00    -0.332 N 
ENDROOT
BRANCH  10  11
HETATM   11  C   UNL     1     -42.542 -51.954  12.608  1.00  0.00     0.167 C 
BRANCH  11  12
HETATM   12  C   UNL     1     -43.145 -50.670  13.209  1.00  0.00     0.169 C 
BRANCH  12  13
HETATM   13  O   UNL     1     -43.433 -49.709  12.193  1.00  0.00    -0.389 OA
HETATM   14  H   UNL     1     -44.041 -50.114  11.553  1.00  0.00     0.210 HD
ENDBRANCH  12  13
BRANCH  12  15
HETATM   15  C   UNL     1     -44.437 -50.891  13.987  1.00  0.00    -0.028 A 
HETATM   16  C   UNL     1     -44.434 -50.719  15.385  1.00  0.00     0.013 A 
HETATM   17  C   UNL     1     -45.603 -50.881  16.135  1.00  0.00     0.043 A 
HETATM   18  C   UNL     1     -46.789 -51.208  15.492  1.00  0.00     0.116 A 
HETATM   19  F   UNL     1     -47.911 -51.365  16.207  1.00  0.00    -0.206 F 
HETATM   20  C   UNL     1     -46.829 -51.366  14.113  1.00  0.00     0.043 A 
HETATM   21  C   UNL     1     -45.658 -51.201  13.361  1.00  0.00     0.013 A 
ENDBRANCH  12  15
ENDBRANCH  11  12
ENDBRANCH  10  11
BRANCH   1  22
HETATM   22  C   UNL     1     -44.445 -54.354  13.084  1.00  0.00     0.079 C 
BRANCH  22  23
HETATM   23  C   UNL     1     -45.332 -55.338  13.854  1.00  0.00     0.033 C 
BRANCH  23  24
HETATM   24  C   UNL     1     -46.337 -54.640  14.763  1.00  0.00     0.164 C 
BRANCH  24  25
HETATM   25  O   UNL     1     -45.818 -54.583  16.088  1.00  0.00    -0.401 OA
HETATM   26  H   UNL     1     -44.849 -54.631  16.003  1.00  0.00     0.209 HD
ENDBRANCH  24  25
ENDBRANCH  23  24
ENDBRANCH  22  23
ENDBRANCH   1  22
TORSDOF 8
ENDMDL
MODEL 6
REMARK VINA RESULT:      -6.0      4.346      6.981
REMARK  8 active torsions:
REMARK  status: ('A' for Active; 'I' for Inactive)
REMARK    1  A    between atoms: O_1  and  C_2 
REMARK    2  A    between atoms: C_2  and  C_3 
REMARK    3  A    between atoms: C_3  and  C_4 
REMARK    4  A    between atoms: C_4  and  C_5 
REMARK    5  A    between atoms: N_14  and  C_15 
REMARK    6  A    between atoms: C_15  and  C_16 
REMARK    7  A    between atoms: C_16  and  O_17 
REMARK    8  A    between atoms: C_16  and  C_18 
ROOT
HETATM    1  C   UNL     1     -42.326 -52.702  12.811  1.00  0.00     0.084 A 
HETATM    2  N   UNL     1     -43.408 -53.001  12.118  1.00  0.00    -0.344 N 
ATOM      3  HN  UNL     1     -43.452 -53.531  11.248  1.00  0.00     0.167 HD
HETATM    4  C   UNL     1     -44.459 -52.456  12.801  1.00  0.00     0.060 A 
HETATM    5  C   UNL     1     -45.827 -52.502  12.499  1.00  0.00     0.032 A 
HETATM    6  C   UNL     1     -46.732 -51.893  13.376  1.00  0.00     0.002 A 
HETATM    7  C   UNL     1     -46.278 -51.245  14.526  1.00  0.00     0.002 A 
HETATM    8  C   UNL     1     -44.914 -51.183  14.836  1.00  0.00     0.032 A 
HETATM    9  C   UNL     1     -44.023 -51.803  13.949  1.00  0.00     0.062 A 
HETATM   10  N   UNL     1     -42.652 -51.960  13.928  1.00  0.00    -0.332 N 
ENDROOT
BRANCH  10  11
HETATM   11  C   UNL     1     -41.742 -51.547  14.986  1.00  0.00     0.167 C 
BRANCH  11  12
HETATM   12  C   UNL     1     -41.204 -50.110  14.839  1.00  0.00     0.169 C 
BRANCH  12  13
HETATM   13  O   UNL     1     -40.712 -49.612  16.084  1.00  0.00    -0.389 OA
HETATM   14  H   UNL     1     -40.067 -50.248  16.433  1.00  0.00     0.210 HD
ENDBRANCH  12  13
BRANCH  12  15
HETATM   15  C   UNL     1     -40.074 -49.966  13.828  1.00  0.00    -0.028 A 
HETATM   16  C   UNL     1     -38.805 -50.494  14.137  1.00  0.00     0.013 A 
HETATM   17  C   UNL     1     -37.748 -50.411  13.226  1.00  0.00     0.043 A 
HETATM   18  C   UNL     1     -37.951 -49.807  11.994  1.00  0.00     0.116 A 
HETATM   19  F   UNL     1     -36.940 -49.724  11.118  1.00  0.00    -0.206 F 
HETATM   20  C   UNL     1     -39.195 -49.293  11.651  1.00  0.00     0.043 A 
HETATM   21  C   UNL     1     -40.256 -49.377  12.563  1.00  0.00     0.013 A 
ENDBRANCH  12  15
ENDBRANCH  11  12
ENDBRANCH  10  11
BRANCH   1  22
HETATM   22  C   UNL     1     -40.940 -53.130  12.444  1.00  0.00     0.079 C 
BRANCH  22  23
HETATM   23  C   UNL     1     -40.500 -54.380  13.212  1.00  0.00     0.033 C 
BRANCH  23  24
HETATM   24  C   UNL     1     -39.216 -54.166  14.004  1.00  0.00     0.164 C 
BRANCH  24  25
HETATM   25  O   UNL     1     -38.594 -55.423  14.250  1.00  0.00    -0.401 OA
HETATM   26  H   UNL     1     -39.279 -55.993  14.644  1.00  0.00     0.209 HD
ENDBRANCH  24  25
ENDBRANCH  23  24
ENDBRANCH  22  23
ENDBRANCH   1  22
TORSDOF 8
ENDMDL
MODEL 7
REMARK VINA RESULT:      -5.9      3.854      5.998
REMARK  8 active torsions:
REMARK  status: ('A' for Active; 'I' for Inactive)
REMARK    1  A    between atoms: O_1  and  C_2 
REMARK    2  A    between atoms: C_2  and  C_3 
REMARK    3  A    between atoms: C_3  and  C_4 
REMARK    4  A    between atoms: C_4  and  C_5 
REMARK    5  A    between atoms: N_14  and  C_15 
REMARK    6  A    between atoms: C_15  and  C_16 
REMARK    7  A    between atoms: C_16  and  O_17 
REMARK    8  A    between atoms: C_16  and  C_18 
ROOT
HETATM    1  C   UNL     1     -39.153 -49.754  11.964  1.00  0.00     0.084 A 
HETATM    2  N   UNL     1     -39.222 -48.596  11.336  1.00  0.00    -0.344 N 
ATOM      3  HN  UNL     1     -38.448 -48.077  10.921  1.00  0.00     0.167 HD
HETATM    4  C   UNL     1     -40.538 -48.231  11.353  1.00  0.00     0.060 A 
HETATM    5  C   UNL     1     -41.147 -47.093  10.805  1.00  0.00     0.032 A 
HETATM    6  C   UNL     1     -42.534 -46.949  10.920  1.00  0.00     0.002 A 
HETATM    7  C   UNL     1     -43.296 -47.917  11.575  1.00  0.00     0.002 A 
HETATM    8  C   UNL     1     -42.702 -49.054  12.137  1.00  0.00     0.032 A 
HETATM    9  C   UNL     1     -41.311 -49.185  12.007  1.00  0.00     0.062 A 
HETATM   10  N   UNL     1     -40.402 -50.145  12.403  1.00  0.00    -0.332 N 
ENDROOT
BRANCH  10  11
HETATM   11  C   UNL     1     -40.738 -51.413  13.033  1.00  0.00     0.167 C 
BRANCH  11  12
HETATM   12  C   UNL     1     -41.444 -52.419  12.103  1.00  0.00     0.169 C 
BRANCH  12  13
HETATM   13  O   UNL     1     -40.527 -53.391  11.600  1.00  0.00    -0.389 OA
HETATM   14  H   UNL     1     -40.768 -53.592  10.682  1.00  0.00     0.210 HD
ENDBRANCH  12  13
BRANCH  12  15
HETATM   15  C   UNL     1     -42.584 -53.185  12.762  1.00  0.00    -0.028 A 
HETATM   16  C   UNL     1     -43.898 -53.003  12.287  1.00  0.00     0.013 A 
HETATM   17  C   UNL     1     -44.970 -53.709  12.842  1.00  0.00     0.043 A 
HETATM   18  C   UNL     1     -44.737 -54.611  13.870  1.00  0.00     0.116 A 
HETATM   19  F   UNL     1     -45.762 -55.289  14.405  1.00  0.00    -0.206 F 
HETATM   20  C   UNL     1     -43.451 -54.827  14.348  1.00  0.00     0.043 A 
HETATM   21  C   UNL     1     -42.376 -54.122  13.791  1.00  0.00     0.013 A 
ENDBRANCH  12  15
ENDBRANCH  11  12
ENDBRANCH  10  11
BRANCH   1  22
HETATM   22  C   UNL     1     -37.896 -50.542  12.153  1.00  0.00     0.079 C 
BRANCH  22  23
HETATM   23  C   UNL     1     -37.492 -50.637  13.628  1.00  0.00     0.033 C 
BRANCH  23  24
HETATM   24  C   UNL     1     -37.542 -49.292  14.342  1.00  0.00     0.164 C 
BRANCH  24  25
HETATM   25  O   UNL     1     -38.527 -49.335  15.370  1.00  0.00    -0.401 OA
HETATM   26  H   UNL     1     -38.881 -50.243  15.369  1.00  0.00     0.209 HD
ENDBRANCH  24  25
ENDBRANCH  23  24
ENDBRANCH  22  23
ENDBRANCH   1  22
TORSDOF 8
ENDMDL
MODEL 8
REMARK VINA RESULT:      -5.9      3.195      5.375
REMARK  8 active torsions:
REMARK  status: ('A' for Active; 'I' for Inactive)
REMARK    1  A    between atoms: O_1  and  C_2 
REMARK    2  A    between atoms: C_2  and  C_3 
REMARK    3  A    between atoms: C_3  and  C_4 
REMARK    4  A    between atoms: C_4  and  C_5 
REMARK    5  A    between atoms: N_14  and  C_15 
REMARK    6  A    between atoms: C_15  and  C_16 
REMARK    7  A    between atoms: C_16  and  O_17 
REMARK    8  A    between atoms: C_16  and  C_18 
ROOT
HETATM    1  C   UNL     1     -39.729 -48.330  12.040  1.00  0.00     0.084 A 
HETATM    2  N   UNL     1     -39.795 -47.276  11.249  1.00  0.00    -0.344 N 
ATOM      3  HN  UNL     1     -39.017 -46.694  10.937  1.00  0.00     0.167 HD
HETATM    4  C   UNL     1     -41.115 -47.120  10.933  1.00  0.00     0.060 A 
HETATM    5  C   UNL     1     -41.718 -46.161  10.107  1.00  0.00     0.032 A 
HETATM    6  C   UNL     1     -43.100 -46.222   9.902  1.00  0.00     0.002 A 
HETATM    7  C   UNL     1     -43.866 -47.215  10.515  1.00  0.00     0.002 A 
HETATM    8  C   UNL     1     -43.280 -48.174  11.349  1.00  0.00     0.032 A 
HETATM    9  C   UNL     1     -41.892 -48.102  11.539  1.00  0.00     0.062 A 
HETATM   10  N   UNL     1     -40.986 -48.857  12.256  1.00  0.00    -0.332 N 
ENDROOT
BRANCH  10  11
HETATM   11  C   UNL     1     -41.297 -50.082  12.978  1.00  0.00     0.167 C 
BRANCH  11  12
HETATM   12  C   UNL     1     -41.685 -51.271  12.078  1.00  0.00     0.169 C 
BRANCH  12  13
HETATM   13  O   UNL     1     -40.573 -51.717  11.301  1.00  0.00    -0.389 OA
HETATM   14  H   UNL     1     -40.561 -52.687  11.314  1.00  0.00     0.210 HD
ENDBRANCH  12  13
BRANCH  12  15
HETATM   15  C   UNL     1     -42.208 -52.485  12.836  1.00  0.00    -0.028 A 
HETATM   16  C   UNL     1     -41.347 -53.166  13.719  1.00  0.00     0.013 A 
HETATM   17  C   UNL     1     -41.793 -54.265  14.458  1.00  0.00     0.043 A 
HETATM   18  C   UNL     1     -43.109 -54.689  14.329  1.00  0.00     0.116 A 
HETATM   19  F   UNL     1     -43.540 -55.742  15.035  1.00  0.00    -0.206 F 
HETATM   20  C   UNL     1     -43.988 -54.027  13.482  1.00  0.00     0.043 A 
HETATM   21  C   UNL     1     -43.542 -52.924  12.742  1.00  0.00     0.013 A 
ENDBRANCH  12  15
ENDBRANCH  11  12
ENDBRANCH  10  11
BRANCH   1  22
HETATM   22  C   UNL     1     -38.461 -48.887  12.606  1.00  0.00     0.079 C 
BRANCH  22  23
HETATM   23  C   UNL     1     -37.724 -49.778  11.601  1.00  0.00     0.033 C 
BRANCH  23  24
HETATM   24  C   UNL     1     -37.161 -51.044  12.235  1.00  0.00     0.164 C 
BRANCH  24  25
HETATM   25  O   UNL     1     -38.170 -51.673  13.018  1.00  0.00    -0.401 OA
HETATM   26  H   UNL     1     -37.832 -51.695  13.931  1.00  0.00     0.209 HD
ENDBRANCH  24  25
ENDBRANCH  23  24
ENDBRANCH  22  23
ENDBRANCH   1  22
TORSDOF 8
ENDMDL
MODEL 9
REMARK VINA RESULT:      -5.9      4.770      8.367
REMARK  8 active torsions:
REMARK  status: ('A' for Active; 'I' for Inactive)
REMARK    1  A    between atoms: O_1  and  C_2 
REMARK    2  A    between atoms: C_2  and  C_3 
REMARK    3  A    between atoms: C_3  and  C_4 
REMARK    4  A    between atoms: C_4  and  C_5 
REMARK    5  A    between atoms: N_14  and  C_15 
REMARK    6  A    between atoms: C_15  and  C_16 
REMARK    7  A    between atoms: C_16  and  O_17 
REMARK    8  A    between atoms: C_16  and  C_18 
ROOT
HETATM    1  C   UNL     1     -40.939 -54.212  13.929  1.00  0.00     0.084 A 
HETATM    2  N   UNL     1     -41.809 -54.764  14.754  1.00  0.00    -0.344 N 
ATOM      3  HN  UNL     1     -41.601 -55.311  15.589  1.00  0.00     0.167 HD
HETATM    4  C   UNL     1     -43.046 -54.454  14.263  1.00  0.00     0.060 A 
HETATM    5  C   UNL     1     -44.308 -54.784  14.777  1.00  0.00     0.032 A 
HETATM    6  C   UNL     1     -45.449 -54.322  14.112  1.00  0.00     0.002 A 
HETATM    7  C   UNL     1     -45.332 -53.553  12.954  1.00  0.00     0.002 A 
HETATM    8  C   UNL     1     -44.079 -53.223  12.422  1.00  0.00     0.032 A 
HETATM    9  C   UNL     1     -42.947 -53.690  13.105  1.00  0.00     0.062 A 
HETATM   10  N   UNL     1     -41.588 -53.559  12.901  1.00  0.00    -0.332 N 
ENDROOT
BRANCH  10  11
HETATM   11  C   UNL     1     -40.967 -52.742  11.869  1.00  0.00     0.167 C 
BRANCH  11  12
HETATM   12  C   UNL     1     -40.390 -51.406  12.375  1.00  0.00     0.169 C 
BRANCH  12  13
HETATM   13  O   UNL     1     -39.089 -51.167  11.835  1.00  0.00    -0.389 OA
HETATM   14  H   UNL     1     -39.116 -51.352  10.883  1.00  0.00     0.210 HD
ENDBRANCH  12  13
BRANCH  12  15
HETATM   15  C   UNL     1     -41.241 -50.189  12.034  1.00  0.00    -0.028 A 
HETATM   16  C   UNL     1     -40.837 -49.343  10.981  1.00  0.00     0.013 A 
HETATM   17  C   UNL     1     -41.603 -48.233  10.615  1.00  0.00     0.043 A 
HETATM   18  C   UNL     1     -42.785 -47.962  11.291  1.00  0.00     0.116 A 
HETATM   19  F   UNL     1     -43.521 -46.898  10.943  1.00  0.00    -0.206 F 
HETATM   20  C   UNL     1     -43.219 -48.786  12.320  1.00  0.00     0.043 A 
HETATM   21  C   UNL     1     -42.453 -49.900  12.687  1.00  0.00     0.013 A 
ENDBRANCH  12  15
ENDBRANCH  11  12
ENDBRANCH  10  11
BRANCH   1  22
HETATM   22  C   UNL     1     -39.454 -54.271  14.101  1.00  0.00     0.079 C 
BRANCH  22  23
HETATM   23  C   UNL     1     -39.029 -53.976  15.543  1.00  0.00     0.033 C 
BRANCH  23  24
HETATM   24  C   UNL     1     -38.618 -55.230  16.306  1.00  0.00     0.164 C 
BRANCH  24  25
HETATM   25  O   UNL     1     -37.757 -56.021  15.492  1.00  0.00    -0.401 OA
HETATM   26  H   UNL     1     -37.831 -55.662  14.590  1.00  0.00     0.209 HD
ENDBRANCH  24  25
ENDBRANCH  23  24
ENDBRANCH  22  23
ENDBRANCH   1  22
TORSDOF 8
ENDMDL
