MODEL 1
REMARK VINA RESULT:      -6.1      0.000      0.000
REMARK  5 active torsions:
REMARK  status: ('A' for Active; 'I' for Inactive)
REMARK       I    between atoms: C_2  and  N_3 
REMARK       I    between atoms: C_2  and  N_17 
REMARK    1  A    between atoms: N_3  and  C_4 
REMARK    2  A    between atoms: C_4  and  C_5 
REMARK    3  A    between atoms: C_5  and  C_6 
REMARK    4  A    between atoms: C_5  and  N_11 
REMARK    5  A    between atoms: N_17  and  C_18 
ROOT
HETATM    1  O   UNL     1     -40.246 -52.642  12.195  1.00  0.00    -0.247 OA
HETATM    2  C   UNL     1     -41.384 -52.178  12.215  1.00  0.00     0.321 C 
HETATM    3  N   UNL     1     -41.718 -51.001  11.624  1.00  0.00    -0.341 N 
HETATM    4  N   UNL     1     -42.373 -52.820  12.894  1.00  0.00    -0.295 N 
HETATM    5  H   UNL     1     -42.685 -50.702  11.745  1.00  0.00     0.164 HD
HETATM    6  H   UNL     1     -42.045 -53.640  13.380  1.00  0.00     0.172 HD
ENDROOT
BRANCH   3   7
HETATM    7  C   UNL     1     -40.735 -50.069  11.140  1.00  0.00     0.160 C 
BRANCH   7   8
HETATM    8  C   UNL     1     -40.325 -48.964  12.165  1.00  0.00     0.247 C 
BRANCH   8   9
HETATM    9  C   UNL     1     -38.919 -49.272  12.785  1.00  0.00     0.046 C 
HETATM   10  C   UNL     1     -37.909 -50.046  11.938  1.00  0.00     0.035 C 
HETATM   11  C   UNL     1     -37.193 -50.955  12.926  1.00  0.00     0.168 C 
HETATM   12  O   UNL     1     -37.577 -50.527  14.236  1.00  0.00    -0.391 OA
HETATM   13  C   UNL     1     -38.920 -50.043  14.103  1.00  0.00     0.174 C 
ENDBRANCH   8   9
BRANCH   8  14
HETATM   14  N   UNL     1     -40.426 -47.610  11.514  1.00  0.00     0.099 N 
HETATM   15  C   UNL     1     -40.237 -46.466  12.448  1.00  0.00     0.299 C 
HETATM   16  C   UNL     1     -41.392 -46.254  13.447  1.00  0.00     0.198 C 
HETATM   17  O   UNL     1     -42.647 -46.082  12.779  1.00  0.00    -0.388 OA
HETATM   18  C   UNL     1     -42.914 -47.196  11.912  1.00  0.00     0.198 C 
HETATM   19  C   UNL     1     -41.770 -47.368  10.895  1.00  0.00     0.299 C 
ENDBRANCH   8  14
ENDBRANCH   7   8
ENDBRANCH   3   7
BRANCH   4  20
HETATM   20  C   UNL     1     -43.690 -52.404  13.107  1.00  0.00     0.108 A 
HETATM   21  C   UNL     1     -43.938 -51.589  14.205  1.00  0.00     0.049 A 
HETATM   22  C   UNL     1     -45.231 -51.112  14.411  1.00  0.00     0.005 A 
HETATM   23  C   UNL     1     -46.245 -51.492  13.542  1.00  0.00     0.017 A 
HETATM   24  C   UNL     1     -45.920 -52.324  12.488  1.00  0.00     0.089 A 
HETATM   25  N   UNL     1     -44.666 -52.768  12.242  1.00  0.00    -0.352 N 
ATOM     26  HN  UNL     1     -44.463 -53.356  11.434  1.00  0.00     0.166 HD
ENDBRANCH   4  20
TORSDOF 5
ENDMDL
MODEL 2
REMARK VINA RESULT:      -5.9      2.493      6.127
REMARK  5 active torsions:
REMARK  status: ('A' for Active; 'I' for Inactive)
REMARK       I    between atoms: C_2  and  N_3 
REMARK       I    between atoms: C_2  and  N_17 
REMARK    1  A    between atoms: N_3  and  C_4 
REMARK    2  A    between atoms: C_4  and  C_5 
REMARK    3  A    between atoms: C_5  and  C_6 
REMARK    4  A    between atoms: C_5  and  N_11 
REMARK    5  A    between atoms: N_17  and  C_18 
ROOT
HETATM    1  O   UNL     1     -39.633 -49.480  11.812  1.00  0.00    -0.247 OA
HETATM    2  C   UNL     1     -40.777 -49.368  11.377  1.00  0.00     0.321 C 
HETATM    3  N   UNL     1     -41.725 -50.330  11.522  1.00  0.00    -0.341 N 
HETATM    4  N   UNL     1     -41.135 -48.263  10.669  1.00  0.00    -0.295 N 
HETATM    5  H   UNL     1     -42.625 -50.137  11.083  1.00  0.00     0.164 HD
HETATM    6  H   UNL     1     -40.367 -47.626  10.524  1.00  0.00     0.172 HD
ENDROOT
BRANCH   3   7
HETATM    7  C   UNL     1     -41.418 -51.663  11.970  1.00  0.00     0.160 C 
BRANCH   7   8
HETATM    8  C   UNL     1     -42.150 -52.093  13.281  1.00  0.00     0.247 C 
BRANCH   8   9
HETATM    9  C   UNL     1     -43.688 -52.264  13.031  1.00  0.00     0.046 C 
HETATM   10  C   UNL     1     -44.638 -52.069  14.213  1.00  0.00     0.035 C 
HETATM   11  C   UNL     1     -45.725 -53.115  14.011  1.00  0.00     0.168 C 
HETATM   12  O   UNL     1     -45.544 -53.651  12.697  1.00  0.00    -0.391 OA
HETATM   13  C   UNL     1     -44.131 -53.605  12.455  1.00  0.00     0.174 C 
ENDBRANCH   8   9
BRANCH   8  14
HETATM   14  N   UNL     1     -41.482 -53.315  13.853  1.00  0.00     0.099 N 
HETATM   15  C   UNL     1     -41.721 -53.519  15.308  1.00  0.00     0.299 C 
HETATM   16  C   UNL     1     -41.013 -52.501  16.224  1.00  0.00     0.198 C 
HETATM   17  O   UNL     1     -39.599 -52.481  16.003  1.00  0.00    -0.388 OA
HETATM   18  C   UNL     1     -39.308 -52.218  14.621  1.00  0.00     0.198 C 
HETATM   19  C   UNL     1     -39.989 -53.268  13.723  1.00  0.00     0.299 C 
ENDBRANCH   8  14
ENDBRANCH   7   8
ENDBRANCH   3   7
BRANCH   4  20
HETATM   20  C   UNL     1     -42.346 -48.002  10.023  1.00  0.00     0.108 A 
HETATM   21  C   UNL     1     -43.442 -47.683  10.815  1.00  0.00     0.049 A 
HETATM   22  C   UNL     1     -44.649 -47.362  10.197  1.00  0.00     0.005 A 
HETATM   23  C   UNL     1     -44.739 -47.407   8.812  1.00  0.00     0.017 A 
HETATM   24  C   UNL     1     -43.609 -47.756   8.097  1.00  0.00     0.089 A 
HETATM   25  N   UNL     1     -42.415 -48.032   8.671  1.00  0.00    -0.352 N 
ATOM     26  HN  UNL     1     -41.597 -48.255   8.105  1.00  0.00     0.166 HD
ENDBRANCH   4  20
TORSDOF 5
ENDMDL
MODEL 3
REMARK VINA RESULT:      -5.8      2.508      6.621
REMARK  5 active torsions:
REMARK  status: ('A' for Active; 'I' for Inactive)
REMARK       I    between atoms: C_2  and  N_3 
REMARK       I    between atoms: C_2  and  N_17 
REMARK    1  A    between atoms: N_3  and  C_4 
REMARK    2  A    between atoms: C_4  and  C_5 
REMARK    3  A    between atoms: C_5  and  C_6 
REMARK    4  A    between atoms: C_5  and  N_11 
REMARK    5  A    between atoms: N_17  and  C_18 
ROOT
HETATM    1  O   UNL     1     -40.001 -51.741  12.283  1.00  0.00    -0.247 OA
HETATM    2  C   UNL     1     -40.871 -50.913  12.019  1.00  0.00     0.321 C 
HETATM    3  N   UNL     1     -42.200 -51.187  12.081  1.00  0.00    -0.341 N 
HETATM    4  N   UNL     1     -40.525 -49.669  11.593  1.00  0.00    -0.295 N 
HETATM    5  H   UNL     1     -42.823 -50.430  11.800  1.00  0.00     0.164 HD
HETATM    6  H   UNL     1     -39.529 -49.555  11.488  1.00  0.00     0.172 HD
ENDROOT
BRANCH   3   7
HETATM    7  C   UNL     1     -42.713 -52.524  12.214  1.00  0.00     0.160 C 
BRANCH   7   8
HETATM    8  C   UNL     1     -43.217 -52.888  13.648  1.00  0.00     0.247 C 
BRANCH   8   9
HETATM    9  C   UNL     1     -44.767 -52.691  13.763  1.00  0.00     0.046 C 
HETATM   10  C   UNL     1     -45.607 -52.814  12.492  1.00  0.00     0.035 C 
HETATM   11  C   UNL     1     -46.686 -51.751  12.638  1.00  0.00     0.168 C 
HETATM   12  O   UNL     1     -46.616 -51.272  13.985  1.00  0.00    -0.391 OA
HETATM   13  C   UNL     1     -45.233 -51.362  14.353  1.00  0.00     0.174 C 
ENDBRANCH   8   9
BRANCH   8  14
HETATM   14  N   UNL     1     -42.745 -54.271  14.011  1.00  0.00     0.099 N 
HETATM   15  C   UNL     1     -43.390 -54.839  15.227  1.00  0.00     0.299 C 
HETATM   16  C   UNL     1     -42.968 -54.169  16.550  1.00  0.00     0.198 C 
HETATM   17  O   UNL     1     -41.550 -54.211  16.737  1.00  0.00    -0.388 OA
HETATM   18  C   UNL     1     -40.875 -53.611  15.620  1.00  0.00     0.198 C 
HETATM   19  C   UNL     1     -41.277 -54.318  14.311  1.00  0.00     0.299 C 
ENDBRANCH   8  14
ENDBRANCH   7   8
ENDBRANCH   3   7
BRANCH   4  20
HETATM   20  C   UNL     1     -41.362 -48.636  11.161  1.00  0.00     0.108 A 
HETATM   21  C   UNL     1     -41.770 -47.702  12.105  1.00  0.00     0.049 A 
HETATM   22  C   UNL     1     -42.558 -46.629  11.693  1.00  0.00     0.005 A 
HETATM   23  C   UNL     1     -42.949 -46.541  10.363  1.00  0.00     0.017 A 
HETATM   24  C   UNL     1     -42.519 -47.524   9.492  1.00  0.00     0.089 A 
HETATM   25  N   UNL     1     -41.720 -48.552   9.858  1.00  0.00    -0.352 N 
ATOM     26  HN  UNL     1     -41.400 -49.241   9.177  1.00  0.00     0.166 HD
ENDBRANCH   4  20
TORSDOF 5
ENDMDL
MODEL 4
REMARK VINA RESULT:      -5.7      2.602      5.638
REMARK  5 active torsions:
REMARK  status: ('A' for Active; 'I' for Inactive)
REMARK       I    between atoms: C_2  and  N_3 
REMARK       I    between atoms: C_2  and  N_17 
REMARK    1  A    between atoms: N_3  and  C_4 
REMARK    2  A    between atoms: C_4  and  C_5 
REMARK    3  A    between atoms: C_5  and  C_6 
REMARK    4  A    between atoms: C_5  and  N_11 
REMARK    5  A    between atoms: N_17  and  C_18 
ROOT
HETATM    1  O   UNL     1     -42.698 -46.585  13.298  1.00  0.00    -0.247 OA
HETATM    2  C   UNL     1     -43.132 -47.224  12.342  1.00  0.00     0.321 C 
HETATM    3  N   UNL     1     -43.361 -48.562  12.384  1.00  0.00    -0.341 N 
HETATM    4  N   UNL     1     -43.361 -46.605  11.153  1.00  0.00    -0.295 N 
HETATM    5  H   UNL     1     -43.683 -48.986  11.514  1.00  0.00     0.164 HD
HETATM    6  H   UNL     1     -43.094 -45.633  11.160  1.00  0.00     0.172 HD
ENDROOT
BRANCH   3   7
HETATM    7  C   UNL     1     -42.886 -49.399  13.454  1.00  0.00     0.160 C 
BRANCH   7   8
HETATM    8  C   UNL     1     -42.834 -50.923  13.115  1.00  0.00     0.247 C 
BRANCH   8   9
HETATM    9  C   UNL     1     -41.355 -51.441  13.099  1.00  0.00     0.046 C 
HETATM   10  C   UNL     1     -40.437 -51.045  14.255  1.00  0.00     0.035 C 
HETATM   11  C   UNL     1     -39.079 -50.815  13.608  1.00  0.00     0.168 C 
HETATM   12  O   UNL     1     -39.171 -51.306  12.267  1.00  0.00    -0.391 OA
HETATM   13  C   UNL     1     -40.529 -51.079  11.868  1.00  0.00     0.174 C 
ENDBRANCH   8   9
BRANCH   8  14
HETATM   14  N   UNL     1     -43.739 -51.678  14.051  1.00  0.00     0.099 N 
HETATM   15  C   UNL     1     -43.716 -53.156  13.867  1.00  0.00     0.299 C 
HETATM   16  C   UNL     1     -44.375 -53.651  12.565  1.00  0.00     0.198 C 
HETATM   17  O   UNL     1     -45.733 -53.211  12.456  1.00  0.00    -0.388 OA
HETATM   18  C   UNL     1     -45.808 -51.780  12.557  1.00  0.00     0.198 C 
HETATM   19  C   UNL     1     -45.182 -51.305  13.882  1.00  0.00     0.299 C 
ENDBRANCH   8  14
ENDBRANCH   7   8
ENDBRANCH   3   7
BRANCH   4  20
HETATM   20  C   UNL     1     -43.759 -47.175   9.940  1.00  0.00     0.108 A 
HETATM   21  C   UNL     1     -45.110 -47.453   9.773  1.00  0.00     0.049 A 
HETATM   22  C   UNL     1     -45.546 -47.969   8.554  1.00  0.00     0.005 A 
HETATM   23  C   UNL     1     -44.619 -48.231   7.554  1.00  0.00     0.017 A 
HETATM   24  C   UNL     1     -43.290 -47.948   7.808  1.00  0.00     0.089 A 
HETATM   25  N   UNL     1     -42.847 -47.409   8.967  1.00  0.00    -0.352 N 
ATOM     26  HN  UNL     1     -41.861 -47.187   9.103  1.00  0.00     0.166 HD
ENDBRANCH   4  20
TORSDOF 5
ENDMDL
MODEL 5
REMARK VINA RESULT:      -5.5      1.647      3.438
REMARK  5 active torsions:
REMARK  status: ('A' for Active; 'I' for Inactive)
REMARK       I    between atoms: C_2  and  N_3 
REMARK       I    between atoms: C_2  and  N_17 
REMARK    1  A    between atoms: N_3  and  C_4 
REMARK    2  A    between atoms: C_4  and  C_5 
REMARK    3  A    between atoms: C_5  and  C_6 
REMARK    4  A    between atoms: C_5  and  N_11 
REMARK    5  A    between atoms: N_17  and  C_18 
ROOT
HETATM    1  O   UNL     1     -40.517 -52.867  12.088  1.00  0.00    -0.247 OA
HETATM    2  C   UNL     1     -41.618 -52.330  12.192  1.00  0.00     0.321 C 
HETATM    3  N   UNL     1     -41.867 -51.059  11.783  1.00  0.00    -0.341 N 
HETATM    4  N   UNL     1     -42.648 -52.992  12.784  1.00  0.00    -0.295 N 
HETATM    5  H   UNL     1     -42.809 -50.712  11.959  1.00  0.00     0.164 HD
HETATM    6  H   UNL     1     -42.379 -53.895  13.141  1.00  0.00     0.172 HD
ENDROOT
BRANCH   3   7
HETATM    7  C   UNL     1     -40.821 -50.138  11.425  1.00  0.00     0.160 C 
BRANCH   7   8
HETATM    8  C   UNL     1     -40.708 -48.887  12.354  1.00  0.00     0.247 C 
BRANCH   8   9
HETATM    9  C   UNL     1     -41.517 -47.681  11.767  1.00  0.00     0.046 C 
HETATM   10  C   UNL     1     -42.750 -47.983  10.915  1.00  0.00     0.035 C 
HETATM   11  C   UNL     1     -42.729 -46.928   9.819  1.00  0.00     0.168 C 
HETATM   12  O   UNL     1     -41.736 -45.967  10.188  1.00  0.00    -0.391 OA
HETATM   13  C   UNL     1     -40.731 -46.705  10.896  1.00  0.00     0.174 C 
ENDBRANCH   8   9
BRANCH   8  14
HETATM   14  N   UNL     1     -41.100 -49.266  13.757  1.00  0.00     0.099 N 
HETATM   15  C   UNL     1     -41.497 -48.115  14.614  1.00  0.00     0.299 C 
HETATM   16  C   UNL     1     -40.337 -47.182  15.014  1.00  0.00     0.198 C 
HETATM   17  O   UNL     1     -39.289 -47.894  15.682  1.00  0.00    -0.388 OA
HETATM   18  C   UNL     1     -38.818 -48.979  14.867  1.00  0.00     0.198 C 
HETATM   19  C   UNL     1     -39.982 -49.923  14.510  1.00  0.00     0.299 C 
ENDBRANCH   8  14
ENDBRANCH   7   8
ENDBRANCH   3   7
BRANCH   4  20
HETATM   20  C   UNL     1     -43.930 -52.518  13.074  1.00  0.00     0.108 A 
HETATM   21  C   UNL     1     -44.101 -51.806  14.255  1.00  0.00     0.049 A 
HETATM   22  C   UNL     1     -45.356 -51.272  14.544  1.00  0.00     0.005 A 
HETATM   23  C   UNL     1     -46.411 -51.497  13.669  1.00  0.00     0.017 A 
HETATM   24  C   UNL     1     -46.163 -52.235  12.528  1.00  0.00     0.089 A 
HETATM   25  N   UNL     1     -44.946 -52.729  12.204  1.00  0.00    -0.352 N 
ATOM     26  HN  UNL     1     -44.799 -53.243  11.335  1.00  0.00     0.166 HD
ENDBRANCH   4  20
TORSDOF 5
ENDMDL
MODEL 6
REMARK VINA RESULT:      -5.4      2.569      5.813
REMARK  5 active torsions:
REMARK  status: ('A' for Active; 'I' for Inactive)
REMARK       I    between atoms: C_2  and  N_3 
REMARK       I    between atoms: C_2  and  N_17 
REMARK    1  A    between atoms: N_3  and  C_4 
REMARK    2  A    between atoms: C_4  and  C_5 
REMARK    3  A    between atoms: C_5  and  C_6 
REMARK    4  A    between atoms: C_5  and  N_11 
REMARK    5  A    between atoms: N_17  and  C_18 
ROOT
HETATM    1  O   UNL     1     -40.573 -53.080  11.804  1.00  0.00    -0.247 OA
HETATM    2  C   UNL     1     -41.069 -51.957  11.868  1.00  0.00     0.321 C 
HETATM    3  N   UNL     1     -42.370 -51.737  12.192  1.00  0.00    -0.341 N 
HETATM    4  N   UNL     1     -40.325 -50.862  11.558  1.00  0.00    -0.295 N 
HETATM    5  H   UNL     1     -42.674 -50.763  12.172  1.00  0.00     0.164 HD
HETATM    6  H   UNL     1     -39.396 -51.096  11.245  1.00  0.00     0.172 HD
ENDROOT
BRANCH   3   7
HETATM    7  C   UNL     1     -43.348 -52.791  12.245  1.00  0.00     0.160 C 
BRANCH   7   8
HETATM    8  C   UNL     1     -43.762 -53.222  13.688  1.00  0.00     0.247 C 
BRANCH   8   9
HETATM    9  C   UNL     1     -42.682 -54.165  14.321  1.00  0.00     0.046 C 
HETATM   10  C   UNL     1     -43.160 -55.354  15.155  1.00  0.00     0.035 C 
HETATM   11  C   UNL     1     -42.157 -55.454  16.294  1.00  0.00     0.168 C 
HETATM   12  O   UNL     1     -41.072 -54.580  15.968  1.00  0.00    -0.391 OA
HETATM   13  C   UNL     1     -41.659 -53.497  15.234  1.00  0.00     0.174 C 
ENDBRANCH   8   9
BRANCH   8  14
HETATM   14  N   UNL     1     -44.068 -51.999  14.511  1.00  0.00     0.099 N 
HETATM   15  C   UNL     1     -44.728 -52.287  15.815  1.00  0.00     0.299 C 
HETATM   16  C   UNL     1     -46.184 -52.778  15.702  1.00  0.00     0.198 C 
HETATM   17  O   UNL     1     -47.004 -51.849  14.984  1.00  0.00    -0.388 OA
HETATM   18  C   UNL     1     -46.449 -51.587  13.685  1.00  0.00     0.198 C 
HETATM   19  C   UNL     1     -45.008 -51.059  13.817  1.00  0.00     0.299 C 
ENDBRANCH   8  14
ENDBRANCH   7   8
ENDBRANCH   3   7
BRANCH   4  20
HETATM   20  C   UNL     1     -40.735 -49.528  11.482  1.00  0.00     0.108 A 
HETATM   21  C   UNL     1     -40.479 -48.713  12.577  1.00  0.00     0.049 A 
HETATM   22  C   UNL     1     -40.825 -47.365  12.509  1.00  0.00     0.005 A 
HETATM   23  C   UNL     1     -41.451 -46.878  11.368  1.00  0.00     0.017 A 
HETATM   24  C   UNL     1     -41.691 -47.760  10.332  1.00  0.00     0.089 A 
HETATM   25  N   UNL     1     -41.329 -49.063  10.357  1.00  0.00    -0.352 N 
ATOM     26  HN  UNL     1     -41.497 -49.673   9.557  1.00  0.00     0.166 HD
ENDBRANCH   4  20
TORSDOF 5
ENDMDL
MODEL 7
REMARK VINA RESULT:      -5.2      1.795      4.142
REMARK  5 active torsions:
REMARK  status: ('A' for Active; 'I' for Inactive)
REMARK       I    between atoms: C_2  and  N_3 
REMARK       I    between atoms: C_2  and  N_17 
REMARK    1  A    between atoms: N_3  and  C_4 
REMARK    2  A    between atoms: C_4  and  C_5 
REMARK    3  A    between atoms: C_5  and  C_6 
REMARK    4  A    between atoms: C_5  and  N_11 
REMARK    5  A    between atoms: N_17  and  C_18 
ROOT
HETATM    1  O   UNL     1     -41.220 -51.628  16.019  1.00  0.00    -0.247 OA
HETATM    2  C   UNL     1     -42.131 -51.479  15.207  1.00  0.00     0.321 C 
HETATM    3  N   UNL     1     -42.148 -50.484  14.282  1.00  0.00    -0.341 N 
HETATM    4  N   UNL     1     -43.215 -52.300  15.237  1.00  0.00    -0.295 N 
HETATM    5  H   UNL     1     -42.977 -50.441  13.691  1.00  0.00     0.164 HD
HETATM    6  H   UNL     1     -43.182 -52.962  15.996  1.00  0.00     0.172 HD
ENDROOT
BRANCH   3   7
HETATM    7  C   UNL     1     -41.239 -49.369  14.323  1.00  0.00     0.160 C 
BRANCH   7   8
HETATM    8  C   UNL     1     -40.298 -49.250  13.082  1.00  0.00     0.247 C 
BRANCH   8   9
HETATM    9  C   UNL     1     -40.768 -48.096  12.133  1.00  0.00     0.046 C 
HETATM   10  C   UNL     1     -41.804 -47.103  12.660  1.00  0.00     0.035 C 
HETATM   11  C   UNL     1     -42.695 -46.804  11.464  1.00  0.00     0.168 C 
HETATM   12  O   UNL     1     -42.050 -47.363  10.316  1.00  0.00    -0.391 OA
HETATM   13  C   UNL     1     -41.358 -48.525  10.793  1.00  0.00     0.174 C 
ENDBRANCH   8   9
BRANCH   8  14
HETATM   14  N   UNL     1     -38.870 -49.124  13.543  1.00  0.00     0.099 N 
HETATM   15  C   UNL     1     -37.869 -49.107  12.441  1.00  0.00     0.299 C 
HETATM   16  C   UNL     1     -37.689 -50.456  11.716  1.00  0.00     0.198 C 
HETATM   17  O   UNL     1     -37.334 -51.504  12.625  1.00  0.00    -0.388 OA
HETATM   18  C   UNL     1     -38.307 -51.611  13.676  1.00  0.00     0.198 C 
HETATM   19  C   UNL     1     -38.445 -50.267  14.416  1.00  0.00     0.299 C 
ENDBRANCH   8  14
ENDBRANCH   7   8
ENDBRANCH   3   7
BRANCH   4  20
HETATM   20  C   UNL     1     -44.378 -52.229  14.466  1.00  0.00     0.108 A 
HETATM   21  C   UNL     1     -45.447 -51.506  14.980  1.00  0.00     0.049 A 
HETATM   22  C   UNL     1     -46.601 -51.371  14.210  1.00  0.00     0.005 A 
HETATM   23  C   UNL     1     -46.670 -51.991  12.969  1.00  0.00     0.017 A 
HETATM   24  C   UNL     1     -45.571 -52.711  12.540  1.00  0.00     0.089 A 
HETATM   25  N   UNL     1     -44.426 -52.824  13.251  1.00  0.00    -0.352 N 
ATOM     26  HN  UNL     1     -43.626 -53.340  12.883  1.00  0.00     0.166 HD
ENDBRANCH   4  20
TORSDOF 5
ENDMDL
MODEL 8
REMARK VINA RESULT:      -5.1      2.318      6.095
REMARK  5 active torsions:
REMARK  status: ('A' for Active; 'I' for Inactive)
REMARK       I    between atoms: C_2  and  N_3 
REMARK       I    between atoms: C_2  and  N_17 
REMARK    1  A    between atoms: N_3  and  C_4 
REMARK    2  A    between atoms: C_4  and  C_5 
REMARK    3  A    between atoms: C_5  and  C_6 
REMARK    4  A    between atoms: C_5  and  N_11 
REMARK    5  A    between atoms: N_17  and  C_18 
ROOT
HETATM    1  O   UNL     1     -43.423 -48.136  11.336  1.00  0.00    -0.247 OA
HETATM    2  C   UNL     1     -42.408 -48.751  11.657  1.00  0.00     0.321 C 
HETATM    3  N   UNL     1     -42.433 -49.910  12.365  1.00  0.00    -0.341 N 
HETATM    4  N   UNL     1     -41.180 -48.252  11.351  1.00  0.00    -0.295 N 
HETATM    5  H   UNL     1     -41.524 -50.304  12.605  1.00  0.00     0.164 HD
HETATM    6  H   UNL     1     -41.226 -47.351  10.902  1.00  0.00     0.172 HD
ENDROOT
BRANCH   3   7
HETATM    7  C   UNL     1     -43.619 -50.397  13.018  1.00  0.00     0.160 C 
BRANCH   7   8
HETATM    8  C   UNL     1     -43.515 -51.862  13.551  1.00  0.00     0.247 C 
BRANCH   8   9
HETATM    9  C   UNL     1     -42.029 -52.359  13.528  1.00  0.00     0.046 C 
HETATM   10  C   UNL     1     -41.757 -53.803  13.107  1.00  0.00     0.035 C 
HETATM   11  C   UNL     1     -40.618 -54.260  14.006  1.00  0.00     0.168 C 
HETATM   12  O   UNL     1     -40.122 -53.093  14.671  1.00  0.00    -0.391 OA
HETATM   13  C   UNL     1     -41.259 -52.236  14.840  1.00  0.00     0.174 C 
ENDBRANCH   8   9
BRANCH   8  14
HETATM   14  N   UNL     1     -44.174 -51.955  14.901  1.00  0.00     0.099 N 
HETATM   15  C   UNL     1     -44.675 -53.314  15.245  1.00  0.00     0.299 C 
HETATM   16  C   UNL     1     -45.903 -53.771  14.432  1.00  0.00     0.198 C 
HETATM   17  O   UNL     1     -46.992 -52.850  14.552  1.00  0.00    -0.388 OA
HETATM   18  C   UNL     1     -46.581 -51.529  14.165  1.00  0.00     0.198 C 
HETATM   19  C   UNL     1     -45.381 -51.072  15.014  1.00  0.00     0.299 C 
ENDBRANCH   8  14
ENDBRANCH   7   8
ENDBRANCH   3   7
BRANCH   4  20
HETATM   20  C   UNL     1     -39.926 -48.753  11.710  1.00  0.00     0.108 A 
HETATM   21  C   UNL     1     -39.349 -48.266  12.876  1.00  0.00     0.049 A 
HETATM   22  C   UNL     1     -38.125 -48.787  13.290  1.00  0.00     0.005 A 
HETATM   23  C   UNL     1     -37.494 -49.748  12.511  1.00  0.00     0.017 A 
HETATM   24  C   UNL     1     -38.124 -50.162  11.353  1.00  0.00     0.089 A 
HETATM   25  N   UNL     1     -39.330 -49.702  10.950  1.00  0.00    -0.352 N 
ATOM     26  HN  UNL     1     -39.775 -50.057  10.103  1.00  0.00     0.166 HD
ENDBRANCH   4  20
TORSDOF 5
ENDMDL
MODEL 9
REMARK VINA RESULT:      -4.8      4.025      7.478
REMARK  5 active torsions:
REMARK  status: ('A' for Active; 'I' for Inactive)
REMARK       I    between atoms: C_2  and  N_3 
REMARK       I    between atoms: C_2  and  N_17 
REMARK    1  A    between atoms: N_3  and  C_4 
REMARK    2  A    between atoms: C_4  and  C_5 
REMARK    3  A    between atoms: C_5  and  C_6 
REMARK    4  A    between atoms: C_5  and  N_11 
REMARK    5  A    between atoms: N_17  and  C_18 
ROOT
HETATM    1  O   UNL     1     -44.947 -54.598  12.655  1.00  0.00    -0.247 OA
HETATM    2  C   UNL     1     -43.908 -53.978  12.869  1.00  0.00     0.321 C 
HETATM    3  N   UNL     1     -43.083 -54.249  13.914  1.00  0.00    -0.341 N 
HETATM    4  N   UNL     1     -43.558 -52.933  12.072  1.00  0.00    -0.295 N 
HETATM    5  H   UNL     1     -42.271 -53.638  14.008  1.00  0.00     0.164 HD
HETATM    6  H   UNL     1     -44.250 -52.730  11.368  1.00  0.00     0.172 HD
ENDROOT
BRANCH   3   7
HETATM    7  C   UNL     1     -43.464 -55.106  15.004  1.00  0.00     0.160 C 
BRANCH   7   8
HETATM    8  C   UNL     1     -43.214 -54.505  16.424  1.00  0.00     0.247 C 
BRANCH   8   9
HETATM    9  C   UNL     1     -44.494 -53.772  16.954  1.00  0.00     0.046 C 
HETATM   10  C   UNL     1     -45.789 -53.910  16.155  1.00  0.00     0.035 C 
HETATM   11  C   UNL     1     -46.451 -52.544  16.252  1.00  0.00     0.168 C 
HETATM   12  O   UNL     1     -45.728 -51.804  17.241  1.00  0.00    -0.391 OA
HETATM   13  C   UNL     1     -44.373 -52.264  17.149  1.00  0.00     0.174 C 
ENDBRANCH   8   9
BRANCH   8  14
HETATM   14  N   UNL     1     -42.696 -55.579  17.342  1.00  0.00     0.099 N 
HETATM   15  C   UNL     1     -42.248 -55.085  18.674  1.00  0.00     0.299 C 
HETATM   16  C   UNL     1     -40.950 -54.253  18.646  1.00  0.00     0.198 C 
HETATM   17  O   UNL     1     -39.868 -54.978  18.053  1.00  0.00    -0.388 OA
HETATM   18  C   UNL     1     -40.221 -55.422  16.733  1.00  0.00     0.198 C 
HETATM   19  C   UNL     1     -41.496 -56.285  16.783  1.00  0.00     0.299 C 
ENDBRANCH   8  14
ENDBRANCH   7   8
ENDBRANCH   3   7
BRANCH   4  20
HETATM   20  C   UNL     1     -42.476 -52.060  12.212  1.00  0.00     0.108 A 
HETATM   21  C   UNL     1     -42.634 -50.971  13.061  1.00  0.00     0.049 A 
HETATM   22  C   UNL     1     -41.554 -50.115  13.265  1.00  0.00     0.005 A 
HETATM   23  C   UNL     1     -40.363 -50.344  12.587  1.00  0.00     0.017 A 
HETATM   24  C   UNL     1     -40.296 -51.436  11.743  1.00  0.00     0.089 A 
HETATM   25  N   UNL     1     -41.316 -52.305  11.559  1.00  0.00    -0.352 N 
ATOM     26  HN  UNL     1     -41.214 -53.117  10.949  1.00  0.00     0.166 HD
ENDBRANCH   4  20
TORSDOF 5
ENDMDL
