MODEL 1
REMARK VINA RESULT:      -6.3      0.000      0.000
REMARK  5 active torsions:
REMARK  status: ('A' for Active; 'I' for Inactive)
REMARK    1  A    between atoms: C_3  and  C_4 
REMARK    2  A    between atoms: C_5  and  C_6 
REMARK       I    between atoms: C_6  and  N_8 
REMARK    3  A    between atoms: N_8  and  C_9 
REMARK    4  A    between atoms: N_12  and  C_13 
REMARK    5  A    between atoms: C_13  and  C_14 
REMARK       I    between atoms: C_14  and  N_16 
ROOT
HETATM    1  C   UNL     1     -41.458 -51.092  12.093  1.00  0.00     0.228 C 
HETATM    2  O   UNL     1     -40.450 -50.805  11.467  1.00  0.00    -0.273 OA
HETATM    3  N   UNL     1     -42.557 -50.289  12.327  1.00  0.00    -0.312 N 
HETATM    4  H   UNL     1     -43.368 -50.685  12.775  1.00  0.00     0.170 HD
ENDROOT
BRANCH   3   5
HETATM    5  C   UNL     1     -42.664 -48.980  11.896  1.00  0.00     0.123 A 
HETATM    6  C   UNL     1     -42.763 -47.857  12.754  1.00  0.00     0.068 A 
HETATM    7  C   UNL     1     -42.937 -46.772  11.924  1.00  0.00     0.114 A 
HETATM    8  N   UNL     1     -42.875 -47.267  10.654  1.00  0.00    -0.293 N 
HETATM    9  N   UNL     1     -42.686 -48.595  10.619  1.00  0.00    -0.283 N 
ATOM     10  HN  UNL     1     -42.582 -49.184   9.792  1.00  0.00     0.189 HD
BRANCH   8  11
HETATM   11  C   UNL     1     -43.042 -46.543   9.410  1.00  0.00     0.250 C 
BRANCH  11  12
HETATM   12  C   UNL     1     -43.709 -47.381   8.349  1.00  0.00     0.235 C 
HETATM   13  O   UNL     1     -44.843 -47.837   8.473  1.00  0.00    -0.272 OA
HETATM   14  N   UNL     1     -42.970 -47.662   7.236  1.00  0.00    -0.369 N 
HETATM   15  H   UNL     1     -42.056 -47.257   7.068  1.00  0.00     0.159 HD
HETATM   16  H   UNL     1     -43.399 -48.216   6.505  1.00  0.00     0.159 HD
ENDBRANCH  11  12
ENDBRANCH   8  11
ENDBRANCH   3   5
BRANCH   1  17
HETATM   17  C   UNL     1     -41.596 -52.470  12.674  1.00  0.00     0.095 A 
HETATM   18  C   UNL     1     -42.453 -52.667  13.912  1.00  0.00     0.030 A 
HETATM   19  C   UNL     1     -40.947 -52.854  14.003  1.00  0.00    -0.027 A 
HETATM   20  C   UNL     1     -40.216 -51.844  14.856  1.00  0.00     0.016 C 
HETATM   21  C   UNL     1     -40.338 -54.236  14.082  1.00  0.00     0.016 C 
BRANCH  18  22
HETATM   22  C   UNL     1     -43.333 -53.834  14.060  1.00  0.00    -0.019 C 
HETATM   23  C   UNL     1     -44.566 -53.973  13.532  1.00  0.00    -0.091 C 
HETATM   24  C   UNL     1     -45.231 -52.920  12.687  1.00  0.00     0.042 C 
HETATM   25  C   UNL     1     -45.373 -55.219  13.763  1.00  0.00     0.042 C 
ENDBRANCH  18  22
ENDBRANCH   1  17
TORSDOF 5
ENDMDL
MODEL 2
REMARK VINA RESULT:      -6.2      2.225      3.247
REMARK  5 active torsions:
REMARK  status: ('A' for Active; 'I' for Inactive)
REMARK    1  A    between atoms: C_3  and  C_4 
REMARK    2  A    between atoms: C_5  and  C_6 
REMARK       I    between atoms: C_6  and  N_8 
REMARK    3  A    between atoms: N_8  and  C_9 
REMARK    4  A    between atoms: N_12  and  C_13 
REMARK    5  A    between atoms: C_13  and  C_14 
REMARK       I    between atoms: C_14  and  N_16 
ROOT
HETATM    1  C   UNL     1     -40.788 -49.804  11.998  1.00  0.00     0.228 C 
HETATM    2  O   UNL     1     -41.778 -49.845  12.713  1.00  0.00    -0.273 OA
HETATM    3  N   UNL     1     -40.542 -48.931  10.956  1.00  0.00    -0.312 N 
HETATM    4  H   UNL     1     -39.638 -48.940  10.511  1.00  0.00     0.170 HD
ENDROOT
BRANCH   3   5
HETATM    5  C   UNL     1     -41.430 -47.960  10.534  1.00  0.00     0.123 A 
HETATM    6  C   UNL     1     -41.244 -46.567  10.715  1.00  0.00     0.068 A 
HETATM    7  C   UNL     1     -42.390 -45.976  10.232  1.00  0.00     0.114 A 
HETATM    8  N   UNL     1     -43.154 -46.996   9.746  1.00  0.00    -0.293 N 
HETATM    9  N   UNL     1     -42.579 -48.199   9.899  1.00  0.00    -0.283 N 
ATOM     10  HN  UNL     1     -42.942 -49.102   9.595  1.00  0.00     0.189 HD
BRANCH   8  11
HETATM   11  C   UNL     1     -44.480 -46.915   9.167  1.00  0.00     0.250 C 
BRANCH  11  12
HETATM   12  C   UNL     1     -44.695 -47.949   8.091  1.00  0.00     0.235 C 
HETATM   13  O   UNL     1     -43.829 -48.254   7.275  1.00  0.00    -0.272 OA
HETATM   14  N   UNL     1     -45.936 -48.515   8.025  1.00  0.00    -0.369 N 
HETATM   15  H   UNL     1     -46.657 -48.336   8.714  1.00  0.00     0.159 HD
HETATM   16  H   UNL     1     -46.103 -49.219   7.317  1.00  0.00     0.159 HD
ENDBRANCH  11  12
ENDBRANCH   8  11
ENDBRANCH   3   5
BRANCH   1  17
HETATM   17  C   UNL     1     -39.660 -50.763  12.248  1.00  0.00     0.095 A 
HETATM   18  C   UNL     1     -39.312 -51.138  13.677  1.00  0.00     0.030 A 
HETATM   19  C   UNL     1     -38.335 -50.307  12.860  1.00  0.00    -0.027 A 
HETATM   20  C   UNL     1     -38.124 -48.892  13.341  1.00  0.00     0.016 C 
HETATM   21  C   UNL     1     -37.080 -50.925  12.286  1.00  0.00     0.016 C 
BRANCH  18  22
HETATM   22  C   UNL     1     -38.954 -52.514  14.045  1.00  0.00    -0.019 C 
HETATM   23  C   UNL     1     -39.800 -53.561  14.133  1.00  0.00    -0.091 C 
HETATM   24  C   UNL     1     -41.275 -53.461  13.854  1.00  0.00     0.042 C 
HETATM   25  C   UNL     1     -39.309 -54.924  14.528  1.00  0.00     0.042 C 
ENDBRANCH  18  22
ENDBRANCH   1  17
TORSDOF 5
ENDMDL
MODEL 3
REMARK VINA RESULT:      -6.1      1.452      3.057
REMARK  5 active torsions:
REMARK  status: ('A' for Active; 'I' for Inactive)
REMARK    1  A    between atoms: C_3  and  C_4 
REMARK    2  A    between atoms: C_5  and  C_6 
REMARK       I    between atoms: C_6  and  N_8 
REMARK    3  A    between atoms: N_8  and  C_9 
REMARK    4  A    between atoms: N_12  and  C_13 
REMARK    5  A    between atoms: C_13  and  C_14 
REMARK       I    between atoms: C_14  and  N_16 
ROOT
HETATM    1  C   UNL     1     -42.876 -50.847  13.267  1.00  0.00     0.228 C 
HETATM    2  O   UNL     1     -43.866 -50.169  13.492  1.00  0.00    -0.273 OA
HETATM    3  N   UNL     1     -41.809 -50.527  12.451  1.00  0.00    -0.312 N 
HETATM    4  H   UNL     1     -41.005 -51.134  12.432  1.00  0.00     0.170 HD
ENDROOT
BRANCH   3   5
HETATM    5  C   UNL     1     -41.721 -49.360  11.714  1.00  0.00     0.123 A 
HETATM    6  C   UNL     1     -40.560 -48.552  11.624  1.00  0.00     0.068 A 
HETATM    7  C   UNL     1     -40.928 -47.459  10.873  1.00  0.00     0.114 A 
HETATM    8  N   UNL     1     -42.224 -47.682  10.510  1.00  0.00    -0.293 N 
HETATM    9  N   UNL     1     -42.711 -48.837  10.990  1.00  0.00    -0.283 N 
ATOM     10  HN  UNL     1     -43.639 -49.230  10.834  1.00  0.00     0.189 HD
BRANCH   8  11
HETATM   11  C   UNL     1     -43.095 -46.810   9.747  1.00  0.00     0.250 C 
BRANCH  11  12
HETATM   12  C   UNL     1     -43.817 -47.548   8.647  1.00  0.00     0.235 C 
HETATM   13  O   UNL     1     -44.982 -47.924   8.748  1.00  0.00    -0.272 OA
HETATM   14  N   UNL     1     -43.095 -47.833   7.524  1.00  0.00    -0.369 N 
HETATM   15  H   UNL     1     -42.153 -47.489   7.377  1.00  0.00     0.159 HD
HETATM   16  H   UNL     1     -43.559 -48.319   6.768  1.00  0.00     0.159 HD
ENDBRANCH  11  12
ENDBRANCH   8  11
ENDBRANCH   3   5
BRANCH   1  17
HETATM   17  C   UNL     1     -42.722 -52.176  13.949  1.00  0.00     0.095 A 
HETATM   18  C   UNL     1     -42.012 -53.302  13.221  1.00  0.00     0.030 A 
HETATM   19  C   UNL     1     -43.503 -53.410  13.496  1.00  0.00    -0.027 A 
HETATM   20  C   UNL     1     -44.393 -53.388  12.277  1.00  0.00     0.016 C 
HETATM   21  C   UNL     1     -44.029 -54.313  14.588  1.00  0.00     0.016 C 
BRANCH  18  22
HETATM   22  C   UNL     1     -41.085 -54.204  13.917  1.00  0.00    -0.019 C 
HETATM   23  C   UNL     1     -39.811 -53.924  14.263  1.00  0.00    -0.091 C 
HETATM   24  C   UNL     1     -39.144 -52.607  13.977  1.00  0.00     0.042 C 
HETATM   25  C   UNL     1     -38.959 -54.939  14.970  1.00  0.00     0.042 C 
ENDBRANCH  18  22
ENDBRANCH   1  17
TORSDOF 5
ENDMDL
MODEL 4
REMARK VINA RESULT:      -6.0      3.256      5.016
REMARK  5 active torsions:
REMARK  status: ('A' for Active; 'I' for Inactive)
REMARK    1  A    between atoms: C_3  and  C_4 
REMARK    2  A    between atoms: C_5  and  C_6 
REMARK       I    between atoms: C_6  and  N_8 
REMARK    3  A    between atoms: N_8  and  C_9 
REMARK    4  A    between atoms: N_12  and  C_13 
REMARK    5  A    between atoms: C_13  and  C_14 
REMARK       I    between atoms: C_14  and  N_16 
ROOT
HETATM    1  C   UNL     1     -43.284 -50.567  13.547  1.00  0.00     0.228 C 
HETATM    2  O   UNL     1     -42.594 -51.027  14.444  1.00  0.00    -0.273 OA
HETATM    3  N   UNL     1     -42.867 -49.796  12.480  1.00  0.00    -0.312 N 
HETATM    4  H   UNL     1     -43.526 -49.566  11.753  1.00  0.00     0.170 HD
ENDROOT
BRANCH   3   5
HETATM    5  C   UNL     1     -41.561 -49.388  12.283  1.00  0.00     0.123 A 
HETATM    6  C   UNL     1     -41.161 -48.391  11.359  1.00  0.00     0.068 A 
HETATM    7  C   UNL     1     -39.785 -48.361  11.422  1.00  0.00     0.114 A 
HETATM    8  N   UNL     1     -39.441 -49.261  12.387  1.00  0.00    -0.293 N 
HETATM    9  N   UNL     1     -40.503 -49.874  12.934  1.00  0.00    -0.283 N 
ATOM     10  HN  UNL     1     -40.501 -50.563  13.686  1.00  0.00     0.189 HD
BRANCH   8  11
HETATM   11  C   UNL     1     -38.109 -49.641  12.812  1.00  0.00     0.250 C 
BRANCH  11  12
HETATM   12  C   UNL     1     -37.447 -50.582  11.838  1.00  0.00     0.235 C 
HETATM   13  O   UNL     1     -36.954 -51.655  12.176  1.00  0.00    -0.272 OA
HETATM   14  N   UNL     1     -37.371 -50.167  10.540  1.00  0.00    -0.369 N 
HETATM   15  H   UNL     1     -37.817 -49.319  10.209  1.00  0.00     0.159 HD
HETATM   16  H   UNL     1     -36.939 -50.785   9.864  1.00  0.00     0.159 HD
ENDBRANCH  11  12
ENDBRANCH   8  11
ENDBRANCH   3   5
BRANCH   1  17
HETATM   17  C   UNL     1     -44.756 -50.864  13.525  1.00  0.00     0.095 A 
HETATM   18  C   UNL     1     -45.305 -51.942  14.441  1.00  0.00     0.030 A 
HETATM   19  C   UNL     1     -45.307 -52.164  12.937  1.00  0.00    -0.027 A 
HETATM   20  C   UNL     1     -44.399 -53.263  12.440  1.00  0.00     0.016 C 
HETATM   21  C   UNL     1     -46.585 -52.052  12.136  1.00  0.00     0.016 C 
BRANCH  18  22
HETATM   22  C   UNL     1     -46.583 -51.775  15.145  1.00  0.00    -0.019 C 
HETATM   23  C   UNL     1     -46.765 -51.149  16.327  1.00  0.00    -0.091 C 
HETATM   24  C   UNL     1     -45.650 -50.513  17.110  1.00  0.00     0.042 C 
HETATM   25  C   UNL     1     -48.129 -51.050  16.949  1.00  0.00     0.042 C 
ENDBRANCH  18  22
ENDBRANCH   1  17
TORSDOF 5
ENDMDL
MODEL 5
REMARK VINA RESULT:      -5.9      1.530      2.475
REMARK  5 active torsions:
REMARK  status: ('A' for Active; 'I' for Inactive)
REMARK    1  A    between atoms: C_3  and  C_4 
REMARK    2  A    between atoms: C_5  and  C_6 
REMARK       I    between atoms: C_6  and  N_8 
REMARK    3  A    between atoms: N_8  and  C_9 
REMARK    4  A    between atoms: N_12  and  C_13 
REMARK    5  A    between atoms: C_13  and  C_14 
REMARK       I    between atoms: C_14  and  N_16 
ROOT
HETATM    1  C   UNL     1     -42.631 -50.008  12.793  1.00  0.00     0.228 C 
HETATM    2  O   UNL     1     -41.970 -50.510  11.897  1.00  0.00    -0.273 OA
HETATM    3  N   UNL     1     -43.155 -48.730  12.833  1.00  0.00    -0.312 N 
HETATM    4  H   UNL     1     -43.770 -48.475  13.590  1.00  0.00     0.170 HD
ENDROOT
BRANCH   3   5
HETATM    5  C   UNL     1     -42.969 -47.786  11.840  1.00  0.00     0.123 A 
HETATM    6  C   UNL     1     -42.254 -46.574  12.008  1.00  0.00     0.068 A 
HETATM    7  C   UNL     1     -42.386 -45.900  10.814  1.00  0.00     0.114 A 
HETATM    8  N   UNL     1     -43.093 -46.733   9.998  1.00  0.00    -0.293 N 
HETATM    9  N   UNL     1     -43.433 -47.886  10.594  1.00  0.00    -0.283 N 
ATOM     10  HN  UNL     1     -43.938 -48.671  10.182  1.00  0.00     0.189 HD
BRANCH   8  11
HETATM   11  C   UNL     1     -43.538 -46.480   8.642  1.00  0.00     0.250 C 
BRANCH  11  12
HETATM   12  C   UNL     1     -43.900 -47.750   7.915  1.00  0.00     0.235 C 
HETATM   13  O   UNL     1     -45.007 -48.276   7.999  1.00  0.00    -0.272 OA
HETATM   14  N   UNL     1     -42.911 -48.337   7.178  1.00  0.00    -0.369 N 
HETATM   15  H   UNL     1     -42.006 -47.905   7.034  1.00  0.00     0.159 HD
HETATM   16  H   UNL     1     -43.132 -49.186   6.673  1.00  0.00     0.159 HD
ENDBRANCH  11  12
ENDBRANCH   8  11
ENDBRANCH   3   5
BRANCH   1  17
HETATM   17  C   UNL     1     -42.979 -50.829  14.000  1.00  0.00     0.095 A 
HETATM   18  C   UNL     1     -43.222 -52.319  13.835  1.00  0.00     0.030 A 
HETATM   19  C   UNL     1     -44.380 -51.405  14.207  1.00  0.00    -0.027 A 
HETATM   20  C   UNL     1     -45.462 -51.268  13.164  1.00  0.00     0.016 C 
HETATM   21  C   UNL     1     -44.921 -51.372  15.619  1.00  0.00     0.016 C 
BRANCH  18  22
HETATM   22  C   UNL     1     -42.729 -53.292  14.818  1.00  0.00    -0.019 C 
HETATM   23  C   UNL     1     -43.205 -54.540  15.010  1.00  0.00    -0.091 C 
HETATM   24  C   UNL     1     -44.341 -55.126  14.218  1.00  0.00     0.042 C 
HETATM   25  C   UNL     1     -42.617 -55.441  16.058  1.00  0.00     0.042 C 
ENDBRANCH  18  22
ENDBRANCH   1  17
TORSDOF 5
ENDMDL
MODEL 6
REMARK VINA RESULT:      -5.9      2.838      7.420
REMARK  5 active torsions:
REMARK  status: ('A' for Active; 'I' for Inactive)
REMARK    1  A    between atoms: C_3  and  C_4 
REMARK    2  A    between atoms: C_5  and  C_6 
REMARK       I    between atoms: C_6  and  N_8 
REMARK    3  A    between atoms: N_8  and  C_9 
REMARK    4  A    between atoms: N_12  and  C_13 
REMARK    5  A    between atoms: C_13  and  C_14 
REMARK       I    between atoms: C_14  and  N_16 
ROOT
HETATM    1  C   UNL     1     -41.326 -50.001  12.193  1.00  0.00     0.228 C 
HETATM    2  O   UNL     1     -41.017 -49.714  13.339  1.00  0.00    -0.273 OA
HETATM    3  N   UNL     1     -41.818 -51.207  11.734  1.00  0.00    -0.312 N 
HETATM    4  H   UNL     1     -42.129 -51.280  10.778  1.00  0.00     0.170 HD
ENDROOT
BRANCH   3   5
HETATM    5  C   UNL     1     -42.008 -52.320  12.533  1.00  0.00     0.123 A 
HETATM    6  C   UNL     1     -41.043 -53.338  12.735  1.00  0.00     0.068 A 
HETATM    7  C   UNL     1     -41.665 -54.285  13.517  1.00  0.00     0.114 A 
HETATM    8  N   UNL     1     -42.903 -53.782  13.790  1.00  0.00    -0.293 N 
HETATM    9  N   UNL     1     -43.118 -52.585  13.223  1.00  0.00    -0.283 N 
ATOM     10  HN  UNL     1     -43.952 -52.002  13.302  1.00  0.00     0.189 HD
BRANCH   8  11
HETATM   11  C   UNL     1     -43.971 -54.409  14.543  1.00  0.00     0.250 C 
BRANCH  11  12
HETATM   12  C   UNL     1     -45.253 -54.490  13.753  1.00  0.00     0.235 C 
HETATM   13  O   UNL     1     -45.330 -54.169  12.570  1.00  0.00    -0.272 OA
HETATM   14  N   UNL     1     -46.365 -54.899  14.431  1.00  0.00    -0.369 N 
HETATM   15  H   UNL     1     -46.333 -55.229  15.389  1.00  0.00     0.159 HD
HETATM   16  H   UNL     1     -47.237 -54.970  13.921  1.00  0.00     0.159 HD
ENDBRANCH  11  12
ENDBRANCH   8  11
ENDBRANCH   3   5
BRANCH   1  17
HETATM   17  C   UNL     1     -41.213 -48.960  11.117  1.00  0.00     0.095 A 
HETATM   18  C   UNL     1     -41.073 -47.501  11.513  1.00  0.00     0.030 A 
HETATM   19  C   UNL     1     -42.345 -47.974  10.827  1.00  0.00    -0.027 A 
HETATM   20  C   UNL     1     -43.596 -47.925  11.671  1.00  0.00     0.016 C 
HETATM   21  C   UNL     1     -42.607 -47.658   9.372  1.00  0.00     0.016 C 
BRANCH  18  22
HETATM   22  C   UNL     1     -40.165 -46.593  10.799  1.00  0.00    -0.019 C 
HETATM   23  C   UNL     1     -40.293 -45.254  10.703  1.00  0.00    -0.091 C 
HETATM   24  C   UNL     1     -41.416 -44.479  11.336  1.00  0.00     0.042 C 
HETATM   25  C   UNL     1     -39.296 -44.434   9.935  1.00  0.00     0.042 C 
ENDBRANCH  18  22
ENDBRANCH   1  17
TORSDOF 5
ENDMDL
MODEL 7
REMARK VINA RESULT:      -5.8      3.575      5.586
REMARK  5 active torsions:
REMARK  status: ('A' for Active; 'I' for Inactive)
REMARK    1  A    between atoms: C_3  and  C_4 
REMARK    2  A    between atoms: C_5  and  C_6 
REMARK       I    between atoms: C_6  and  N_8 
REMARK    3  A    between atoms: N_8  and  C_9 
REMARK    4  A    between atoms: N_12  and  C_13 
REMARK    5  A    between atoms: C_13  and  C_14 
REMARK       I    between atoms: C_14  and  N_16 
ROOT
HETATM    1  C   UNL     1     -42.952 -50.886  13.157  1.00  0.00     0.228 C 
HETATM    2  O   UNL     1     -42.452 -50.477  12.120  1.00  0.00    -0.273 OA
HETATM    3  N   UNL     1     -42.293 -51.349  14.279  1.00  0.00    -0.312 N 
HETATM    4  H   UNL     1     -42.826 -51.563  15.108  1.00  0.00     0.170 HD
ENDROOT
BRANCH   3   5
HETATM    5  C   UNL     1     -40.919 -51.452  14.382  1.00  0.00     0.123 A 
HETATM    6  C   UNL     1     -40.242 -52.315  15.279  1.00  0.00     0.068 A 
HETATM    7  C   UNL     1     -38.903 -52.041  15.117  1.00  0.00     0.114 A 
HETATM    8  N   UNL     1     -38.836 -51.107  14.125  1.00  0.00    -0.293 N 
HETATM    9  N   UNL     1     -40.044 -50.757  13.654  1.00  0.00    -0.283 N 
ATOM     10  HN  UNL     1     -40.248 -50.101  12.900  1.00  0.00     0.189 HD
BRANCH   8  11
HETATM   11  C   UNL     1     -37.656 -50.449  13.602  1.00  0.00     0.250 C 
BRANCH  11  12
HETATM   12  C   UNL     1     -37.313 -50.917  12.210  1.00  0.00     0.235 C 
HETATM   13  O   UNL     1     -36.713 -51.965  11.987  1.00  0.00    -0.272 OA
HETATM   14  N   UNL     1     -37.661 -50.089  11.183  1.00  0.00    -0.369 N 
HETATM   15  H   UNL     1     -38.209 -49.247  11.319  1.00  0.00     0.159 HD
HETATM   16  H   UNL     1     -37.450 -50.385  10.238  1.00  0.00     0.159 HD
ENDBRANCH  11  12
ENDBRANCH   8  11
ENDBRANCH   3   5
BRANCH   1  17
HETATM   17  C   UNL     1     -44.446 -50.881  13.306  1.00  0.00     0.095 A 
HETATM   18  C   UNL     1     -45.082 -51.718  14.401  1.00  0.00     0.030 A 
HETATM   19  C   UNL     1     -45.297 -52.098  12.944  1.00  0.00    -0.027 A 
HETATM   20  C   UNL     1     -44.677 -53.405  12.514  1.00  0.00     0.016 C 
HETATM   21  C   UNL     1     -46.613 -51.819  12.255  1.00  0.00     0.016 C 
BRANCH  18  22
HETATM   22  C   UNL     1     -46.216 -51.220  15.190  1.00  0.00    -0.019 C 
HETATM   23  C   UNL     1     -46.759 -51.820  16.270  1.00  0.00    -0.091 C 
HETATM   24  C   UNL     1     -46.259 -53.121  16.836  1.00  0.00     0.042 C 
HETATM   25  C   UNL     1     -47.928 -51.210  16.990  1.00  0.00     0.042 C 
ENDBRANCH  18  22
ENDBRANCH   1  17
TORSDOF 5
ENDMDL
MODEL 8
REMARK VINA RESULT:      -5.6      2.402      2.643
REMARK  5 active torsions:
REMARK  status: ('A' for Active; 'I' for Inactive)
REMARK    1  A    between atoms: C_3  and  C_4 
REMARK    2  A    between atoms: C_5  and  C_6 
REMARK       I    between atoms: C_6  and  N_8 
REMARK    3  A    between atoms: N_8  and  C_9 
REMARK    4  A    between atoms: N_12  and  C_13 
REMARK    5  A    between atoms: C_13  and  C_14 
REMARK       I    between atoms: C_14  and  N_16 
ROOT
HETATM    1  C   UNL     1     -42.144 -50.601  12.732  1.00  0.00     0.228 C 
HETATM    2  O   UNL     1     -42.415 -49.967  13.739  1.00  0.00    -0.273 OA
HETATM    3  N   UNL     1     -41.727 -50.101  11.514  1.00  0.00    -0.312 N 
HETATM    4  H   UNL     1     -41.437 -50.743  10.792  1.00  0.00     0.170 HD
ENDROOT
BRANCH   3   5
HETATM    5  C   UNL     1     -41.584 -48.754  11.238  1.00  0.00     0.123 A 
HETATM    6  C   UNL     1     -42.401 -48.027  10.337  1.00  0.00     0.068 A 
HETATM    7  C   UNL     1     -41.867 -46.758  10.296  1.00  0.00     0.114 A 
HETATM    8  N   UNL     1     -40.834 -46.765  11.186  1.00  0.00    -0.293 N 
HETATM    9  N   UNL     1     -40.664 -47.956  11.782  1.00  0.00    -0.283 N 
ATOM     10  HN  UNL     1     -39.978 -48.199  12.497  1.00  0.00     0.189 HD
BRANCH   8  11
HETATM   11  C   UNL     1     -39.915 -45.686  11.489  1.00  0.00     0.250 C 
BRANCH  11  12
HETATM   12  C   UNL     1     -39.868 -44.654  10.391  1.00  0.00     0.235 C 
HETATM   13  O   UNL     1     -40.539 -43.625  10.412  1.00  0.00    -0.272 OA
HETATM   14  N   UNL     1     -39.067 -44.933   9.322  1.00  0.00    -0.369 N 
HETATM   15  H   UNL     1     -38.453 -45.739   9.293  1.00  0.00     0.159 HD
HETATM   16  H   UNL     1     -39.011 -44.252   8.575  1.00  0.00     0.159 HD
ENDBRANCH  11  12
ENDBRANCH   8  11
ENDBRANCH   3   5
BRANCH   1  17
HETATM   17  C   UNL     1     -42.218 -52.101  12.763  1.00  0.00     0.095 A 
HETATM   18  C   UNL     1     -42.658 -52.792  14.041  1.00  0.00     0.030 A 
HETATM   19  C   UNL     1     -41.223 -52.941  13.562  1.00  0.00    -0.027 A 
HETATM   20  C   UNL     1     -40.174 -52.310  14.445  1.00  0.00     0.016 C 
HETATM   21  C   UNL     1     -40.749 -54.222  12.914  1.00  0.00     0.016 C 
BRANCH  18  22
HETATM   22  C   UNL     1     -43.550 -53.959  14.016  1.00  0.00    -0.019 C 
HETATM   23  C   UNL     1     -44.884 -53.937  13.820  1.00  0.00    -0.091 C 
HETATM   24  C   UNL     1     -45.669 -52.674  13.590  1.00  0.00     0.042 C 
HETATM   25  C   UNL     1     -45.689 -55.205  13.824  1.00  0.00     0.042 C 
ENDBRANCH  18  22
ENDBRANCH   1  17
TORSDOF 5
ENDMDL
MODEL 9
REMARK VINA RESULT:      -5.4      2.544      3.874
REMARK  5 active torsions:
REMARK  status: ('A' for Active; 'I' for Inactive)
REMARK    1  A    between atoms: C_3  and  C_4 
REMARK    2  A    between atoms: C_5  and  C_6 
REMARK       I    between atoms: C_6  and  N_8 
REMARK    3  A    between atoms: N_8  and  C_9 
REMARK    4  A    between atoms: N_12  and  C_13 
REMARK    5  A    between atoms: C_13  and  C_14 
REMARK       I    between atoms: C_14  and  N_16 
ROOT
HETATM    1  C   UNL     1     -43.451 -51.377  13.983  1.00  0.00     0.228 C 
HETATM    2  O   UNL     1     -43.930 -50.271  14.178  1.00  0.00    -0.273 OA
HETATM    3  N   UNL     1     -42.403 -51.702  13.143  1.00  0.00    -0.312 N 
HETATM    4  H   UNL     1     -42.039 -52.641  13.152  1.00  0.00     0.170 HD
ENDROOT
BRANCH   3   5
HETATM    5  C   UNL     1     -41.742 -50.788  12.344  1.00  0.00     0.123 A 
HETATM    6  C   UNL     1     -40.356 -50.831  12.051  1.00  0.00     0.068 A 
HETATM    7  C   UNL     1     -40.101 -49.703  11.305  1.00  0.00     0.114 A 
HETATM    8  N   UNL     1     -41.309 -49.091  11.137  1.00  0.00    -0.293 N 
HETATM    9  N   UNL     1     -42.315 -49.746  11.738  1.00  0.00    -0.283 N 
ATOM     10  HN  UNL     1     -43.304 -49.500  11.734  1.00  0.00     0.189 HD
BRANCH   8  11
HETATM   11  C   UNL     1     -41.585 -47.840  10.460  1.00  0.00     0.250 C 
BRANCH  11  12
HETATM   12  C   UNL     1     -40.811 -46.690  11.052  1.00  0.00     0.235 C 
HETATM   13  O   UNL     1     -40.966 -46.305  12.209  1.00  0.00    -0.272 OA
HETATM   14  N   UNL     1     -39.944 -46.042  10.220  1.00  0.00    -0.369 N 
HETATM   15  H   UNL     1     -39.743 -46.364   9.280  1.00  0.00     0.159 HD
HETATM   16  H   UNL     1     -39.405 -45.272  10.596  1.00  0.00     0.159 HD
ENDBRANCH  11  12
ENDBRANCH   8  11
ENDBRANCH   3   5
BRANCH   1  17
HETATM   17  C   UNL     1     -43.994 -52.558  14.736  1.00  0.00     0.095 A 
HETATM   18  C   UNL     1     -43.704 -53.957  14.223  1.00  0.00     0.030 A 
HETATM   19  C   UNL     1     -45.126 -53.419  14.177  1.00  0.00    -0.027 A 
HETATM   20  C   UNL     1     -45.692 -53.195  12.795  1.00  0.00     0.016 C 
HETATM   21  C   UNL     1     -46.168 -53.889  15.167  1.00  0.00     0.016 C 
BRANCH  18  22
HETATM   22  C   UNL     1     -43.382 -55.060  15.138  1.00  0.00    -0.019 C 
HETATM   23  C   UNL     1     -42.179 -55.305  15.696  1.00  0.00    -0.091 C 
HETATM   24  C   UNL     1     -40.962 -54.455  15.453  1.00  0.00     0.042 C 
HETATM   25  C   UNL     1     -41.975 -56.476  16.616  1.00  0.00     0.042 C 
ENDBRANCH  18  22
ENDBRANCH   1  17
TORSDOF 5
ENDMDL
