MODEL 1
REMARK VINA RESULT:      -6.6      0.000      0.000
REMARK  6 active torsions:
REMARK  status: ('A' for Active; 'I' for Inactive)
REMARK    1  A    between atoms: C_2  and  C_3 
REMARK    2  A    between atoms: C_3  and  O_5 
REMARK    3  A    between atoms: C_3  and  C_6 
REMARK    4  A    between atoms: C_6  and  N_7 
REMARK       I    between atoms: N_7  and  C_8 
REMARK       I    between atoms: C_8  and  N_10 
REMARK    5  A    between atoms: N_10  and  C_11 
REMARK    6  A    between atoms: C_14  and  N_18 
ROOT
HETATM    1  C   UNL     1     -40.095 -50.860  11.749  1.00  0.00     0.051 A 
HETATM    2  C   UNL     1     -40.814 -52.001  12.067  1.00  0.00     0.035 A 
HETATM    3  C   UNL     1     -40.427 -52.797  13.143  1.00  0.00     0.051 A 
HETATM    4  C   UNL     1     -39.317 -52.467  13.914  1.00  0.00     0.103 A 
HETATM    5  N   UNL     1     -38.542 -51.419  13.549  1.00  0.00    -0.350 N 
ATOM      6  HN  UNL     1     -37.681 -51.207  14.054  1.00  0.00     0.166 HD
HETATM    7  C   UNL     1     -38.938 -50.652  12.488  1.00  0.00     0.119 A 
ENDROOT
BRANCH   1   8
HETATM    8  N   UNL     1     -40.508 -49.954  10.739  1.00  0.00    -0.308 N 
HETATM    9  C   UNL     1     -41.510 -49.023  10.914  1.00  0.00     0.320 C 
HETATM   10  N   UNL     1     -41.818 -48.317   9.773  1.00  0.00    -0.340 N 
HETATM   11  O   UNL     1     -42.125 -48.826  11.958  1.00  0.00    -0.247 OA
HETATM   12  H   UNL     1     -41.098 -48.169   9.081  1.00  0.00     0.164 HD
HETATM   13  H   UNL     1     -39.915 -49.844   9.929  1.00  0.00     0.170 HD
BRANCH  10  14
HETATM   14  C   UNL     1     -42.828 -47.265   9.869  1.00  0.00     0.161 C 
BRANCH  14  15
HETATM   15  C   UNL     1     -43.509 -46.912   8.527  1.00  0.00     0.070 C 
HETATM   16  C   UNL     1     -43.504 -48.120   7.582  1.00  0.00     0.047 C 
BRANCH  15  17
HETATM   17  C   UNL     1     -44.949 -46.431   8.835  1.00  0.00     0.034 C 
HETATM   18  C   UNL     1     -45.900 -47.492   9.374  1.00  0.00     0.008 C 
ENDBRANCH  15  17
BRANCH  15  19
HETATM   19  O   UNL     1     -42.759 -45.851   7.923  1.00  0.00    -0.389 OA
HETATM   20  H   UNL     1     -43.392 -45.201   7.574  1.00  0.00     0.210 HD
ENDBRANCH  15  19
ENDBRANCH  14  15
ENDBRANCH  10  14
ENDBRANCH   1   8
BRANCH   4  21
HETATM   21  N   UNL     1     -38.995 -53.222  15.025  1.00  0.00    -0.363 N 
HETATM   22  C   UNL     1     -39.036 -54.692  14.998  1.00  0.00     0.150 C 
HETATM   23  C   UNL     1     -40.102 -55.228  15.966  1.00  0.00     0.187 C 
HETATM   24  O   UNL     1     -39.920 -54.709  17.290  1.00  0.00    -0.388 OA
HETATM   25  C   UNL     1     -40.040 -53.276  17.272  1.00  0.00     0.187 C 
HETATM   26  C   UNL     1     -38.984 -52.626  16.364  1.00  0.00     0.150 C 
ENDBRANCH   4  21
TORSDOF 6
ENDMDL
MODEL 2
REMARK VINA RESULT:      -6.2      3.603      8.744
REMARK  6 active torsions:
REMARK  status: ('A' for Active; 'I' for Inactive)
REMARK    1  A    between atoms: C_2  and  C_3 
REMARK    2  A    between atoms: C_3  and  O_5 
REMARK    3  A    between atoms: C_3  and  C_6 
REMARK    4  A    between atoms: C_6  and  N_7 
REMARK       I    between atoms: N_7  and  C_8 
REMARK       I    between atoms: C_8  and  N_10 
REMARK    5  A    between atoms: N_10  and  C_11 
REMARK    6  A    between atoms: C_14  and  N_18 
ROOT
HETATM    1  C   UNL     1     -41.889 -47.553  10.776  1.00  0.00     0.051 A 
HETATM    2  C   UNL     1     -40.692 -46.870  10.922  1.00  0.00     0.035 A 
HETATM    3  C   UNL     1     -40.686 -45.479  11.016  1.00  0.00     0.051 A 
HETATM    4  C   UNL     1     -41.870 -44.753  10.962  1.00  0.00     0.103 A 
HETATM    5  N   UNL     1     -43.034 -45.397  10.710  1.00  0.00    -0.350 N 
ATOM      6  HN  UNL     1     -43.902 -44.875  10.590  1.00  0.00     0.166 HD
HETATM    7  C   UNL     1     -43.018 -46.762  10.619  1.00  0.00     0.119 A 
ENDROOT
BRANCH   1   8
HETATM    8  N   UNL     1     -41.966 -48.970  10.790  1.00  0.00    -0.308 N 
HETATM    9  C   UNL     1     -41.948 -49.722  11.945  1.00  0.00     0.320 C 
HETATM   10  N   UNL     1     -41.929 -51.080  11.723  1.00  0.00    -0.340 N 
HETATM   11  O   UNL     1     -41.917 -49.273  13.087  1.00  0.00    -0.247 OA
HETATM   12  H   UNL     1     -42.356 -51.444  10.883  1.00  0.00     0.164 HD
HETATM   13  H   UNL     1     -42.249 -49.437   9.941  1.00  0.00     0.170 HD
BRANCH  10  14
HETATM   14  C   UNL     1     -41.969 -51.966  12.885  1.00  0.00     0.161 C 
BRANCH  14  15
HETATM   15  C   UNL     1     -40.808 -52.985  12.948  1.00  0.00     0.070 C 
HETATM   16  C   UNL     1     -39.567 -52.355  13.593  1.00  0.00     0.047 C 
BRANCH  15  17
HETATM   17  C   UNL     1     -41.301 -54.221  13.741  1.00  0.00     0.034 C 
HETATM   18  C   UNL     1     -42.798 -54.275  14.018  1.00  0.00     0.008 C 
ENDBRANCH  15  17
BRANCH  15  19
HETATM   19  O   UNL     1     -40.487 -53.365  11.604  1.00  0.00    -0.389 OA
HETATM   20  H   UNL     1     -40.048 -54.232  11.637  1.00  0.00     0.210 HD
ENDBRANCH  15  19
ENDBRANCH  14  15
ENDBRANCH  10  14
ENDBRANCH   1   8
BRANCH   4  21
HETATM   21  N   UNL     1     -41.852 -43.383  11.137  1.00  0.00    -0.363 N 
HETATM   22  C   UNL     1     -40.658 -42.685  11.636  1.00  0.00     0.150 C 
HETATM   23  C   UNL     1     -40.938 -42.025  12.995  1.00  0.00     0.187 C 
HETATM   24  O   UNL     1     -42.089 -41.172  12.939  1.00  0.00    -0.388 OA
HETATM   25  C   UNL     1     -43.251 -41.944  12.591  1.00  0.00     0.187 C 
HETATM   26  C   UNL     1     -43.099 -42.617  11.218  1.00  0.00     0.150 C 
ENDBRANCH   4  21
TORSDOF 6
ENDMDL
MODEL 3
REMARK VINA RESULT:      -6.2      4.041      7.674
REMARK  6 active torsions:
REMARK  status: ('A' for Active; 'I' for Inactive)
REMARK    1  A    between atoms: C_2  and  C_3 
REMARK    2  A    between atoms: C_3  and  O_5 
REMARK    3  A    between atoms: C_3  and  C_6 
REMARK    4  A    between atoms: C_6  and  N_7 
REMARK       I    between atoms: N_7  and  C_8 
REMARK       I    between atoms: C_8  and  N_10 
REMARK    5  A    between atoms: N_10  and  C_11 
REMARK    6  A    between atoms: C_14  and  N_18 
ROOT
HETATM    1  C   UNL     1     -41.039 -49.252  11.527  1.00  0.00     0.051 A 
HETATM    2  C   UNL     1     -40.010 -48.855  12.367  1.00  0.00     0.035 A 
HETATM    3  C   UNL     1     -39.530 -47.548  12.318  1.00  0.00     0.051 A 
HETATM    4  C   UNL     1     -40.066 -46.621  11.431  1.00  0.00     0.103 A 
HETATM    5  N   UNL     1     -40.994 -47.022  10.530  1.00  0.00    -0.350 N 
ATOM      6  HN  UNL     1     -41.344 -46.378   9.821  1.00  0.00     0.166 HD
HETATM    7  C   UNL     1     -41.450 -48.311  10.593  1.00  0.00     0.119 A 
ENDROOT
BRANCH   1   8
HETATM    8  N   UNL     1     -41.643 -50.533  11.611  1.00  0.00    -0.308 N 
HETATM    9  C   UNL     1     -42.438 -50.933  12.664  1.00  0.00     0.320 C 
HETATM   10  N   UNL     1     -42.835 -52.248  12.592  1.00  0.00    -0.340 N 
HETATM   11  O   UNL     1     -42.762 -50.231  13.618  1.00  0.00    -0.247 OA
HETATM   12  H   UNL     1     -42.934 -52.680  11.684  1.00  0.00     0.164 HD
HETATM   13  H   UNL     1     -41.662 -51.104  10.778  1.00  0.00     0.170 HD
BRANCH  10  14
HETATM   14  C   UNL     1     -43.729 -52.753  13.632  1.00  0.00     0.161 C 
BRANCH  14  15
HETATM   15  C   UNL     1     -44.945 -53.544  13.097  1.00  0.00     0.070 C 
HETATM   16  C   UNL     1     -45.547 -54.424  14.199  1.00  0.00     0.047 C 
BRANCH  15  17
HETATM   17  C   UNL     1     -45.975 -52.524  12.551  1.00  0.00     0.034 C 
HETATM   18  C   UNL     1     -46.429 -51.452  13.535  1.00  0.00     0.008 C 
ENDBRANCH  15  17
BRANCH  15  19
HETATM   19  O   UNL     1     -44.483 -54.386  12.034  1.00  0.00    -0.389 OA
HETATM   20  H   UNL     1     -43.752 -54.927  12.379  1.00  0.00     0.210 HD
ENDBRANCH  15  19
ENDBRANCH  14  15
ENDBRANCH  10  14
ENDBRANCH   1   8
BRANCH   4  21
HETATM   21  N   UNL     1     -39.634 -45.310  11.453  1.00  0.00    -0.363 N 
HETATM   22  C   UNL     1     -39.073 -44.702  12.669  1.00  0.00     0.150 C 
HETATM   23  C   UNL     1     -39.960 -43.551  13.165  1.00  0.00     0.187 C 
HETATM   24  O   UNL     1     -40.199 -42.587  12.131  1.00  0.00    -0.388 OA
HETATM   25  C   UNL     1     -40.883 -43.212  11.031  1.00  0.00     0.187 C 
HETATM   26  C   UNL     1     -40.060 -44.358  10.424  1.00  0.00     0.150 C 
ENDBRANCH   4  21
TORSDOF 6
ENDMDL
MODEL 4
REMARK VINA RESULT:      -5.7      3.668      4.518
REMARK  6 active torsions:
REMARK  status: ('A' for Active; 'I' for Inactive)
REMARK    1  A    between atoms: C_2  and  C_3 
REMARK    2  A    between atoms: C_3  and  O_5 
REMARK    3  A    between atoms: C_3  and  C_6 
REMARK    4  A    between atoms: C_6  and  N_7 
REMARK       I    between atoms: N_7  and  C_8 
REMARK       I    between atoms: C_8  and  N_10 
REMARK    5  A    between atoms: N_10  and  C_11 
REMARK    6  A    between atoms: C_14  and  N_18 
ROOT
HETATM    1  C   UNL     1     -41.424 -49.523  12.424  1.00  0.00     0.051 A 
HETATM    2  C   UNL     1     -42.562 -49.738  13.188  1.00  0.00     0.035 A 
HETATM    3  C   UNL     1     -43.105 -51.017  13.291  1.00  0.00     0.051 A 
HETATM    4  C   UNL     1     -42.524 -52.096  12.635  1.00  0.00     0.103 A 
HETATM    5  N   UNL     1     -41.480 -51.883  11.799  1.00  0.00    -0.350 N 
ATOM      6  HN  UNL     1     -41.089 -52.648  11.249  1.00  0.00     0.166 HD
HETATM    7  C   UNL     1     -40.964 -50.619  11.709  1.00  0.00     0.119 A 
ENDROOT
BRANCH   1   8
HETATM    8  N   UNL     1     -40.765 -48.268  12.374  1.00  0.00    -0.308 N 
HETATM    9  C   UNL     1     -41.035 -47.303  11.428  1.00  0.00     0.320 C 
HETATM   10  N   UNL     1     -40.208 -46.205  11.501  1.00  0.00    -0.340 N 
HETATM   11  O   UNL     1     -41.898 -47.380  10.558  1.00  0.00    -0.247 OA
HETATM   12  H   UNL     1     -39.816 -45.948  12.396  1.00  0.00     0.164 HD
HETATM   13  H   UNL     1     -40.222 -47.985  13.177  1.00  0.00     0.170 HD
BRANCH  10  14
HETATM   14  C   UNL     1     -40.452 -45.099  10.577  1.00  0.00     0.161 C 
BRANCH  14  15
HETATM   15  C   UNL     1     -40.874 -43.779  11.262  1.00  0.00     0.070 C 
HETATM   16  C   UNL     1     -42.353 -43.824  11.662  1.00  0.00     0.047 C 
BRANCH  15  17
HETATM   17  C   UNL     1     -39.954 -43.565  12.491  1.00  0.00     0.034 C 
HETATM   18  C   UNL     1     -39.872 -42.136  13.014  1.00  0.00     0.008 C 
ENDBRANCH  15  17
BRANCH  15  19
HETATM   19  O   UNL     1     -40.682 -42.717  10.319  1.00  0.00    -0.389 OA
HETATM   20  H   UNL     1     -41.005 -43.025   9.456  1.00  0.00     0.210 HD
ENDBRANCH  15  19
ENDBRANCH  14  15
ENDBRANCH  10  14
ENDBRANCH   1   8
BRANCH   4  21
HETATM   21  N   UNL     1     -43.028 -53.370  12.815  1.00  0.00    -0.363 N 
HETATM   22  C   UNL     1     -44.433 -53.692  12.527  1.00  0.00     0.150 C 
HETATM   23  C   UNL     1     -45.172 -54.112  13.806  1.00  0.00     0.187 C 
HETATM   24  O   UNL     1     -44.492 -55.179  14.481  1.00  0.00    -0.388 OA
HETATM   25  C   UNL     1     -43.175 -54.751  14.867  1.00  0.00     0.187 C 
HETATM   26  C   UNL     1     -42.326 -54.347  13.652  1.00  0.00     0.150 C 
ENDBRANCH   4  21
TORSDOF 6
ENDMDL
MODEL 5
REMARK VINA RESULT:      -5.7      3.017      8.248
REMARK  6 active torsions:
REMARK  status: ('A' for Active; 'I' for Inactive)
REMARK    1  A    between atoms: C_2  and  C_3 
REMARK    2  A    between atoms: C_3  and  O_5 
REMARK    3  A    between atoms: C_3  and  C_6 
REMARK    4  A    between atoms: C_6  and  N_7 
REMARK       I    between atoms: N_7  and  C_8 
REMARK       I    between atoms: C_8  and  N_10 
REMARK    5  A    between atoms: N_10  and  C_11 
REMARK    6  A    between atoms: C_14  and  N_18 
ROOT
HETATM    1  C   UNL     1     -40.811 -49.232  11.091  1.00  0.00     0.051 A 
HETATM    2  C   UNL     1     -39.855 -48.518  11.796  1.00  0.00     0.035 A 
HETATM    3  C   UNL     1     -39.869 -47.125  11.783  1.00  0.00     0.051 A 
HETATM    4  C   UNL     1     -40.834 -46.426  11.066  1.00  0.00     0.103 A 
HETATM    5  N   UNL     1     -41.705 -47.107  10.285  1.00  0.00    -0.350 N 
ATOM      6  HN  UNL     1     -42.370 -46.611   9.692  1.00  0.00     0.166 HD
HETATM    7  C   UNL     1     -41.673 -48.475  10.310  1.00  0.00     0.119 A 
ENDROOT
BRANCH   1   8
HETATM    8  N   UNL     1     -40.914 -50.646  11.160  1.00  0.00    -0.308 N 
HETATM    9  C   UNL     1     -41.702 -51.309  12.077  1.00  0.00     0.320 C 
HETATM   10  N   UNL     1     -41.573 -52.678  12.033  1.00  0.00    -0.340 N 
HETATM   11  O   UNL     1     -42.441 -50.774  12.899  1.00  0.00    -0.247 OA
HETATM   12  H   UNL     1     -41.327 -53.118  11.158  1.00  0.00     0.164 HD
HETATM   13  H   UNL     1     -40.559 -51.185  10.384  1.00  0.00     0.170 HD
BRANCH  10  14
HETATM   14  C   UNL     1     -42.412 -53.475  12.927  1.00  0.00     0.161 C 
BRANCH  14  15
HETATM   15  C   UNL     1     -41.717 -53.898  14.241  1.00  0.00     0.070 C 
HETATM   16  C   UNL     1     -42.515 -55.002  14.945  1.00  0.00     0.047 C 
BRANCH  15  17
HETATM   17  C   UNL     1     -40.281 -54.362  13.893  1.00  0.00     0.034 C 
HETATM   18  C   UNL     1     -39.155 -53.614  14.597  1.00  0.00     0.008 C 
ENDBRANCH  15  17
BRANCH  15  19
HETATM   19  O   UNL     1     -41.664 -52.750  15.096  1.00  0.00    -0.389 OA
HETATM   20  H   UNL     1     -42.031 -51.996  14.604  1.00  0.00     0.210 HD
ENDBRANCH  15  19
ENDBRANCH  14  15
ENDBRANCH  10  14
ENDBRANCH   1   8
BRANCH   4  21
HETATM   21  N   UNL     1     -40.881 -45.047  11.130  1.00  0.00    -0.363 N 
HETATM   22  C   UNL     1     -39.742 -44.257  11.619  1.00  0.00     0.150 C 
HETATM   23  C   UNL     1     -40.110 -43.505  12.907  1.00  0.00     0.187 C 
HETATM   24  O   UNL     1     -41.292 -42.713  12.735  1.00  0.00    -0.388 OA
HETATM   25  C   UNL     1     -42.404 -43.562  12.403  1.00  0.00     0.187 C 
HETATM   26  C   UNL     1     -42.162 -44.335  11.097  1.00  0.00     0.150 C 
ENDBRANCH   4  21
TORSDOF 6
ENDMDL
MODEL 6
REMARK VINA RESULT:      -5.6      1.855      2.509
REMARK  6 active torsions:
REMARK  status: ('A' for Active; 'I' for Inactive)
REMARK    1  A    between atoms: C_2  and  C_3 
REMARK    2  A    between atoms: C_3  and  O_5 
REMARK    3  A    between atoms: C_3  and  C_6 
REMARK    4  A    between atoms: C_6  and  N_7 
REMARK       I    between atoms: N_7  and  C_8 
REMARK       I    between atoms: C_8  and  N_10 
REMARK    5  A    between atoms: N_10  and  C_11 
REMARK    6  A    between atoms: C_14  and  N_18 
ROOT
HETATM    1  C   UNL     1     -41.055 -52.216  12.329  1.00  0.00     0.051 A 
HETATM    2  C   UNL     1     -42.216 -52.947  12.525  1.00  0.00     0.035 A 
HETATM    3  C   UNL     1     -42.300 -53.862  13.573  1.00  0.00     0.051 A 
HETATM    4  C   UNL     1     -41.228 -54.062  14.435  1.00  0.00     0.103 A 
HETATM    5  N   UNL     1     -40.052 -53.438  14.191  1.00  0.00    -0.350 N 
ATOM      6  HN  UNL     1     -39.231 -53.629  14.765  1.00  0.00     0.166 HD
HETATM    7  C   UNL     1     -39.990 -52.545  13.155  1.00  0.00     0.119 A 
ENDROOT
BRANCH   1   8
HETATM    8  N   UNL     1     -40.953 -51.192  11.352  1.00  0.00    -0.308 N 
HETATM    9  C   UNL     1     -40.992 -49.847  11.651  1.00  0.00     0.320 C 
HETATM   10  N   UNL     1     -40.980 -49.031  10.543  1.00  0.00    -0.340 N 
HETATM   11  O   UNL     1     -41.066 -49.371  12.780  1.00  0.00    -0.247 OA
HETATM   12  H   UNL     1     -40.522 -49.354   9.703  1.00  0.00     0.164 HD
HETATM   13  H   UNL     1     -40.636 -51.449  10.428  1.00  0.00     0.170 HD
BRANCH  10  14
HETATM   14  C   UNL     1     -40.960 -47.585  10.756  1.00  0.00     0.161 C 
BRANCH  14  15
HETATM   15  C   UNL     1     -42.220 -46.850  10.247  1.00  0.00     0.070 C 
HETATM   16  C   UNL     1     -42.976 -47.710   9.228  1.00  0.00     0.047 C 
BRANCH  15  17
HETATM   17  C   UNL     1     -43.101 -46.508  11.475  1.00  0.00     0.034 C 
HETATM   18  C   UNL     1     -42.351 -46.058  12.723  1.00  0.00     0.008 C 
ENDBRANCH  15  17
BRANCH  15  19
HETATM   19  O   UNL     1     -41.791 -45.643   9.605  1.00  0.00    -0.389 OA
HETATM   20  H   UNL     1     -42.341 -44.915   9.943  1.00  0.00     0.210 HD
ENDBRANCH  15  19
ENDBRANCH  14  15
ENDBRANCH  10  14
ENDBRANCH   1   8
BRANCH   4  21
HETATM   21  N   UNL     1     -41.357 -54.913  15.516  1.00  0.00    -0.363 N 
HETATM   22  C   UNL     1     -42.669 -55.416  15.950  1.00  0.00     0.150 C 
HETATM   23  C   UNL     1     -43.011 -54.911  17.359  1.00  0.00     0.187 C 
HETATM   24  O   UNL     1     -41.969 -55.217  18.296  1.00  0.00    -0.388 OA
HETATM   25  C   UNL     1     -40.748 -54.572  17.894  1.00  0.00     0.187 C 
HETATM   26  C   UNL     1     -40.284 -55.041  16.507  1.00  0.00     0.150 C 
ENDBRANCH   4  21
TORSDOF 6
ENDMDL
MODEL 7
REMARK VINA RESULT:      -5.5      3.151      3.904
REMARK  6 active torsions:
REMARK  status: ('A' for Active; 'I' for Inactive)
REMARK    1  A    between atoms: C_2  and  C_3 
REMARK    2  A    between atoms: C_3  and  O_5 
REMARK    3  A    between atoms: C_3  and  C_6 
REMARK    4  A    between atoms: C_6  and  N_7 
REMARK       I    between atoms: N_7  and  C_8 
REMARK       I    between atoms: C_8  and  N_10 
REMARK    5  A    between atoms: N_10  and  C_11 
REMARK    6  A    between atoms: C_14  and  N_18 
ROOT
HETATM    1  C   UNL     1     -40.571 -49.097  11.377  1.00  0.00     0.051 A 
HETATM    2  C   UNL     1     -39.340 -49.672  11.653  1.00  0.00     0.035 A 
HETATM    3  C   UNL     1     -39.272 -50.912  12.284  1.00  0.00     0.051 A 
HETATM    4  C   UNL     1     -40.428 -51.594  12.650  1.00  0.00     0.103 A 
HETATM    5  N   UNL     1     -41.632 -50.997  12.487  1.00  0.00    -0.350 N 
ATOM      6  HN  UNL     1     -42.485 -51.446  12.818  1.00  0.00     0.166 HD
HETATM    7  C   UNL     1     -41.677 -49.777  11.868  1.00  0.00     0.119 A 
ENDROOT
BRANCH   1   8
HETATM    8  N   UNL     1     -40.703 -47.893  10.638  1.00  0.00    -0.308 N 
HETATM    9  C   UNL     1     -40.204 -46.680  11.063  1.00  0.00     0.320 C 
HETATM   10  N   UNL     1     -40.534 -45.626  10.242  1.00  0.00    -0.340 N 
HETATM   11  O   UNL     1     -39.552 -46.498  12.086  1.00  0.00    -0.247 OA
HETATM   12  H   UNL     1     -40.684 -45.800   9.259  1.00  0.00     0.164 HD
HETATM   13  H   UNL     1     -40.992 -47.958   9.673  1.00  0.00     0.170 HD
BRANCH  10  14
HETATM   14  C   UNL     1     -40.003 -44.305  10.575  1.00  0.00     0.161 C 
BRANCH  14  15
HETATM   15  C   UNL     1     -41.029 -43.355  11.235  1.00  0.00     0.070 C 
HETATM   16  C   UNL     1     -42.358 -44.078  11.482  1.00  0.00     0.047 C 
BRANCH  15  17
HETATM   17  C   UNL     1     -40.410 -42.826  12.553  1.00  0.00     0.034 C 
HETATM   18  C   UNL     1     -40.197 -41.319  12.626  1.00  0.00     0.008 C 
ENDBRANCH  15  17
BRANCH  15  19
HETATM   19  O   UNL     1     -41.257 -42.265  10.332  1.00  0.00    -0.389 OA
HETATM   20  H   UNL     1     -41.481 -42.641   9.464  1.00  0.00     0.210 HD
ENDBRANCH  15  19
ENDBRANCH  14  15
ENDBRANCH  10  14
ENDBRANCH   1   8
BRANCH   4  21
HETATM   21  N   UNL     1     -40.342 -52.858  13.200  1.00  0.00    -0.363 N 
HETATM   22  C   UNL     1     -41.352 -53.890  12.923  1.00  0.00     0.150 C 
HETATM   23  C   UNL     1     -42.101 -54.283  14.205  1.00  0.00     0.187 C 
HETATM   24  O   UNL     1     -41.195 -54.668  15.248  1.00  0.00    -0.388 OA
HETATM   25  C   UNL     1     -40.332 -53.565  15.575  1.00  0.00     0.187 C 
HETATM   26  C   UNL     1     -39.495 -53.116  14.368  1.00  0.00     0.150 C 
ENDBRANCH   4  21
TORSDOF 6
ENDMDL
MODEL 8
REMARK VINA RESULT:      -5.4      2.976      8.211
REMARK  6 active torsions:
REMARK  status: ('A' for Active; 'I' for Inactive)
REMARK    1  A    between atoms: C_2  and  C_3 
REMARK    2  A    between atoms: C_3  and  O_5 
REMARK    3  A    between atoms: C_3  and  C_6 
REMARK    4  A    between atoms: C_6  and  N_7 
REMARK       I    between atoms: N_7  and  C_8 
REMARK       I    between atoms: C_8  and  N_10 
REMARK    5  A    between atoms: N_10  and  C_11 
REMARK    6  A    between atoms: C_14  and  N_18 
ROOT
HETATM    1  C   UNL     1     -40.290 -49.385  12.428  1.00  0.00     0.051 A 
HETATM    2  C   UNL     1     -39.849 -48.197  12.991  1.00  0.00     0.035 A 
HETATM    3  C   UNL     1     -40.046 -46.990  12.324  1.00  0.00     0.051 A 
HETATM    4  C   UNL     1     -40.680 -46.951  11.086  1.00  0.00     0.103 A 
HETATM    5  N   UNL     1     -41.016 -48.111  10.475  1.00  0.00    -0.350 N 
ATOM      6  HN  UNL     1     -41.411 -48.108   9.535  1.00  0.00     0.166 HD
HETATM    7  C   UNL     1     -40.812 -49.286  11.146  1.00  0.00     0.119 A 
ENDROOT
BRANCH   1   8
HETATM    8  N   UNL     1     -40.219 -50.626  13.111  1.00  0.00    -0.308 N 
HETATM    9  C   UNL     1     -41.264 -51.157  13.837  1.00  0.00     0.320 C 
HETATM   10  N   UNL     1     -40.945 -52.319  14.502  1.00  0.00    -0.340 N 
HETATM   11  O   UNL     1     -42.382 -50.661  13.941  1.00  0.00    -0.247 OA
HETATM   12  H   UNL     1     -40.232 -52.922  14.118  1.00  0.00     0.164 HD
HETATM   13  H   UNL     1     -39.450 -51.243  12.894  1.00  0.00     0.170 HD
BRANCH  10  14
HETATM   14  C   UNL     1     -42.003 -52.992  15.253  1.00  0.00     0.161 C 
BRANCH  14  15
HETATM   15  C   UNL     1     -42.606 -54.223  14.539  1.00  0.00     0.070 C 
HETATM   16  C   UNL     1     -42.664 -55.426  15.488  1.00  0.00     0.047 C 
BRANCH  15  17
HETATM   17  C   UNL     1     -44.013 -53.832  14.022  1.00  0.00     0.034 C 
HETATM   18  C   UNL     1     -44.117 -53.561  12.526  1.00  0.00     0.008 C 
ENDBRANCH  15  17
BRANCH  15  19
HETATM   19  O   UNL     1     -41.754 -54.547  13.434  1.00  0.00    -0.389 OA
HETATM   20  H   UNL     1     -41.808 -53.818  12.793  1.00  0.00     0.210 HD
ENDBRANCH  15  19
ENDBRANCH  14  15
ENDBRANCH  10  14
ENDBRANCH   1   8
BRANCH   4  21
HETATM   21  N   UNL     1     -40.938 -45.738  10.478  1.00  0.00    -0.363 N 
HETATM   22  C   UNL     1     -39.894 -44.714  10.324  1.00  0.00     0.150 C 
HETATM   23  C   UNL     1     -40.246 -43.450  11.123  1.00  0.00     0.187 C 
HETATM   24  O   UNL     1     -41.550 -42.959  10.785  1.00  0.00    -0.388 OA
HETATM   25  C   UNL     1     -42.541 -43.953  11.098  1.00  0.00     0.187 C 
HETATM   26  C   UNL     1     -42.312 -45.254  10.314  1.00  0.00     0.150 C 
ENDBRANCH   4  21
TORSDOF 6
ENDMDL
MODEL 9
REMARK VINA RESULT:      -5.3      2.851      3.544
REMARK  6 active torsions:
REMARK  status: ('A' for Active; 'I' for Inactive)
REMARK    1  A    between atoms: C_2  and  C_3 
REMARK    2  A    between atoms: C_3  and  O_5 
REMARK    3  A    between atoms: C_3  and  C_6 
REMARK    4  A    between atoms: C_6  and  N_7 
REMARK       I    between atoms: N_7  and  C_8 
REMARK       I    between atoms: C_8  and  N_10 
REMARK    5  A    between atoms: N_10  and  C_11 
REMARK    6  A    between atoms: C_14  and  N_18 
ROOT
HETATM    1  C   UNL     1     -41.537 -51.329  12.052  1.00  0.00     0.051 A 
HETATM    2  C   UNL     1     -42.802 -51.269  12.618  1.00  0.00     0.035 A 
HETATM    3  C   UNL     1     -43.244 -52.292  13.454  1.00  0.00     0.051 A 
HETATM    4  C   UNL     1     -42.436 -53.389  13.733  1.00  0.00     0.103 A 
HETATM    5  N   UNL     1     -41.245 -53.515  13.102  1.00  0.00    -0.350 N 
ATOM      6  HN  UNL     1     -40.672 -54.348  13.233  1.00  0.00     0.166 HD
HETATM    7  C   UNL     1     -40.830 -52.500  12.283  1.00  0.00     0.119 A 
ENDROOT
BRANCH   1   8
HETATM    8  N   UNL     1     -40.992 -50.265  11.288  1.00  0.00    -0.308 N 
HETATM    9  C   UNL     1     -40.777 -48.999  11.789  1.00  0.00     0.320 C 
HETATM   10  N   UNL     1     -40.337 -48.097  10.848  1.00  0.00    -0.340 N 
HETATM   11  O   UNL     1     -40.975 -48.650  12.949  1.00  0.00    -0.247 OA
HETATM   12  H   UNL     1     -39.800 -48.433  10.062  1.00  0.00     0.164 HD
HETATM   13  H   UNL     1     -40.555 -50.491  10.406  1.00  0.00     0.170 HD
BRANCH  10  14
HETATM   14  C   UNL     1     -40.024 -46.740  11.293  1.00  0.00     0.161 C 
BRANCH  14  15
HETATM   15  C   UNL     1     -40.870 -45.637  10.616  1.00  0.00     0.070 C 
HETATM   16  C   UNL     1     -42.190 -46.212  10.090  1.00  0.00     0.047 C 
BRANCH  15  17
HETATM   17  C   UNL     1     -41.108 -44.514  11.656  1.00  0.00     0.034 C 
HETATM   18  C   UNL     1     -40.437 -43.179  11.354  1.00  0.00     0.008 C 
ENDBRANCH  15  17
BRANCH  15  19
HETATM   19  O   UNL     1     -40.116 -45.125   9.511  1.00  0.00    -0.389 OA
HETATM   20  H   UNL     1     -40.134 -44.154   9.563  1.00  0.00     0.210 HD
ENDBRANCH  15  19
ENDBRANCH  14  15
ENDBRANCH  10  14
ENDBRANCH   1   8
BRANCH   4  21
HETATM   21  N   UNL     1     -42.859 -54.353  14.627  1.00  0.00    -0.363 N 
HETATM   22  C   UNL     1     -44.275 -54.493  14.998  1.00  0.00     0.150 C 
HETATM   23  C   UNL     1     -44.483 -54.197  16.490  1.00  0.00     0.187 C 
HETATM   24  O   UNL     1     -43.620 -54.996  17.311  1.00  0.00    -0.388 OA
HETATM   25  C   UNL     1     -42.246 -54.703  17.003  1.00  0.00     0.187 C 
HETATM   26  C   UNL     1     -41.913 -55.008  15.535  1.00  0.00     0.150 C 
ENDBRANCH   4  21
TORSDOF 6
ENDMDL
