MODEL 1
REMARK VINA RESULT:      -5.7      0.000      0.000
REMARK  8 active torsions:
REMARK  status: ('A' for Active; 'I' for Inactive)
REMARK    1  A    between atoms: O_2  and  C_3 
REMARK    2  A    between atoms: C_3  and  C_4 
REMARK    3  A    between atoms: C_4  and  O_5 
REMARK    4  A    between atoms: O_5  and  C_6 
REMARK    5  A    between atoms: C_12  and  N_13 
REMARK    6  A    between atoms: N_13  and  S_14 
REMARK    7  A    between atoms: S_14  and  C_17 
REMARK    8  A    between atoms: C_22  and  O_23 
ROOT
HETATM    1  N   UNL     1     -42.946 -53.509  12.216  1.00  0.00    -0.181 NA
HETATM    2  H   UNL     1     -42.839 -54.362  11.655  1.00  0.00     0.146 HD
ENDROOT
BRANCH   1   3
HETATM    3  C   UNL     1     -41.714 -53.203  12.912  1.00  0.00     0.073 A 
HETATM    4  C   UNL     1     -41.017 -51.991  12.773  1.00  0.00     0.164 A 
HETATM    5  N   UNL     1     -39.798 -51.770  13.323  1.00  0.00    -0.345 N 
HETATM    6  C   UNL     1     -39.233 -52.784  14.005  1.00  0.00     0.090 A 
ATOM      7  HN  UNL     1     -39.327 -50.871  13.223  1.00  0.00     0.167 HD
HETATM    8  C   UNL     1     -39.844 -54.006  14.211  1.00  0.00     0.019 A 
HETATM    9  C   UNL     1     -41.105 -54.213  13.655  1.00  0.00     0.030 A 
BRANCH   4  10
HETATM   10  O   UNL     1     -41.643 -50.934  12.128  1.00  0.00    -0.332 OA
BRANCH  10  11
HETATM   11  C   UNL     1     -40.710 -50.084  11.438  1.00  0.00     0.203 C 
BRANCH  11  12
HETATM   12  C   UNL     1     -41.380 -48.761  11.067  1.00  0.00     0.193 C 
BRANCH  12  13
HETATM   13  O   UNL     1     -42.699 -48.717  11.621  1.00  0.00    -0.394 OA
HETATM   14  C   UNL     1     -43.489 -47.699  11.019  1.00  0.00     0.201 C 
ENDBRANCH  12  13
ENDBRANCH  11  12
ENDBRANCH  10  11
ENDBRANCH   4  10
ENDBRANCH   1   3
BRANCH   1  15
HETATM   15  S   UNL     1     -44.287 -53.790  13.241  1.00  0.00     0.220 S 
HETATM   16  O   UNL     1     -45.436 -53.599  12.375  1.00  0.00    -0.211 OA
HETATM   17  O   UNL     1     -44.106 -55.039  13.943  1.00  0.00    -0.211 OA
BRANCH  15  18
HETATM   18  C   UNL     1     -44.240 -52.410  14.420  1.00  0.00     0.153 C 
HETATM   19  C   UNL     1     -44.781 -52.764  15.814  1.00  0.00     0.024 C 
HETATM   20  C   UNL     1     -46.305 -52.903  15.873  1.00  0.00     0.002 C 
HETATM   21  C   UNL     1     -47.023 -51.677  15.313  1.00  0.00     0.002 C 
HETATM   22  C   UNL     1     -46.517 -51.293  13.927  1.00  0.00     0.033 C 
HETATM   23  C   UNL     1     -44.994 -51.167  13.902  1.00  0.00     0.138 C 
BRANCH  23  24
HETATM   24  O   UNL     1     -44.543 -50.706  12.638  1.00  0.00    -0.394 OA
HETATM   25  H   UNL     1     -44.876 -51.299  11.938  1.00  0.00     0.210 HD
ENDBRANCH  23  24
ENDBRANCH  15  18
ENDBRANCH   1  15
TORSDOF 8
ENDMDL
MODEL 2
REMARK VINA RESULT:      -5.6      2.028      4.177
REMARK  8 active torsions:
REMARK  status: ('A' for Active; 'I' for Inactive)
REMARK    1  A    between atoms: O_2  and  C_3 
REMARK    2  A    between atoms: C_3  and  C_4 
REMARK    3  A    between atoms: C_4  and  O_5 
REMARK    4  A    between atoms: O_5  and  C_6 
REMARK    5  A    between atoms: C_12  and  N_13 
REMARK    6  A    between atoms: N_13  and  S_14 
REMARK    7  A    between atoms: S_14  and  C_17 
REMARK    8  A    between atoms: C_22  and  O_23 
ROOT
HETATM    1  N   UNL     1     -42.596 -52.777  11.773  1.00  0.00    -0.181 NA
HETATM    2  H   UNL     1     -42.239 -53.697  11.489  1.00  0.00     0.146 HD
ENDROOT
BRANCH   1   3
HETATM    3  C   UNL     1     -41.508 -51.923  12.202  1.00  0.00     0.073 A 
HETATM    4  C   UNL     1     -40.379 -52.386  12.899  1.00  0.00     0.164 A 
HETATM    5  N   UNL     1     -39.436 -51.559  13.413  1.00  0.00    -0.345 N 
HETATM    6  C   UNL     1     -39.626 -50.235  13.264  1.00  0.00     0.090 A 
ATOM      7  HN  UNL     1     -38.615 -51.926  13.894  1.00  0.00     0.167 HD
HETATM    8  C   UNL     1     -40.694 -49.683  12.582  1.00  0.00     0.019 A 
HETATM    9  C   UNL     1     -41.646 -50.546  12.043  1.00  0.00     0.030 A 
BRANCH   4  10
HETATM   10  O   UNL     1     -40.163 -53.754  12.982  1.00  0.00    -0.332 OA
BRANCH  10  11
HETATM   11  C   UNL     1     -39.143 -54.090  13.939  1.00  0.00     0.203 C 
BRANCH  11  12
HETATM   12  C   UNL     1     -39.758 -54.832  15.125  1.00  0.00     0.193 C 
BRANCH  12  13
HETATM   13  O   UNL     1     -38.867 -55.863  15.562  1.00  0.00    -0.394 OA
HETATM   14  C   UNL     1     -39.183 -56.310  16.874  1.00  0.00     0.201 C 
ENDBRANCH  12  13
ENDBRANCH  11  12
ENDBRANCH  10  11
ENDBRANCH   4  10
ENDBRANCH   1   3
BRANCH   1  15
HETATM   15  S   UNL     1     -43.774 -53.083  12.975  1.00  0.00     0.220 S 
HETATM   16  O   UNL     1     -44.574 -54.158  12.417  1.00  0.00    -0.211 OA
HETATM   17  O   UNL     1     -43.127 -53.249  14.255  1.00  0.00    -0.211 OA
BRANCH  15  18
HETATM   18  C   UNL     1     -44.792 -51.580  12.990  1.00  0.00     0.153 C 
HETATM   19  C   UNL     1     -44.544 -50.673  14.206  1.00  0.00     0.024 C 
HETATM   20  C   UNL     1     -45.129 -51.211  15.514  1.00  0.00     0.002 C 
HETATM   21  C   UNL     1     -46.613 -51.551  15.391  1.00  0.00     0.002 C 
HETATM   22  C   UNL     1     -46.903 -52.454  14.196  1.00  0.00     0.033 C 
HETATM   23  C   UNL     1     -46.302 -51.890  12.909  1.00  0.00     0.138 C 
BRANCH  23  24
HETATM   24  O   UNL     1     -46.667 -52.680  11.789  1.00  0.00    -0.394 OA
HETATM   25  H   UNL     1     -46.718 -53.618  12.055  1.00  0.00     0.210 HD
ENDBRANCH  23  24
ENDBRANCH  15  18
ENDBRANCH   1  15
TORSDOF 8
ENDMDL
MODEL 3
REMARK VINA RESULT:      -5.5      1.232      1.637
REMARK  8 active torsions:
REMARK  status: ('A' for Active; 'I' for Inactive)
REMARK    1  A    between atoms: O_2  and  C_3 
REMARK    2  A    between atoms: C_3  and  C_4 
REMARK    3  A    between atoms: C_4  and  O_5 
REMARK    4  A    between atoms: O_5  and  C_6 
REMARK    5  A    between atoms: C_12  and  N_13 
REMARK    6  A    between atoms: N_13  and  S_14 
REMARK    7  A    between atoms: S_14  and  C_17 
REMARK    8  A    between atoms: C_22  and  O_23 
ROOT
HETATM    1  N   UNL     1     -42.870 -54.123  12.766  1.00  0.00    -0.181 NA
HETATM    2  H   UNL     1     -42.751 -55.085  12.428  1.00  0.00     0.146 HD
ENDROOT
BRANCH   1   3
HETATM    3  C   UNL     1     -41.696 -53.695  13.497  1.00  0.00     0.073 A 
HETATM    4  C   UNL     1     -40.901 -52.598  13.128  1.00  0.00     0.164 A 
HETATM    5  N   UNL     1     -39.731 -52.290  13.741  1.00  0.00    -0.345 N 
HETATM    6  C   UNL     1     -39.317 -53.106  14.728  1.00  0.00     0.090 A 
ATOM      7  HN  UNL     1     -39.187 -51.473  13.464  1.00  0.00     0.167 HD
HETATM    8  C   UNL     1     -40.035 -54.199  15.175  1.00  0.00     0.019 A 
HETATM    9  C   UNL     1     -41.244 -54.493  14.547  1.00  0.00     0.030 A 
BRANCH   4  10
HETATM   10  O   UNL     1     -41.377 -51.728  12.157  1.00  0.00    -0.332 OA
BRANCH  10  11
HETATM   11  C   UNL     1     -41.007 -50.362  12.416  1.00  0.00     0.203 C 
BRANCH  11  12
HETATM   12  C   UNL     1     -40.301 -49.769  11.198  1.00  0.00     0.193 C 
BRANCH  12  13
HETATM   13  O   UNL     1     -39.122 -49.073  11.616  1.00  0.00    -0.394 OA
HETATM   14  C   UNL     1     -37.972 -49.908  11.566  1.00  0.00     0.201 C 
ENDBRANCH  12  13
ENDBRANCH  11  12
ENDBRANCH  10  11
ENDBRANCH   4  10
ENDBRANCH   1   3
BRANCH   1  15
HETATM   15  S   UNL     1     -44.314 -54.125  13.683  1.00  0.00     0.220 S 
HETATM   16  O   UNL     1     -45.362 -53.980  12.688  1.00  0.00    -0.211 OA
HETATM   17  O   UNL     1     -44.317 -55.257  14.579  1.00  0.00    -0.211 OA
BRANCH  15  18
HETATM   18  C   UNL     1     -44.234 -52.584  14.638  1.00  0.00     0.153 C 
HETATM   19  C   UNL     1     -44.883 -52.679  16.028  1.00  0.00     0.024 C 
HETATM   20  C   UNL     1     -46.414 -52.707  16.000  1.00  0.00     0.002 C 
HETATM   21  C   UNL     1     -47.002 -51.540  15.210  1.00  0.00     0.002 C 
HETATM   22  C   UNL     1     -46.387 -51.411  13.821  1.00  0.00     0.033 C 
HETATM   23  C   UNL     1     -44.859 -51.390  13.886  1.00  0.00     0.138 C 
BRANCH  23  24
HETATM   24  O   UNL     1     -44.300 -51.163  12.602  1.00  0.00    -0.394 OA
HETATM   25  H   UNL     1     -44.407 -50.223  12.362  1.00  0.00     0.210 HD
ENDBRANCH  23  24
ENDBRANCH  15  18
ENDBRANCH   1  15
TORSDOF 8
ENDMDL
MODEL 4
REMARK VINA RESULT:      -5.5      2.058      3.164
REMARK  8 active torsions:
REMARK  status: ('A' for Active; 'I' for Inactive)
REMARK    1  A    between atoms: O_2  and  C_3 
REMARK    2  A    between atoms: C_3  and  C_4 
REMARK    3  A    between atoms: C_4  and  O_5 
REMARK    4  A    between atoms: O_5  and  C_6 
REMARK    5  A    between atoms: C_12  and  N_13 
REMARK    6  A    between atoms: N_13  and  S_14 
REMARK    7  A    between atoms: S_14  and  C_17 
REMARK    8  A    between atoms: C_22  and  O_23 
ROOT
HETATM    1  N   UNL     1     -42.496 -51.441  12.017  1.00  0.00    -0.181 NA
HETATM    2  H   UNL     1     -42.258 -52.426  11.851  1.00  0.00     0.146 HD
ENDROOT
BRANCH   1   3
HETATM    3  C   UNL     1     -41.297 -50.628  12.042  1.00  0.00     0.073 A 
HETATM    4  C   UNL     1     -41.227 -49.323  11.527  1.00  0.00     0.164 A 
HETATM    5  N   UNL     1     -40.068 -48.625  11.434  1.00  0.00    -0.345 N 
HETATM    6  C   UNL     1     -38.940 -49.242  11.830  1.00  0.00     0.090 A 
ATOM      7  HN  UNL     1     -40.053 -47.670  11.077  1.00  0.00     0.167 HD
HETATM    8  C   UNL     1     -38.908 -50.517  12.364  1.00  0.00     0.019 A 
HETATM    9  C   UNL     1     -40.109 -51.216  12.471  1.00  0.00     0.030 A 
BRANCH   4  10
HETATM   10  O   UNL     1     -42.407 -48.676  11.190  1.00  0.00    -0.332 OA
BRANCH  10  11
HETATM   11  C   UNL     1     -42.303 -47.958   9.948  1.00  0.00     0.203 C 
BRANCH  11  12
HETATM   12  C   UNL     1     -43.548 -47.100   9.730  1.00  0.00     0.193 C 
BRANCH  12  13
HETATM   13  O   UNL     1     -43.695 -46.811   8.336  1.00  0.00    -0.394 OA
HETATM   14  C   UNL     1     -43.439 -47.955   7.531  1.00  0.00     0.201 C 
ENDBRANCH  12  13
ENDBRANCH  11  12
ENDBRANCH  10  11
ENDBRANCH   4  10
ENDBRANCH   1   3
BRANCH   1  15
HETATM   15  S   UNL     1     -43.396 -51.417  13.471  1.00  0.00     0.220 S 
HETATM   16  O   UNL     1     -42.793 -52.465  14.275  1.00  0.00    -0.211 OA
HETATM   17  O   UNL     1     -43.467 -50.066  13.975  1.00  0.00    -0.211 OA
BRANCH  15  18
HETATM   18  C   UNL     1     -45.051 -51.976  12.977  1.00  0.00     0.153 C 
HETATM   19  C   UNL     1     -46.188 -51.380  13.822  1.00  0.00     0.024 C 
HETATM   20  C   UNL     1     -46.293 -51.970  15.230  1.00  0.00     0.002 C 
HETATM   21  C   UNL     1     -46.377 -53.495  15.216  1.00  0.00     0.002 C 
HETATM   22  C   UNL     1     -45.263 -54.130  14.390  1.00  0.00     0.033 C 
HETATM   23  C   UNL     1     -45.184 -53.514  12.993  1.00  0.00     0.138 C 
BRANCH  23  24
HETATM   24  O   UNL     1     -44.217 -54.182  12.198  1.00  0.00    -0.394 OA
HETATM   25  H   UNL     1     -43.330 -53.822  12.392  1.00  0.00     0.210 HD
ENDBRANCH  23  24
ENDBRANCH  15  18
ENDBRANCH   1  15
TORSDOF 8
ENDMDL
MODEL 5
REMARK VINA RESULT:      -5.2      2.459      3.092
REMARK  8 active torsions:
REMARK  status: ('A' for Active; 'I' for Inactive)
REMARK    1  A    between atoms: O_2  and  C_3 
REMARK    2  A    between atoms: C_3  and  C_4 
REMARK    3  A    between atoms: C_4  and  O_5 
REMARK    4  A    between atoms: O_5  and  C_6 
REMARK    5  A    between atoms: C_12  and  N_13 
REMARK    6  A    between atoms: N_13  and  S_14 
REMARK    7  A    between atoms: S_14  and  C_17 
REMARK    8  A    between atoms: C_22  and  O_23 
ROOT
HETATM    1  N   UNL     1     -40.776 -50.788  14.025  1.00  0.00    -0.181 NA
HETATM    2  H   UNL     1     -41.596 -50.239  13.741  1.00  0.00     0.146 HD
ENDROOT
BRANCH   1   3
HETATM    3  C   UNL     1     -39.668 -50.544  13.125  1.00  0.00     0.073 A 
HETATM    4  C   UNL     1     -39.821 -50.129  11.792  1.00  0.00     0.164 A 
HETATM    5  N   UNL     1     -38.784 -50.035  10.922  1.00  0.00    -0.345 N 
HETATM    6  C   UNL     1     -37.566 -50.390  11.371  1.00  0.00     0.090 A 
ATOM      7  HN  UNL     1     -38.923 -49.710   9.966  1.00  0.00     0.167 HD
HETATM    8  C   UNL     1     -37.311 -50.793  12.667  1.00  0.00     0.019 A 
HETATM    9  C   UNL     1     -38.383 -50.868  13.555  1.00  0.00     0.030 A 
BRANCH   4  10
HETATM   10  O   UNL     1     -41.070 -49.701  11.367  1.00  0.00    -0.332 OA
BRANCH  10  11
HETATM   11  C   UNL     1     -41.085 -48.302  11.034  1.00  0.00     0.203 C 
BRANCH  11  12
HETATM   12  C   UNL     1     -42.510 -47.853  10.714  1.00  0.00     0.193 C 
BRANCH  12  13
HETATM   13  O   UNL     1     -42.727 -47.910   9.301  1.00  0.00    -0.394 OA
HETATM   14  C   UNL     1     -43.997 -47.381   8.941  1.00  0.00     0.201 C 
ENDBRANCH  12  13
ENDBRANCH  11  12
ENDBRANCH  10  11
ENDBRANCH   4  10
ENDBRANCH   1   3
BRANCH   1  15
HETATM   15  S   UNL     1     -41.299 -52.416  14.079  1.00  0.00     0.220 S 
HETATM   16  O   UNL     1     -41.229 -52.853  12.696  1.00  0.00    -0.211 OA
HETATM   17  O   UNL     1     -40.567 -53.125  15.102  1.00  0.00    -0.211 OA
BRANCH  15  18
HETATM   18  C   UNL     1     -43.050 -52.304  14.541  1.00  0.00     0.153 C 
HETATM   19  C   UNL     1     -43.571 -53.527  15.311  1.00  0.00     0.024 C 
HETATM   20  C   UNL     1     -43.769 -54.772  14.442  1.00  0.00     0.002 C 
HETATM   21  C   UNL     1     -44.644 -54.494  13.221  1.00  0.00     0.002 C 
HETATM   22  C   UNL     1     -44.160 -53.287  12.424  1.00  0.00     0.033 C 
HETATM   23  C   UNL     1     -43.968 -52.065  13.323  1.00  0.00     0.138 C 
BRANCH  23  24
HETATM   24  O   UNL     1     -43.621 -50.921  12.558  1.00  0.00    -0.394 OA
HETATM   25  H   UNL     1     -42.875 -51.140  11.966  1.00  0.00     0.210 HD
ENDBRANCH  23  24
ENDBRANCH  15  18
ENDBRANCH   1  15
TORSDOF 8
ENDMDL
MODEL 6
REMARK VINA RESULT:      -5.1      2.261      5.128
REMARK  8 active torsions:
REMARK  status: ('A' for Active; 'I' for Inactive)
REMARK    1  A    between atoms: O_2  and  C_3 
REMARK    2  A    between atoms: C_3  and  C_4 
REMARK    3  A    between atoms: C_4  and  O_5 
REMARK    4  A    between atoms: O_5  and  C_6 
REMARK    5  A    between atoms: C_12  and  N_13 
REMARK    6  A    between atoms: N_13  and  S_14 
REMARK    7  A    between atoms: S_14  and  C_17 
REMARK    8  A    between atoms: C_22  and  O_23 
ROOT
HETATM    1  N   UNL     1     -40.125 -53.310  12.697  1.00  0.00    -0.181 NA
HETATM    2  H   UNL     1     -40.983 -53.234  12.139  1.00  0.00     0.146 HD
ENDROOT
BRANCH   1   3
HETATM    3  C   UNL     1     -40.344 -54.157  13.850  1.00  0.00     0.073 A 
HETATM    4  C   UNL     1     -41.613 -54.439  14.383  1.00  0.00     0.164 A 
HETATM    5  N   UNL     1     -41.796 -55.121  15.541  1.00  0.00    -0.345 N 
HETATM    6  C   UNL     1     -40.695 -55.511  16.209  1.00  0.00     0.090 A 
ATOM      7  HN  UNL     1     -42.731 -55.330  15.891  1.00  0.00     0.167 HD
HETATM    8  C   UNL     1     -39.406 -55.297  15.760  1.00  0.00     0.019 A 
HETATM    9  C   UNL     1     -39.233 -54.610  14.560  1.00  0.00     0.030 A 
BRANCH   4  10
HETATM   10  O   UNL     1     -42.736 -54.093  13.646  1.00  0.00    -0.332 OA
BRANCH  10  11
HETATM   11  C   UNL     1     -43.954 -54.255  14.395  1.00  0.00     0.203 C 
BRANCH  11  12
HETATM   12  C   UNL     1     -45.118 -54.550  13.449  1.00  0.00     0.193 C 
BRANCH  12  13
HETATM   13  O   UNL     1     -45.174 -53.548  12.428  1.00  0.00    -0.394 OA
HETATM   14  C   UNL     1     -46.070 -52.498  12.770  1.00  0.00     0.201 C 
ENDBRANCH  12  13
ENDBRANCH  11  12
ENDBRANCH  10  11
ENDBRANCH   4  10
ENDBRANCH   1   3
BRANCH   1  15
HETATM   15  S   UNL     1     -39.668 -51.705  13.073  1.00  0.00     0.220 S 
HETATM   16  O   UNL     1     -40.323 -51.443  14.342  1.00  0.00    -0.211 OA
HETATM   17  O   UNL     1     -38.236 -51.569  12.954  1.00  0.00    -0.211 OA
BRANCH  15  18
HETATM   18  C   UNL     1     -40.489 -50.701  11.803  1.00  0.00     0.153 C 
HETATM   19  C   UNL     1     -39.784 -49.366  11.513  1.00  0.00     0.024 C 
HETATM   20  C   UNL     1     -39.964 -48.316  12.613  1.00  0.00     0.002 C 
HETATM   21  C   UNL     1     -41.433 -48.084  12.960  1.00  0.00     0.002 C 
HETATM   22  C   UNL     1     -42.171 -49.385  13.258  1.00  0.00     0.033 C 
HETATM   23  C   UNL     1     -41.966 -50.412  12.144  1.00  0.00     0.138 C 
BRANCH  23  24
HETATM   24  O   UNL     1     -42.741 -51.577  12.380  1.00  0.00    -0.394 OA
HETATM   25  H   UNL     1     -43.054 -51.937  11.528  1.00  0.00     0.210 HD
ENDBRANCH  23  24
ENDBRANCH  15  18
ENDBRANCH   1  15
TORSDOF 8
ENDMDL
MODEL 7
REMARK VINA RESULT:      -5.1      2.023      4.437
REMARK  8 active torsions:
REMARK  status: ('A' for Active; 'I' for Inactive)
REMARK    1  A    between atoms: O_2  and  C_3 
REMARK    2  A    between atoms: C_3  and  C_4 
REMARK    3  A    between atoms: C_4  and  O_5 
REMARK    4  A    between atoms: O_5  and  C_6 
REMARK    5  A    between atoms: C_12  and  N_13 
REMARK    6  A    between atoms: N_13  and  S_14 
REMARK    7  A    between atoms: S_14  and  C_17 
REMARK    8  A    between atoms: C_22  and  O_23 
ROOT
HETATM    1  N   UNL     1     -42.472 -51.677  11.987  1.00  0.00    -0.181 NA
HETATM    2  H   UNL     1     -42.307 -52.686  11.889  1.00  0.00     0.146 HD
ENDROOT
BRANCH   1   3
HETATM    3  C   UNL     1     -41.214 -50.961  12.024  1.00  0.00     0.073 A 
HETATM    4  C   UNL     1     -40.027 -51.493  12.555  1.00  0.00     0.164 A 
HETATM    5  N   UNL     1     -38.892 -50.765  12.707  1.00  0.00    -0.345 N 
HETATM    6  C   UNL     1     -38.938 -49.467  12.355  1.00  0.00     0.090 A 
ATOM      7  HN  UNL     1     -38.039 -51.186  13.075  1.00  0.00     0.167 HD
HETATM    8  C   UNL     1     -40.051 -48.857  11.809  1.00  0.00     0.019 A 
HETATM    9  C   UNL     1     -41.204 -49.621  11.641  1.00  0.00     0.030 A 
BRANCH   4  10
HETATM   10  O   UNL     1     -39.976 -52.848  12.847  1.00  0.00    -0.332 OA
BRANCH  10  11
HETATM   11  C   UNL     1     -39.352 -53.112  14.115  1.00  0.00     0.203 C 
BRANCH  11  12
HETATM   12  C   UNL     1     -39.190 -54.619  14.318  1.00  0.00     0.193 C 
BRANCH  12  13
HETATM   13  O   UNL     1     -39.281 -54.929  15.712  1.00  0.00    -0.394 OA
HETATM   14  C   UNL     1     -38.148 -55.660  16.164  1.00  0.00     0.201 C 
ENDBRANCH  12  13
ENDBRANCH  11  12
ENDBRANCH  10  11
ENDBRANCH   4  10
ENDBRANCH   1   3
BRANCH   1  15
HETATM   15  S   UNL     1     -43.433 -51.495  13.390  1.00  0.00     0.220 S 
HETATM   16  O   UNL     1     -42.902 -52.485  14.310  1.00  0.00    -0.211 OA
HETATM   17  O   UNL     1     -43.476 -50.102  13.769  1.00  0.00    -0.211 OA
BRANCH  15  18
HETATM   18  C   UNL     1     -45.083 -52.043  12.871  1.00  0.00     0.153 C 
HETATM   19  C   UNL     1     -46.232 -51.383  13.650  1.00  0.00     0.024 C 
HETATM   20  C   UNL     1     -46.392 -51.902  15.082  1.00  0.00     0.002 C 
HETATM   21  C   UNL     1     -46.509 -53.424  15.139  1.00  0.00     0.002 C 
HETATM   22  C   UNL     1     -45.385 -54.120  14.379  1.00  0.00     0.033 C 
HETATM   23  C   UNL     1     -45.250 -53.575  12.957  1.00  0.00     0.138 C 
BRANCH  23  24
HETATM   24  O   UNL     1     -44.274 -54.301  12.226  1.00  0.00    -0.394 OA
HETATM   25  H   UNL     1     -44.719 -54.916  11.611  1.00  0.00     0.210 HD
ENDBRANCH  23  24
ENDBRANCH  15  18
ENDBRANCH   1  15
TORSDOF 8
ENDMDL
MODEL 8
REMARK VINA RESULT:      -5.1      1.787      2.314
REMARK  8 active torsions:
REMARK  status: ('A' for Active; 'I' for Inactive)
REMARK    1  A    between atoms: O_2  and  C_3 
REMARK    2  A    between atoms: C_3  and  C_4 
REMARK    3  A    between atoms: C_4  and  O_5 
REMARK    4  A    between atoms: O_5  and  C_6 
REMARK    5  A    between atoms: C_12  and  N_13 
REMARK    6  A    between atoms: N_13  and  S_14 
REMARK    7  A    between atoms: S_14  and  C_17 
REMARK    8  A    between atoms: C_22  and  O_23 
ROOT
HETATM    1  N   UNL     1     -41.959 -52.439  14.709  1.00  0.00    -0.181 NA
HETATM    2  H   UNL     1     -41.754 -51.741  13.984  1.00  0.00     0.146 HD
ENDROOT
BRANCH   1   3
HETATM    3  C   UNL     1     -40.826 -53.322  14.895  1.00  0.00     0.073 A 
HETATM    4  C   UNL     1     -39.816 -53.510  13.937  1.00  0.00     0.164 A 
HETATM    5  N   UNL     1     -38.836 -54.438  14.066  1.00  0.00    -0.345 N 
HETATM    6  C   UNL     1     -38.870 -55.227  15.157  1.00  0.00     0.090 A 
ATOM      7  HN  UNL     1     -38.103 -54.536  13.365  1.00  0.00     0.167 HD
HETATM    8  C   UNL     1     -39.812 -55.109  16.161  1.00  0.00     0.019 A 
HETATM    9  C   UNL     1     -40.803 -54.139  16.024  1.00  0.00     0.030 A 
BRANCH   4  10
HETATM   10  O   UNL     1     -39.754 -52.643  12.856  1.00  0.00    -0.332 OA
BRANCH  10  11
HETATM   11  C   UNL     1     -39.041 -51.432  13.164  1.00  0.00     0.203 C 
BRANCH  11  12
HETATM   12  C   UNL     1     -39.828 -50.219  12.670  1.00  0.00     0.193 C 
BRANCH  12  13
HETATM   13  O   UNL     1     -41.163 -50.613  12.340  1.00  0.00    -0.394 OA
HETATM   14  C   UNL     1     -41.979 -49.492  12.018  1.00  0.00     0.201 C 
ENDBRANCH  12  13
ENDBRANCH  11  12
ENDBRANCH  10  11
ENDBRANCH   4  10
ENDBRANCH   1   3
BRANCH   1  15
HETATM   15  S   UNL     1     -43.394 -53.224  14.210  1.00  0.00     0.220 S 
HETATM   16  O   UNL     1     -42.976 -54.036  13.082  1.00  0.00    -0.211 OA
HETATM   17  O   UNL     1     -44.031 -53.839  15.351  1.00  0.00    -0.211 OA
BRANCH  15  18
HETATM   18  C   UNL     1     -44.436 -51.880  13.574  1.00  0.00     0.153 C 
HETATM   19  C   UNL     1     -44.551 -50.678  14.525  1.00  0.00     0.024 C 
HETATM   20  C   UNL     1     -45.439 -50.933  15.746  1.00  0.00     0.002 C 
HETATM   21  C   UNL     1     -46.825 -51.447  15.360  1.00  0.00     0.002 C 
HETATM   22  C   UNL     1     -46.757 -52.644  14.417  1.00  0.00     0.033 C 
HETATM   23  C   UNL     1     -45.859 -52.357  13.214  1.00  0.00     0.138 C 
BRANCH  23  24
HETATM   24  O   UNL     1     -45.887 -53.435  12.291  1.00  0.00    -0.394 OA
HETATM   25  H   UNL     1     -45.051 -53.454  11.787  1.00  0.00     0.210 HD
ENDBRANCH  23  24
ENDBRANCH  15  18
ENDBRANCH   1  15
TORSDOF 8
ENDMDL
MODEL 9
REMARK VINA RESULT:      -5.0      1.692      2.515
REMARK  8 active torsions:
REMARK  status: ('A' for Active; 'I' for Inactive)
REMARK    1  A    between atoms: O_2  and  C_3 
REMARK    2  A    between atoms: C_3  and  C_4 
REMARK    3  A    between atoms: C_4  and  O_5 
REMARK    4  A    between atoms: O_5  and  C_6 
REMARK    5  A    between atoms: C_12  and  N_13 
REMARK    6  A    between atoms: N_13  and  S_14 
REMARK    7  A    between atoms: S_14  and  C_17 
REMARK    8  A    between atoms: C_22  and  O_23 
ROOT
HETATM    1  N   UNL     1     -43.583 -53.255  14.638  1.00  0.00    -0.181 NA
HETATM    2  H   UNL     1     -43.801 -52.444  14.046  1.00  0.00     0.146 HD
ENDROOT
BRANCH   1   3
HETATM    3  C   UNL     1     -42.193 -53.632  14.489  1.00  0.00     0.073 A 
HETATM    4  C   UNL     1     -41.481 -53.534  13.282  1.00  0.00     0.164 A 
HETATM    5  N   UNL     1     -40.224 -54.015  13.122  1.00  0.00    -0.345 N 
HETATM    6  C   UNL     1     -39.661 -54.638  14.175  1.00  0.00     0.090 A 
ATOM      7  HN  UNL     1     -39.724 -53.908  12.240  1.00  0.00     0.167 HD
HETATM    8  C   UNL     1     -40.273 -54.770  15.407  1.00  0.00     0.019 A 
HETATM    9  C   UNL     1     -41.559 -54.256  15.562  1.00  0.00     0.030 A 
BRANCH   4  10
HETATM   10  O   UNL     1     -42.047 -52.827  12.231  1.00  0.00    -0.332 OA
BRANCH  10  11
HETATM   11  C   UNL     1     -41.228 -51.722  11.810  1.00  0.00     0.203 C 
BRANCH  11  12
HETATM   12  C   UNL     1     -41.764 -50.416  12.393  1.00  0.00     0.193 C 
BRANCH  12  13
HETATM   13  O   UNL     1     -43.090 -50.620  12.891  1.00  0.00    -0.394 OA
HETATM   14  C   UNL     1     -43.400 -49.721  13.949  1.00  0.00     0.201 C 
ENDBRANCH  12  13
ENDBRANCH  11  12
ENDBRANCH  10  11
ENDBRANCH   4  10
ENDBRANCH   1   3
BRANCH   1  15
HETATM   15  S   UNL     1     -44.698 -54.472  14.190  1.00  0.00     0.220 S 
HETATM   16  O   UNL     1     -44.992 -54.185  12.798  1.00  0.00    -0.211 OA
HETATM   17  O   UNL     1     -44.182 -55.766  14.570  1.00  0.00    -0.211 OA
BRANCH  15  18
HETATM   18  C   UNL     1     -46.183 -54.093  15.164  1.00  0.00     0.153 C 
HETATM   19  C   UNL     1     -47.117 -53.068  14.501  1.00  0.00     0.024 C 
HETATM   20  C   UNL     1     -46.592 -51.631  14.542  1.00  0.00     0.002 C 
HETATM   21  C   UNL     1     -46.224 -51.187  15.957  1.00  0.00     0.002 C 
HETATM   22  C   UNL     1     -45.294 -52.176  16.651  1.00  0.00     0.033 C 
HETATM   23  C   UNL     1     -45.846 -53.601  16.587  1.00  0.00     0.138 C 
BRANCH  23  24
HETATM   24  O   UNL     1     -45.028 -54.495  17.326  1.00  0.00    -0.394 OA
HETATM   25  H   UNL     1     -45.568 -55.246  17.639  1.00  0.00     0.210 HD
ENDBRANCH  23  24
ENDBRANCH  15  18
ENDBRANCH   1  15
TORSDOF 8
ENDMDL
