MODEL 1
REMARK VINA RESULT:      -5.9      0.000      0.000
REMARK  4 active torsions:
REMARK  status: ('A' for Active; 'I' for Inactive)
REMARK    1  A    between atoms: C_2  and  C_5 
REMARK    2  A    between atoms: C_11  and  N_12 
REMARK    3  A    between atoms: N_12  and  C_13 
REMARK    4  A    between atoms: C_13  and  C_14 
ROOT
HETATM    1  C   UNL     1     -43.100 -54.114  13.699  1.00  0.00     0.086 A 
HETATM    2  C   UNL     1     -41.706 -53.972  13.822  1.00  0.00     0.021 A 
HETATM    3  C   UNL     1     -41.004 -53.184  12.923  1.00  0.00     0.018 A 
HETATM    4  C   UNL     1     -41.718 -52.572  11.921  1.00  0.00     0.089 A 
HETATM    5  N   UNL     1     -43.055 -52.700  11.771  1.00  0.00    -0.356 N 
ATOM      6  HN  UNL     1     -43.535 -52.232  11.002  1.00  0.00     0.166 HD
HETATM    7  C   UNL     1     -43.748 -53.457  12.654  1.00  0.00     0.095 A 
ENDROOT
BRANCH   7   8
HETATM    8  N   UNL     1     -45.124 -53.574  12.482  1.00  0.00    -0.276 NA
HETATM    9  H   UNL     1     -45.550 -54.226  13.140  1.00  0.00     0.129 HD
BRANCH   8  10
HETATM   10  C   UNL     1     -45.903 -52.336  12.341  1.00  0.00     0.125 C 
BRANCH  10  11
HETATM   11  C   UNL     1     -46.423 -51.758  13.662  1.00  0.00     0.134 C 
HETATM   12  C   UNL     1     -45.425 -51.028  14.550  1.00  0.00     0.035 C 
HETATM   13  C   UNL     1     -45.857 -51.363  15.965  1.00  0.00     0.029 C 
HETATM   14  C   UNL     1     -47.110 -52.194  15.798  1.00  0.00     0.168 C 
HETATM   15  O   UNL     1     -46.999 -52.781  14.498  1.00  0.00    -0.385 OA
ENDBRANCH  10  11
ENDBRANCH   8  10
ENDBRANCH   7   8
BRANCH   1  16
HETATM   16  C   UNL     1     -43.851 -55.004  14.643  1.00  0.00     0.420 C 
HETATM   17  F   UNL     1     -43.037 -55.904  15.279  1.00  0.00    -0.166 F 
HETATM   18  F   UNL     1     -44.809 -55.765  14.046  1.00  0.00    -0.166 F 
HETATM   19  F   UNL     1     -44.468 -54.322  15.649  1.00  0.00    -0.166 F 
ENDBRANCH   1  16
TORSDOF 4
ENDMDL
MODEL 2
REMARK VINA RESULT:      -5.7      3.400      5.562
REMARK  4 active torsions:
REMARK  status: ('A' for Active; 'I' for Inactive)
REMARK    1  A    between atoms: C_2  and  C_5 
REMARK    2  A    between atoms: C_11  and  N_12 
REMARK    3  A    between atoms: N_12  and  C_13 
REMARK    4  A    between atoms: C_13  and  C_14 
ROOT
HETATM    1  C   UNL     1     -41.946 -54.016  13.648  1.00  0.00     0.086 A 
HETATM    2  C   UNL     1     -43.076 -54.588  14.260  1.00  0.00     0.021 A 
HETATM    3  C   UNL     1     -44.335 -54.398  13.712  1.00  0.00     0.018 A 
HETATM    4  C   UNL     1     -44.425 -53.630  12.575  1.00  0.00     0.089 A 
HETATM    5  N   UNL     1     -43.359 -53.059  11.973  1.00  0.00    -0.356 N 
ATOM      6  HN  UNL     1     -43.482 -52.490  11.136  1.00  0.00     0.166 HD
HETATM    7  C   UNL     1     -42.125 -53.253  12.496  1.00  0.00     0.095 A 
ENDROOT
BRANCH   7   8
HETATM    8  N   UNL     1     -41.040 -52.656  11.859  1.00  0.00    -0.276 NA
HETATM    9  H   UNL     1     -40.874 -53.031  10.926  1.00  0.00     0.129 HD
BRANCH   8  10
HETATM   10  C   UNL     1     -40.950 -51.190  11.895  1.00  0.00     0.125 C 
BRANCH  10  11
HETATM   11  C   UNL     1     -39.602 -50.647  12.383  1.00  0.00     0.134 C 
HETATM   12  C   UNL     1     -38.944 -49.553  11.555  1.00  0.00     0.035 C 
HETATM   13  C   UNL     1     -37.457 -49.838  11.660  1.00  0.00     0.029 C 
HETATM   14  C   UNL     1     -37.358 -51.022  12.597  1.00  0.00     0.168 C 
HETATM   15  O   UNL     1     -38.616 -51.693  12.486  1.00  0.00    -0.385 OA
ENDBRANCH  10  11
ENDBRANCH   8  10
ENDBRANCH   7   8
BRANCH   1  16
HETATM   16  C   UNL     1     -40.591 -54.183  14.269  1.00  0.00     0.420 C 
HETATM   17  F   UNL     1     -40.595 -55.069  15.313  1.00  0.00    -0.166 F 
HETATM   18  F   UNL     1     -40.073 -53.036  14.790  1.00  0.00    -0.166 F 
HETATM   19  F   UNL     1     -39.659 -54.670  13.402  1.00  0.00    -0.166 F 
ENDBRANCH   1  16
TORSDOF 4
ENDMDL
MODEL 3
REMARK VINA RESULT:      -5.3      5.090      6.719
REMARK  4 active torsions:
REMARK  status: ('A' for Active; 'I' for Inactive)
REMARK    1  A    between atoms: C_2  and  C_5 
REMARK    2  A    between atoms: C_11  and  N_12 
REMARK    3  A    between atoms: N_12  and  C_13 
REMARK    4  A    between atoms: C_13  and  C_14 
ROOT
HETATM    1  C   UNL     1     -39.334 -49.153  11.963  1.00  0.00     0.086 A 
HETATM    2  C   UNL     1     -39.622 -47.788  11.787  1.00  0.00     0.021 A 
HETATM    3  C   UNL     1     -40.805 -47.398  11.178  1.00  0.00     0.018 A 
HETATM    4  C   UNL     1     -41.658 -48.388  10.753  1.00  0.00     0.089 A 
HETATM    5  N   UNL     1     -41.403 -49.707  10.898  1.00  0.00    -0.356 N 
ATOM      6  HN  UNL     1     -42.066 -50.402  10.556  1.00  0.00     0.166 HD
HETATM    7  C   UNL     1     -40.255 -50.093  11.505  1.00  0.00     0.095 A 
ENDROOT
BRANCH   7   8
HETATM    8  N   UNL     1     -40.012 -51.457  11.645  1.00  0.00    -0.276 NA
HETATM    9  H   UNL     1     -39.211 -51.656  12.243  1.00  0.00     0.129 HD
BRANCH   8  10
HETATM   10  C   UNL     1     -41.158 -52.328  11.941  1.00  0.00     0.125 C 
BRANCH  10  11
HETATM   11  C   UNL     1     -40.811 -53.582  12.752  1.00  0.00     0.134 C 
HETATM   12  C   UNL     1     -41.690 -53.908  13.950  1.00  0.00     0.035 C 
HETATM   13  C   UNL     1     -40.738 -54.500  14.973  1.00  0.00     0.029 C 
HETATM   14  C   UNL     1     -39.398 -54.543  14.270  1.00  0.00     0.168 C 
HETATM   15  O   UNL     1     -39.467 -53.522  13.269  1.00  0.00    -0.385 OA
ENDBRANCH  10  11
ENDBRANCH   8  10
ENDBRANCH   7   8
BRANCH   1  16
HETATM   16  C   UNL     1     -38.034 -49.573  12.578  1.00  0.00     0.420 C 
HETATM   17  F   UNL     1     -37.123 -50.000  11.648  1.00  0.00    -0.166 F 
HETATM   18  F   UNL     1     -38.142 -50.607  13.458  1.00  0.00    -0.166 F 
HETATM   19  F   UNL     1     -37.403 -48.563  13.244  1.00  0.00    -0.166 F 
ENDBRANCH   1  16
TORSDOF 4
ENDMDL
MODEL 4
REMARK VINA RESULT:      -5.2      5.576      6.689
REMARK  4 active torsions:
REMARK  status: ('A' for Active; 'I' for Inactive)
REMARK    1  A    between atoms: C_2  and  C_5 
REMARK    2  A    between atoms: C_11  and  N_12 
REMARK    3  A    between atoms: N_12  and  C_13 
REMARK    4  A    between atoms: C_13  and  C_14 
ROOT
HETATM    1  C   UNL     1     -39.546 -50.643  12.184  1.00  0.00     0.086 A 
HETATM    2  C   UNL     1     -39.669 -51.717  13.083  1.00  0.00     0.021 A 
HETATM    3  C   UNL     1     -40.898 -52.330  13.274  1.00  0.00     0.018 A 
HETATM    4  C   UNL     1     -41.970 -51.838  12.568  1.00  0.00     0.089 A 
HETATM    5  N   UNL     1     -41.885 -50.800  11.707  1.00  0.00    -0.356 N 
ATOM      6  HN  UNL     1     -42.714 -50.467  11.215  1.00  0.00     0.166 HD
HETATM    7  C   UNL     1     -40.683 -50.208  11.506  1.00  0.00     0.095 A 
ENDROOT
BRANCH   7   8
HETATM    8  N   UNL     1     -40.617 -49.140  10.614  1.00  0.00    -0.276 NA
HETATM    9  H   UNL     1     -40.981 -49.374   9.691  1.00  0.00     0.129 HD
BRANCH   8  10
HETATM   10  C   UNL     1     -41.087 -47.829  11.082  1.00  0.00     0.125 C 
BRANCH  10  11
HETATM   11  C   UNL     1     -42.270 -47.258  10.292  1.00  0.00     0.134 C 
HETATM   12  C   UNL     1     -43.626 -47.227  10.982  1.00  0.00     0.035 C 
HETATM   13  C   UNL     1     -44.625 -47.501   9.874  1.00  0.00     0.029 C 
HETATM   14  C   UNL     1     -43.787 -47.595   8.617  1.00  0.00     0.168 C 
HETATM   15  O   UNL     1     -42.483 -47.980   9.063  1.00  0.00    -0.385 OA
ENDBRANCH  10  11
ENDBRANCH   8  10
ENDBRANCH   7   8
BRANCH   1  16
HETATM   16  C   UNL     1     -38.227 -49.952  12.015  1.00  0.00     0.420 C 
HETATM   17  F   UNL     1     -37.233 -50.523  12.765  1.00  0.00    -0.166 F 
HETATM   18  F   UNL     1     -38.233 -48.642  12.387  1.00  0.00    -0.166 F 
HETATM   19  F   UNL     1     -37.761 -49.989  10.734  1.00  0.00    -0.166 F 
ENDBRANCH   1  16
TORSDOF 4
ENDMDL
MODEL 5
REMARK VINA RESULT:      -5.2      2.112      4.615
REMARK  4 active torsions:
REMARK  status: ('A' for Active; 'I' for Inactive)
REMARK    1  A    between atoms: C_2  and  C_5 
REMARK    2  A    between atoms: C_11  and  N_12 
REMARK    3  A    between atoms: N_12  and  C_13 
REMARK    4  A    between atoms: C_13  and  C_14 
ROOT
HETATM    1  C   UNL     1     -44.753 -53.177  14.309  1.00  0.00     0.086 A 
HETATM    2  C   UNL     1     -45.921 -52.659  14.896  1.00  0.00     0.021 A 
HETATM    3  C   UNL     1     -46.764 -51.837  14.162  1.00  0.00     0.018 A 
HETATM    4  C   UNL     1     -46.403 -51.551  12.867  1.00  0.00     0.089 A 
HETATM    5  N   UNL     1     -45.281 -52.024  12.281  1.00  0.00    -0.356 N 
ATOM      6  HN  UNL     1     -45.055 -51.772  11.320  1.00  0.00     0.166 HD
HETATM    7  C   UNL     1     -44.462 -52.838  12.989  1.00  0.00     0.095 A 
ENDROOT
BRANCH   7   8
HETATM    8  N   UNL     1     -43.312 -53.316  12.366  1.00  0.00    -0.276 NA
HETATM    9  H   UNL     1     -43.515 -53.885  11.545  1.00  0.00     0.129 HD
BRANCH   8  10
HETATM   10  C   UNL     1     -42.219 -52.363  12.128  1.00  0.00     0.125 C 
BRANCH  10  11
HETATM   11  C   UNL     1     -40.832 -52.871  12.538  1.00  0.00     0.134 C 
HETATM   12  C   UNL     1     -40.708 -54.336  12.930  1.00  0.00     0.035 C 
HETATM   13  C   UNL     1     -39.670 -54.349  14.036  1.00  0.00     0.029 C 
HETATM   14  C   UNL     1     -39.215 -52.910  14.152  1.00  0.00     0.168 C 
HETATM   15  O   UNL     1     -40.308 -52.131  13.658  1.00  0.00    -0.385 OA
ENDBRANCH  10  11
ENDBRANCH   8  10
ENDBRANCH   7   8
BRANCH   1  16
HETATM   16  C   UNL     1     -43.820 -54.026  15.119  1.00  0.00     0.420 C 
HETATM   17  F   UNL     1     -44.337 -54.358  16.343  1.00  0.00    -0.166 F 
HETATM   18  F   UNL     1     -42.626 -53.431  15.397  1.00  0.00    -0.166 F 
HETATM   19  F   UNL     1     -43.528 -55.220  14.528  1.00  0.00    -0.166 F 
ENDBRANCH   1  16
TORSDOF 4
ENDMDL
MODEL 6
REMARK VINA RESULT:      -5.1      2.014      4.423
REMARK  4 active torsions:
REMARK  status: ('A' for Active; 'I' for Inactive)
REMARK    1  A    between atoms: C_2  and  C_5 
REMARK    2  A    between atoms: C_11  and  N_12 
REMARK    3  A    between atoms: N_12  and  C_13 
REMARK    4  A    between atoms: C_13  and  C_14 
ROOT
HETATM    1  C   UNL     1     -45.500 -53.500  14.015  1.00  0.00     0.086 A 
HETATM    2  C   UNL     1     -46.554 -53.599  14.941  1.00  0.00     0.021 A 
HETATM    3  C   UNL     1     -47.194 -52.455  15.394  1.00  0.00     0.018 A 
HETATM    4  C   UNL     1     -46.750 -51.246  14.914  1.00  0.00     0.089 A 
HETATM    5  N   UNL     1     -45.733 -51.120  14.033  1.00  0.00    -0.356 N 
ATOM      6  HN  UNL     1     -45.436 -50.197  13.716  1.00  0.00     0.166 HD
HETATM    7  C   UNL     1     -45.114 -52.235  13.577  1.00  0.00     0.095 A 
ENDROOT
BRANCH   7   8
HETATM    8  N   UNL     1     -44.068 -52.082  12.670  1.00  0.00    -0.276 NA
HETATM    9  H   UNL     1     -44.392 -51.864  11.728  1.00  0.00     0.129 HD
BRANCH   8  10
HETATM   10  C   UNL     1     -42.929 -51.246  13.075  1.00  0.00     0.125 C 
BRANCH  10  11
HETATM   11  C   UNL     1     -41.659 -52.029  13.427  1.00  0.00     0.134 C 
HETATM   12  C   UNL     1     -41.226 -53.130  12.470  1.00  0.00     0.035 C 
HETATM   13  C   UNL     1     -40.640 -54.205  13.366  1.00  0.00     0.029 C 
HETATM   14  C   UNL     1     -40.706 -53.621  14.760  1.00  0.00     0.168 C 
HETATM   15  O   UNL     1     -41.769 -52.665  14.715  1.00  0.00    -0.385 OA
ENDBRANCH  10  11
ENDBRANCH   8  10
ENDBRANCH   7   8
BRANCH   1  16
HETATM   16  C   UNL     1     -44.778 -54.734  13.564  1.00  0.00     0.420 C 
HETATM   17  F   UNL     1     -45.582 -55.843  13.561  1.00  0.00    -0.166 F 
HETATM   18  F   UNL     1     -43.718 -55.076  14.348  1.00  0.00    -0.166 F 
HETATM   19  F   UNL     1     -44.304 -54.644  12.289  1.00  0.00    -0.166 F 
ENDBRANCH   1  16
TORSDOF 4
ENDMDL
MODEL 7
REMARK VINA RESULT:      -4.9      6.744      8.395
REMARK  4 active torsions:
REMARK  status: ('A' for Active; 'I' for Inactive)
REMARK    1  A    between atoms: C_2  and  C_5 
REMARK    2  A    between atoms: C_11  and  N_12 
REMARK    3  A    between atoms: N_12  and  C_13 
REMARK    4  A    between atoms: C_13  and  C_14 
ROOT
HETATM    1  C   UNL     1     -42.541 -46.468  10.224  1.00  0.00     0.086 A 
HETATM    2  C   UNL     1     -42.523 -45.093  10.523  1.00  0.00     0.021 A 
HETATM    3  C   UNL     1     -41.374 -44.506  11.031  1.00  0.00     0.018 A 
HETATM    4  C   UNL     1     -40.284 -45.316  11.237  1.00  0.00     0.089 A 
HETATM    5  N   UNL     1     -40.276 -46.641  10.970  1.00  0.00    -0.356 N 
ATOM      6  HN  UNL     1     -39.442 -47.199  11.151  1.00  0.00     0.166 HD
HETATM    7  C   UNL     1     -41.390 -47.217  10.460  1.00  0.00     0.095 A 
ENDROOT
BRANCH   7   8
HETATM    8  N   UNL     1     -41.361 -48.583  10.192  1.00  0.00    -0.276 NA
HETATM    9  H   UNL     1     -40.742 -48.820   9.418  1.00  0.00     0.129 HD
BRANCH   8  10
HETATM   10  C   UNL     1     -41.204 -49.499  11.331  1.00  0.00     0.125 C 
BRANCH  10  11
HETATM   11  C   UNL     1     -39.827 -50.165  11.426  1.00  0.00     0.134 C 
HETATM   12  C   UNL     1     -39.579 -51.100  12.601  1.00  0.00     0.035 C 
HETATM   13  C   UNL     1     -38.120 -50.886  12.957  1.00  0.00     0.029 C 
HETATM   14  C   UNL     1     -37.611 -49.906  11.922  1.00  0.00     0.168 C 
HETATM   15  O   UNL     1     -38.769 -49.188  11.486  1.00  0.00    -0.385 OA
ENDBRANCH  10  11
ENDBRANCH   8  10
ENDBRANCH   7   8
BRANCH   1  16
HETATM   16  C   UNL     1     -43.799 -47.109   9.720  1.00  0.00     0.420 C 
HETATM   17  F   UNL     1     -43.582 -47.904   8.625  1.00  0.00    -0.166 F 
HETATM   18  F   UNL     1     -44.754 -46.224   9.322  1.00  0.00    -0.166 F 
HETATM   19  F   UNL     1     -44.389 -47.930  10.635  1.00  0.00    -0.166 F 
ENDBRANCH   1  16
TORSDOF 4
ENDMDL
MODEL 8
REMARK VINA RESULT:      -4.9      7.145      8.053
REMARK  4 active torsions:
REMARK  status: ('A' for Active; 'I' for Inactive)
REMARK    1  A    between atoms: C_2  and  C_5 
REMARK    2  A    between atoms: C_11  and  N_12 
REMARK    3  A    between atoms: N_12  and  C_13 
REMARK    4  A    between atoms: C_13  and  C_14 
ROOT
HETATM    1  C   UNL     1     -38.270 -48.691  12.954  1.00  0.00     0.086 A 
HETATM    2  C   UNL     1     -37.603 -48.571  14.187  1.00  0.00     0.021 A 
HETATM    3  C   UNL     1     -37.862 -47.491  15.017  1.00  0.00     0.018 A 
HETATM    4  C   UNL     1     -38.772 -46.558  14.581  1.00  0.00     0.089 A 
HETATM    5  N   UNL     1     -39.419 -46.641  13.398  1.00  0.00    -0.356 N 
ATOM      6  HN  UNL     1     -40.078 -45.915  13.117  1.00  0.00     0.166 HD
HETATM    7  C   UNL     1     -39.180 -47.701  12.589  1.00  0.00     0.095 A 
ENDROOT
BRANCH   7   8
HETATM    8  N   UNL     1     -39.858 -47.767  11.375  1.00  0.00    -0.276 NA
HETATM    9  H   UNL     1     -40.510 -48.549  11.329  1.00  0.00     0.129 HD
BRANCH   8  10
HETATM   10  C   UNL     1     -40.441 -46.525  10.849  1.00  0.00     0.125 C 
BRANCH  10  11
HETATM   11  C   UNL     1     -41.928 -46.620  10.493  1.00  0.00     0.134 C 
HETATM   12  C   UNL     1     -42.432 -47.942   9.933  1.00  0.00     0.035 C 
HETATM   13  C   UNL     1     -43.494 -47.549   8.923  1.00  0.00     0.029 C 
HETATM   14  C   UNL     1     -43.581 -46.042   9.025  1.00  0.00     0.168 C 
HETATM   15  O   UNL     1     -42.305 -45.625   9.521  1.00  0.00    -0.385 OA
ENDBRANCH  10  11
ENDBRANCH   8  10
ENDBRANCH   7   8
BRANCH   1  16
HETATM   16  C   UNL     1     -37.954 -49.834  12.038  1.00  0.00     0.420 C 
HETATM   17  F   UNL     1     -39.074 -50.509  11.630  1.00  0.00    -0.166 F 
HETATM   18  F   UNL     1     -37.157 -50.789  12.594  1.00  0.00    -0.166 F 
HETATM   19  F   UNL     1     -37.343 -49.444  10.883  1.00  0.00    -0.166 F 
ENDBRANCH   1  16
TORSDOF 4
ENDMDL
MODEL 9
REMARK VINA RESULT:      -4.9      1.786      2.471
REMARK  4 active torsions:
REMARK  status: ('A' for Active; 'I' for Inactive)
REMARK    1  A    between atoms: C_2  and  C_5 
REMARK    2  A    between atoms: C_11  and  N_12 
REMARK    3  A    between atoms: N_12  and  C_13 
REMARK    4  A    between atoms: C_13  and  C_14 
ROOT
HETATM    1  C   UNL     1     -41.733 -54.632  14.948  1.00  0.00     0.086 A 
HETATM    2  C   UNL     1     -40.613 -54.975  15.726  1.00  0.00     0.021 A 
HETATM    3  C   UNL     1     -39.338 -54.888  15.187  1.00  0.00     0.018 A 
HETATM    4  C   UNL     1     -39.226 -54.474  13.881  1.00  0.00     0.089 A 
HETATM    5  N   UNL     1     -40.285 -54.150  13.107  1.00  0.00    -0.356 N 
ATOM      6  HN  UNL     1     -40.148 -53.858  12.140  1.00  0.00     0.166 HD
HETATM    7  C   UNL     1     -41.531 -54.219  13.633  1.00  0.00     0.095 A 
ENDROOT
BRANCH   7   8
HETATM    8  N   UNL     1     -42.609 -53.880  12.818  1.00  0.00    -0.276 NA
HETATM    9  H   UNL     1     -43.454 -54.402  13.045  1.00  0.00     0.129 HD
BRANCH   8  10
HETATM   10  C   UNL     1     -42.878 -52.452  12.601  1.00  0.00     0.125 C 
BRANCH  10  11
HETATM   11  C   UNL     1     -44.350 -52.052  12.748  1.00  0.00     0.134 C 
HETATM   12  C   UNL     1     -44.697 -51.032  13.822  1.00  0.00     0.035 C 
HETATM   13  C   UNL     1     -46.055 -51.469  14.339  1.00  0.00     0.029 C 
HETATM   14  C   UNL     1     -46.428 -52.658  13.481  1.00  0.00     0.168 C 
HETATM   15  O   UNL     1     -45.183 -53.195  13.024  1.00  0.00    -0.385 OA
ENDBRANCH  10  11
ENDBRANCH   8  10
ENDBRANCH   7   8
BRANCH   1  16
HETATM   16  C   UNL     1     -43.113 -54.772  15.518  1.00  0.00     0.420 C 
HETATM   17  F   UNL     1     -43.945 -55.504  14.713  1.00  0.00    -0.166 F 
HETATM   18  F   UNL     1     -43.761 -53.588  15.701  1.00  0.00    -0.166 F 
HETATM   19  F   UNL     1     -43.136 -55.416  16.720  1.00  0.00    -0.166 F 
ENDBRANCH   1  16
TORSDOF 4
ENDMDL
