MODEL 1
REMARK VINA RESULT:      -5.7      0.000      0.000
REMARK  4 active torsions:
REMARK  status: ('A' for Active; 'I' for Inactive)
REMARK    1  A    between atoms: C_2  and  C_3 
REMARK    2  A    between atoms: C_2  and  N_14 
REMARK    3  A    between atoms: C_3  and  N_4 
REMARK       I    between atoms: N_4  and  C_5 
REMARK       I    between atoms: C_5  and  N_7 
REMARK    4  A    between atoms: N_7  and  C_8 
ROOT
HETATM    1  N   UNL     1     -42.325 -51.766  12.098  1.00  0.00    -0.341 N 
HETATM    2  C   UNL     1     -40.984 -51.952  11.947  1.00  0.00     0.322 C 
HETATM    3  O   UNL     1     -40.432 -53.042  12.078  1.00  0.00    -0.247 OA
HETATM    4  N   UNL     1     -40.252 -50.854  11.595  1.00  0.00    -0.289 N 
HETATM    5  H   UNL     1     -42.680 -50.823  11.967  1.00  0.00     0.164 HD
HETATM    6  H   UNL     1     -39.268 -51.010  11.428  1.00  0.00     0.172 HD
ENDROOT
BRANCH   1   7
HETATM    7  C   UNL     1     -43.270 -52.826  12.366  1.00  0.00     0.159 C 
BRANCH   7   8
HETATM    8  C   UNL     1     -43.511 -53.083  13.881  1.00  0.00     0.236 C 
HETATM    9  C   UNL     1     -43.130 -54.537  14.222  1.00  0.00     0.044 C 
BRANCH   8  10
HETATM   10  N   UNL     1     -44.922 -52.804  14.240  1.00  0.00     0.094 N 
HETATM   11  C   UNL     1     -45.762 -52.557  13.059  1.00  0.00     0.273 C 
HETATM   12  C   UNL     1     -46.859 -51.600  13.505  1.00  0.00     0.032 C 
HETATM   13  C   UNL     1     -46.584 -51.350  14.975  1.00  0.00     0.032 C 
HETATM   14  C   UNL     1     -45.102 -51.641  15.114  1.00  0.00     0.273 C 
ENDBRANCH   8  10
ENDBRANCH   7   8
ENDBRANCH   1   7
BRANCH   4  15
HETATM   15  C   UNL     1     -40.762 -49.608  11.380  1.00  0.00     0.152 A 
HETATM   16  N   UNL     1     -41.223 -49.120  10.253  1.00  0.00    -0.346 N 
HETATM   17  C   UNL     1     -41.602 -47.807  10.451  1.00  0.00     0.097 A 
ATOM     18  HN  UNL     1     -41.291 -49.628   9.371  1.00  0.00     0.167 HD
HETATM   19  C   UNL     1     -41.381 -47.314  11.719  1.00  0.00     0.070 A 
HETATM   20  S   UNL     1     -40.757 -48.561  12.722  1.00  0.00    -0.064 SA
ENDBRANCH   4  15
TORSDOF 4
ENDMDL
MODEL 2
REMARK VINA RESULT:      -5.7      1.240      1.620
REMARK  4 active torsions:
REMARK  status: ('A' for Active; 'I' for Inactive)
REMARK    1  A    between atoms: C_2  and  C_3 
REMARK    2  A    between atoms: C_2  and  N_14 
REMARK    3  A    between atoms: C_3  and  N_4 
REMARK       I    between atoms: N_4  and  C_5 
REMARK       I    between atoms: C_5  and  N_7 
REMARK    4  A    between atoms: N_7  and  C_8 
ROOT
HETATM    1  N   UNL     1     -41.751 -51.071  11.780  1.00  0.00    -0.341 N 
HETATM    2  C   UNL     1     -40.476 -50.594  11.731  1.00  0.00     0.322 C 
HETATM    3  O   UNL     1     -39.492 -51.259  12.049  1.00  0.00    -0.247 OA
HETATM    4  N   UNL     1     -40.319 -49.320  11.265  1.00  0.00    -0.289 N 
HETATM    5  H   UNL     1     -42.494 -50.439  11.495  1.00  0.00     0.164 HD
HETATM    6  H   UNL     1     -39.368 -48.993  11.176  1.00  0.00     0.172 HD
ENDROOT
BRANCH   1   7
HETATM    7  C   UNL     1     -42.102 -52.424  12.146  1.00  0.00     0.159 C 
BRANCH   7   8
HETATM    8  C   UNL     1     -43.000 -52.519  13.413  1.00  0.00     0.236 C 
HETATM    9  C   UNL     1     -43.194 -53.998  13.796  1.00  0.00     0.044 C 
BRANCH   8  10
HETATM   10  N   UNL     1     -44.304 -51.854  13.180  1.00  0.00     0.094 N 
HETATM   11  C   UNL     1     -44.901 -51.339  14.422  1.00  0.00     0.273 C 
HETATM   12  C   UNL     1     -46.410 -51.396  14.228  1.00  0.00     0.032 C 
HETATM   13  C   UNL     1     -46.603 -51.950  12.831  1.00  0.00     0.032 C 
HETATM   14  C   UNL     1     -45.321 -52.716  12.571  1.00  0.00     0.273 C 
ENDBRANCH   8  10
ENDBRANCH   7   8
ENDBRANCH   1   7
BRANCH   4  15
HETATM   15  C   UNL     1     -41.331 -48.509  10.844  1.00  0.00     0.152 A 
HETATM   16  N   UNL     1     -41.828 -48.418   9.632  1.00  0.00    -0.346 N 
HETATM   17  C   UNL     1     -42.808 -47.446   9.618  1.00  0.00     0.097 A 
ATOM     18  HN  UNL     1     -41.536 -48.976   8.830  1.00  0.00     0.167 HD
HETATM   19  C   UNL     1     -43.006 -46.791  10.814  1.00  0.00     0.070 A 
HETATM   20  S   UNL     1     -41.991 -47.472  12.021  1.00  0.00    -0.064 SA
ENDBRANCH   4  15
TORSDOF 4
ENDMDL
MODEL 3
REMARK VINA RESULT:      -5.4      1.266      1.970
REMARK  4 active torsions:
REMARK  status: ('A' for Active; 'I' for Inactive)
REMARK    1  A    between atoms: C_2  and  C_3 
REMARK    2  A    between atoms: C_2  and  N_14 
REMARK    3  A    between atoms: C_3  and  N_4 
REMARK       I    between atoms: N_4  and  C_5 
REMARK       I    between atoms: C_5  and  N_7 
REMARK    4  A    between atoms: N_7  and  C_8 
ROOT
HETATM    1  N   UNL     1     -41.975 -51.238  12.760  1.00  0.00    -0.341 N 
HETATM    2  C   UNL     1     -40.986 -51.720  11.957  1.00  0.00     0.322 C 
HETATM    3  O   UNL     1     -40.688 -52.911  11.891  1.00  0.00    -0.247 OA
HETATM    4  N   UNL     1     -40.338 -50.809  11.174  1.00  0.00    -0.289 N 
HETATM    5  H   UNL     1     -42.141 -50.236  12.740  1.00  0.00     0.164 HD
HETATM    6  H   UNL     1     -39.646 -51.180  10.539  1.00  0.00     0.172 HD
ENDROOT
BRANCH   1   7
HETATM    7  C   UNL     1     -42.835 -52.061  13.579  1.00  0.00     0.159 C 
BRANCH   7   8
HETATM    8  C   UNL     1     -44.347 -51.723  13.438  1.00  0.00     0.236 C 
HETATM    9  C   UNL     1     -44.793 -50.856  14.632  1.00  0.00     0.044 C 
BRANCH   8  10
HETATM   10  N   UNL     1     -45.154 -52.963  13.350  1.00  0.00     0.094 N 
HETATM   11  C   UNL     1     -46.197 -53.027  14.386  1.00  0.00     0.273 C 
HETATM   12  C   UNL     1     -46.408 -54.505  14.690  1.00  0.00     0.032 C 
HETATM   13  C   UNL     1     -45.448 -55.233  13.770  1.00  0.00     0.032 C 
HETATM   14  C   UNL     1     -44.377 -54.198  13.482  1.00  0.00     0.273 C 
ENDBRANCH   8  10
ENDBRANCH   7   8
ENDBRANCH   1   7
BRANCH   4  15
HETATM   15  C   UNL     1     -40.614 -49.474  11.132  1.00  0.00     0.152 A 
HETATM   16  N   UNL     1     -41.468 -48.861  10.347  1.00  0.00    -0.346 N 
HETATM   17  C   UNL     1     -41.410 -47.503  10.591  1.00  0.00     0.097 A 
ATOM     18  HN  UNL     1     -42.077 -49.314   9.667  1.00  0.00     0.167 HD
HETATM   19  C   UNL     1     -40.481 -47.111  11.530  1.00  0.00     0.070 A 
HETATM   20  S   UNL     1     -39.711 -48.496  12.194  1.00  0.00    -0.064 SA
ENDBRANCH   4  15
TORSDOF 4
ENDMDL
MODEL 4
REMARK VINA RESULT:      -5.0      1.853      2.994
REMARK  4 active torsions:
REMARK  status: ('A' for Active; 'I' for Inactive)
REMARK    1  A    between atoms: C_2  and  C_3 
REMARK    2  A    between atoms: C_2  and  N_14 
REMARK    3  A    between atoms: C_3  and  N_4 
REMARK       I    between atoms: N_4  and  C_5 
REMARK       I    between atoms: C_5  and  N_7 
REMARK    4  A    between atoms: N_7  and  C_8 
ROOT
HETATM    1  N   UNL     1     -41.719 -50.783  11.676  1.00  0.00    -0.341 N 
HETATM    2  C   UNL     1     -40.506 -50.166  11.609  1.00  0.00     0.322 C 
HETATM    3  O   UNL     1     -39.460 -50.686  11.994  1.00  0.00    -0.247 OA
HETATM    4  N   UNL     1     -40.484 -48.922  11.047  1.00  0.00    -0.289 N 
HETATM    5  H   UNL     1     -42.521 -50.266  11.330  1.00  0.00     0.164 HD
HETATM    6  H   UNL     1     -39.574 -48.495  10.948  1.00  0.00     0.172 HD
ENDROOT
BRANCH   1   7
HETATM    7  C   UNL     1     -41.921 -52.136  12.141  1.00  0.00     0.159 C 
BRANCH   7   8
HETATM    8  C   UNL     1     -43.309 -52.370  12.805  1.00  0.00     0.236 C 
HETATM    9  C   UNL     1     -43.867 -51.027  13.316  1.00  0.00     0.044 C 
BRANCH   8  10
HETATM   10  N   UNL     1     -43.202 -53.356  13.906  1.00  0.00     0.094 N 
HETATM   11  C   UNL     1     -43.149 -52.715  15.229  1.00  0.00     0.273 C 
HETATM   12  C   UNL     1     -42.323 -53.635  16.119  1.00  0.00     0.032 C 
HETATM   13  C   UNL     1     -41.944 -54.801  15.227  1.00  0.00     0.032 C 
HETATM   14  C   UNL     1     -42.020 -54.219  13.829  1.00  0.00     0.273 C 
ENDBRANCH   8  10
ENDBRANCH   7   8
ENDBRANCH   1   7
BRANCH   4  15
HETATM   15  C   UNL     1     -41.572 -48.269  10.548  1.00  0.00     0.152 A 
HETATM   16  N   UNL     1     -42.025 -48.302   9.317  1.00  0.00    -0.346 N 
HETATM   17  C   UNL     1     -43.118 -47.464   9.215  1.00  0.00     0.097 A 
ATOM     18  HN  UNL     1     -41.634 -48.857   8.556  1.00  0.00     0.167 HD
HETATM   19  C   UNL     1     -43.446 -46.781  10.367  1.00  0.00     0.070 A 
HETATM   20  S   UNL     1     -42.404 -47.267  11.643  1.00  0.00    -0.064 SA
ENDBRANCH   4  15
TORSDOF 4
ENDMDL
MODEL 5
REMARK VINA RESULT:      -4.9      2.436      3.695
REMARK  4 active torsions:
REMARK  status: ('A' for Active; 'I' for Inactive)
REMARK    1  A    between atoms: C_2  and  C_3 
REMARK    2  A    between atoms: C_2  and  N_14 
REMARK    3  A    between atoms: C_3  and  N_4 
REMARK       I    between atoms: N_4  and  C_5 
REMARK       I    between atoms: C_5  and  N_7 
REMARK    4  A    between atoms: N_7  and  C_8 
ROOT
HETATM    1  N   UNL     1     -44.050 -53.145  14.142  1.00  0.00    -0.341 N 
HETATM    2  C   UNL     1     -44.142 -53.687  12.895  1.00  0.00     0.322 C 
HETATM    3  O   UNL     1     -44.978 -54.533  12.585  1.00  0.00    -0.247 OA
HETATM    4  N   UNL     1     -43.266 -53.216  11.960  1.00  0.00    -0.289 N 
HETATM    5  H   UNL     1     -43.323 -52.452  14.294  1.00  0.00     0.164 HD
HETATM    6  H   UNL     1     -43.377 -53.579  11.024  1.00  0.00     0.172 HD
ENDROOT
BRANCH   1   7
HETATM    7  C   UNL     1     -44.954 -53.443  15.229  1.00  0.00     0.159 C 
BRANCH   7   8
HETATM    8  C   UNL     1     -46.292 -52.652  15.167  1.00  0.00     0.236 C 
HETATM    9  C   UNL     1     -46.076 -51.335  14.396  1.00  0.00     0.044 C 
BRANCH   8  10
HETATM   10  N   UNL     1     -46.809 -52.391  16.532  1.00  0.00     0.094 N 
HETATM   11  C   UNL     1     -47.798 -51.302  16.558  1.00  0.00     0.273 C 
HETATM   12  C   UNL     1     -47.675 -50.645  17.926  1.00  0.00     0.032 C 
HETATM   13  C   UNL     1     -46.592 -51.429  18.640  1.00  0.00     0.032 C 
HETATM   14  C   UNL     1     -45.778 -52.023  17.506  1.00  0.00     0.273 C 
ENDBRANCH   8  10
ENDBRANCH   7   8
ENDBRANCH   1   7
BRANCH   4  15
HETATM   15  C   UNL     1     -42.329 -52.250  12.179  1.00  0.00     0.152 A 
HETATM   16  N   UNL     1     -42.483 -50.951  12.073  1.00  0.00    -0.346 N 
HETATM   17  C   UNL     1     -41.278 -50.330  12.335  1.00  0.00     0.097 A 
ATOM     18  HN  UNL     1     -43.354 -50.476  11.835  1.00  0.00     0.167 HD
HETATM   19  C   UNL     1     -40.223 -51.178  12.597  1.00  0.00     0.070 A 
HETATM   20  S   UNL     1     -40.775 -52.805  12.598  1.00  0.00    -0.064 SA
ENDBRANCH   4  15
TORSDOF 4
ENDMDL
MODEL 6
REMARK VINA RESULT:      -4.9      2.678      6.177
REMARK  4 active torsions:
REMARK  status: ('A' for Active; 'I' for Inactive)
REMARK    1  A    between atoms: C_2  and  C_3 
REMARK    2  A    between atoms: C_2  and  N_14 
REMARK    3  A    between atoms: C_3  and  N_4 
REMARK       I    between atoms: N_4  and  C_5 
REMARK       I    between atoms: C_5  and  N_7 
REMARK    4  A    between atoms: N_7  and  C_8 
ROOT
HETATM    1  N   UNL     1     -42.238 -52.033  13.553  1.00  0.00    -0.341 N 
HETATM    2  C   UNL     1     -42.117 -53.183  12.833  1.00  0.00     0.322 C 
HETATM    3  O   UNL     1     -41.035 -53.691  12.544  1.00  0.00    -0.247 OA
HETATM    4  N   UNL     1     -43.280 -53.795  12.461  1.00  0.00    -0.289 N 
HETATM    5  H   UNL     1     -43.179 -51.698  13.737  1.00  0.00     0.164 HD
HETATM    6  H   UNL     1     -43.184 -54.677  11.978  1.00  0.00     0.172 HD
ENDROOT
BRANCH   1   7
HETATM    7  C   UNL     1     -41.126 -51.305  14.119  1.00  0.00     0.159 C 
BRANCH   7   8
HETATM    8  C   UNL     1     -40.663 -50.096  13.256  1.00  0.00     0.236 C 
HETATM    9  C   UNL     1     -41.845 -49.587  12.408  1.00  0.00     0.044 C 
BRANCH   8  10
HETATM   10  N   UNL     1     -39.516 -50.476  12.397  1.00  0.00     0.094 N 
HETATM   11  C   UNL     1     -38.499 -51.246  13.129  1.00  0.00     0.273 C 
HETATM   12  C   UNL     1     -37.163 -50.927  12.471  1.00  0.00     0.032 C 
HETATM   13  C   UNL     1     -37.502 -49.965  11.349  1.00  0.00     0.032 C 
HETATM   14  C   UNL     1     -38.809 -49.341  11.798  1.00  0.00     0.273 C 
ENDBRANCH   8  10
ENDBRANCH   7   8
ENDBRANCH   1   7
BRANCH   4  15
HETATM   15  C   UNL     1     -44.532 -53.347  12.763  1.00  0.00     0.152 A 
HETATM   16  N   UNL     1     -45.240 -52.457  12.108  1.00  0.00    -0.346 N 
HETATM   17  C   UNL     1     -46.434 -52.253  12.770  1.00  0.00     0.097 A 
ATOM     18  HN  UNL     1     -44.954 -51.990  11.247  1.00  0.00     0.167 HD
HETATM   19  C   UNL     1     -46.589 -52.966  13.939  1.00  0.00     0.070 A 
HETATM   20  S   UNL     1     -45.231 -53.992  14.175  1.00  0.00    -0.064 SA
ENDBRANCH   4  15
TORSDOF 4
ENDMDL
MODEL 7
REMARK VINA RESULT:      -4.7      2.622      6.104
REMARK  4 active torsions:
REMARK  status: ('A' for Active; 'I' for Inactive)
REMARK    1  A    between atoms: C_2  and  C_3 
REMARK    2  A    between atoms: C_2  and  N_14 
REMARK    3  A    between atoms: C_3  and  N_4 
REMARK       I    between atoms: N_4  and  C_5 
REMARK       I    between atoms: C_5  and  N_7 
REMARK    4  A    between atoms: N_7  and  C_8 
ROOT
HETATM    1  N   UNL     1     -41.163 -49.944  12.785  1.00  0.00    -0.341 N 
HETATM    2  C   UNL     1     -40.515 -50.431  11.690  1.00  0.00     0.322 C 
HETATM    3  O   UNL     1     -39.677 -49.791  11.059  1.00  0.00    -0.247 OA
HETATM    4  N   UNL     1     -40.811 -51.714  11.326  1.00  0.00    -0.289 N 
HETATM    5  H   UNL     1     -41.838 -50.556  13.234  1.00  0.00     0.164 HD
HETATM    6  H   UNL     1     -40.286 -52.089  10.550  1.00  0.00     0.172 HD
ENDROOT
BRANCH   1   7
HETATM    7  C   UNL     1     -40.905 -48.652  13.377  1.00  0.00     0.159 C 
BRANCH   7   8
HETATM    8  C   UNL     1     -42.009 -47.595  13.083  1.00  0.00     0.236 C 
HETATM    9  C   UNL     1     -43.105 -48.228  12.204  1.00  0.00     0.044 C 
BRANCH   8  10
HETATM   10  N   UNL     1     -41.426 -46.399  12.430  1.00  0.00     0.094 N 
HETATM   11  C   UNL     1     -41.148 -46.620  11.003  1.00  0.00     0.273 C 
HETATM   12  C   UNL     1     -39.956 -45.738  10.657  1.00  0.00     0.032 C 
HETATM   13  C   UNL     1     -39.610 -45.025  11.949  1.00  0.00     0.032 C 
HETATM   14  C   UNL     1     -40.165 -45.944  13.021  1.00  0.00     0.273 C 
ENDBRANCH   8  10
ENDBRANCH   7   8
ENDBRANCH   1   7
BRANCH   4  15
HETATM   15  C   UNL     1     -41.689 -52.530  11.977  1.00  0.00     0.152 A 
HETATM   16  N   UNL     1     -42.992 -52.581  11.827  1.00  0.00    -0.346 N 
HETATM   17  C   UNL     1     -43.512 -53.509  12.707  1.00  0.00     0.097 A 
ATOM     18  HN  UNL     1     -43.533 -52.024  11.166  1.00  0.00     0.167 HD
HETATM   19  C   UNL     1     -42.593 -54.114  13.537  1.00  0.00     0.070 A 
HETATM   20  S   UNL     1     -41.012 -53.567  13.145  1.00  0.00    -0.064 SA
ENDBRANCH   4  15
TORSDOF 4
ENDMDL
MODEL 8
REMARK VINA RESULT:      -4.7      2.586      5.992
REMARK  4 active torsions:
REMARK  status: ('A' for Active; 'I' for Inactive)
REMARK    1  A    between atoms: C_2  and  C_3 
REMARK    2  A    between atoms: C_2  and  N_14 
REMARK    3  A    between atoms: C_3  and  N_4 
REMARK       I    between atoms: N_4  and  C_5 
REMARK       I    between atoms: C_5  and  N_7 
REMARK    4  A    between atoms: N_7  and  C_8 
ROOT
HETATM    1  N   UNL     1     -40.487 -52.065  13.368  1.00  0.00    -0.341 N 
HETATM    2  C   UNL     1     -40.191 -53.393  13.436  1.00  0.00     0.322 C 
HETATM    3  O   UNL     1     -39.049 -53.825  13.577  1.00  0.00    -0.247 OA
HETATM    4  N   UNL     1     -41.247 -54.257  13.376  1.00  0.00    -0.289 N 
HETATM    5  H   UNL     1     -41.465 -51.813  13.251  1.00  0.00     0.164 HD
HETATM    6  H   UNL     1     -41.026 -55.237  13.485  1.00  0.00     0.172 HD
ENDROOT
BRANCH   1   7
HETATM    7  C   UNL     1     -39.517 -51.004  13.517  1.00  0.00     0.159 C 
BRANCH   7   8
HETATM    8  C   UNL     1     -38.819 -50.601  12.186  1.00  0.00     0.236 C 
HETATM    9  C   UNL     1     -37.305 -50.863  12.301  1.00  0.00     0.044 C 
BRANCH   8  10
HETATM   10  N   UNL     1     -39.091 -49.181  11.862  1.00  0.00     0.094 N 
HETATM   11  C   UNL     1     -38.842 -48.288  13.005  1.00  0.00     0.273 C 
HETATM   12  C   UNL     1     -39.803 -47.117  12.851  1.00  0.00     0.032 C 
HETATM   13  C   UNL     1     -40.571 -47.407  11.577  1.00  0.00     0.032 C 
HETATM   14  C   UNL     1     -40.468 -48.914  11.435  1.00  0.00     0.273 C 
ENDBRANCH   8  10
ENDBRANCH   7   8
ENDBRANCH   1   7
BRANCH   4  15
HETATM   15  C   UNL     1     -42.555 -53.889  13.266  1.00  0.00     0.152 A 
HETATM   16  N   UNL     1     -43.201 -53.563  12.171  1.00  0.00    -0.346 N 
HETATM   17  C   UNL     1     -44.495 -53.210  12.499  1.00  0.00     0.097 A 
ATOM     18  HN  UNL     1     -42.811 -53.569  11.229  1.00  0.00     0.167 HD
HETATM   19  C   UNL     1     -44.791 -53.238  13.845  1.00  0.00     0.070 A 
HETATM   20  S   UNL     1     -43.429 -53.807  14.724  1.00  0.00    -0.064 SA
ENDBRANCH   4  15
TORSDOF 4
ENDMDL
MODEL 9
REMARK VINA RESULT:      -4.6      1.743      2.243
REMARK  4 active torsions:
REMARK  status: ('A' for Active; 'I' for Inactive)
REMARK    1  A    between atoms: C_2  and  C_3 
REMARK    2  A    between atoms: C_2  and  N_14 
REMARK    3  A    between atoms: C_3  and  N_4 
REMARK       I    between atoms: N_4  and  C_5 
REMARK       I    between atoms: C_5  and  N_7 
REMARK    4  A    between atoms: N_7  and  C_8 
ROOT
HETATM    1  N   UNL     1     -41.597 -51.623  13.663  1.00  0.00    -0.341 N 
HETATM    2  C   UNL     1     -41.862 -52.067  12.403  1.00  0.00     0.322 C 
HETATM    3  O   UNL     1     -42.695 -52.936  12.153  1.00  0.00    -0.247 OA
HETATM    4  N   UNL     1     -41.175 -51.467  11.387  1.00  0.00    -0.289 N 
HETATM    5  H   UNL     1     -40.889 -50.900  13.760  1.00  0.00     0.164 HD
HETATM    6  H   UNL     1     -41.418 -51.759  10.451  1.00  0.00     0.172 HD
ENDROOT
BRANCH   1   7
HETATM    7  C   UNL     1     -42.296 -52.064  14.848  1.00  0.00     0.159 C 
BRANCH   7   8
HETATM    8  C   UNL     1     -43.362 -51.054  15.360  1.00  0.00     0.236 C 
HETATM    9  C   UNL     1     -43.036 -50.654  16.812  1.00  0.00     0.044 C 
BRANCH   8  10
HETATM   10  N   UNL     1     -44.723 -51.634  15.261  1.00  0.00     0.094 N 
HETATM   11  C   UNL     1     -45.297 -51.487  13.914  1.00  0.00     0.273 C 
HETATM   12  C   UNL     1     -46.805 -51.388  14.100  1.00  0.00     0.032 C 
HETATM   13  C   UNL     1     -47.021 -51.499  15.597  1.00  0.00     0.032 C 
HETATM   14  C   UNL     1     -45.698 -51.045  16.182  1.00  0.00     0.273 C 
ENDBRANCH   8  10
ENDBRANCH   7   8
ENDBRANCH   1   7
BRANCH   4  15
HETATM   15  C   UNL     1     -40.263 -50.465  11.542  1.00  0.00     0.152 A 
HETATM   16  N   UNL     1     -38.975 -50.586  11.759  1.00  0.00    -0.346 N 
HETATM   17  C   UNL     1     -38.421 -49.330  11.904  1.00  0.00     0.097 A 
ATOM     18  HN  UNL     1     -38.464 -51.467  11.812  1.00  0.00     0.167 HD
HETATM   19  C   UNL     1     -39.312 -48.280  11.833  1.00  0.00     0.070 A 
HETATM   20  S   UNL     1     -40.885 -48.881  11.490  1.00  0.00    -0.064 SA
ENDBRANCH   4  15
TORSDOF 4
ENDMDL
