MODEL 1
REMARK VINA RESULT:      -6.5      0.000      0.000
REMARK  4 active torsions:
REMARK  status: ('A' for Active; 'I' for Inactive)
REMARK    1  A    between atoms: C_2  and  C_4 
REMARK    2  A    between atoms: C_8  and  C_9 
REMARK    3  A    between atoms: C_9  and  C_10 
REMARK    4  A    between atoms: C_10  and  N_11 
REMARK       I    between atoms: N_11  and  C_12 
REMARK       I    between atoms: C_12  and  N_14 
ROOT
HETATM    1  C   UNL     1     -39.692 -50.261  11.425  1.00  0.00     0.132 C 
ENDROOT
BRANCH   1   2
HETATM    2  C   UNL     1     -40.063 -48.785  11.582  1.00  0.00     0.106 C 
BRANCH   2   3
HETATM    3  C   UNL     1     -41.378 -48.449  10.978  1.00  0.00     0.149 A 
HETATM    4  O   UNL     1     -42.455 -48.557  11.812  1.00  0.00    -0.223 OA
HETATM    5  N   UNL     1     -43.572 -48.158  11.082  1.00  0.00    -0.247 N 
HETATM    6  C   UNL     1     -43.064 -47.849   9.882  1.00  0.00     0.107 A 
ATOM      7  HN  UNL     1     -44.544 -48.113  11.388  1.00  0.00     0.196 HD
HETATM    8  N   UNL     1     -41.699 -48.012   9.776  1.00  0.00    -0.327 N 
ATOM      9  HN  UNL     1     -41.093 -47.840   8.973  1.00  0.00     0.169 HD
BRANCH   6  10
HETATM   10  C   UNL     1     -43.933 -47.356   8.770  1.00  0.00     0.047 C 
HETATM   11  C   UNL     1     -43.608 -48.038   7.443  1.00  0.00     0.017 C 
HETATM   12  C   UNL     1     -45.418 -47.508   9.102  1.00  0.00     0.017 C 
ENDBRANCH   6  10
ENDBRANCH   2   3
ENDBRANCH   1   2
BRANCH   1  13
HETATM   13  N   UNL     1     -40.808 -51.185  11.658  1.00  0.00    -0.343 N 
HETATM   14  C   UNL     1     -40.666 -52.242  12.519  1.00  0.00     0.318 C 
HETATM   15  O   UNL     1     -39.581 -52.495  13.039  1.00  0.00    -0.247 OA
HETATM   16  N   UNL     1     -41.784 -53.012  12.746  1.00  0.00    -0.330 N 
HETATM   17  C   UNL     1     -43.139 -52.839  12.212  1.00  0.00     0.153 C 
HETATM   18  C   UNL     1     -41.658 -54.205  13.594  1.00  0.00     0.159 C 
HETATM   19  C   UNL     1     -44.163 -52.874  13.358  1.00  0.00     0.188 C 
HETATM   20  O   UNL     1     -44.038 -54.073  14.140  1.00  0.00    -0.383 OA
HETATM   21  C   UNL     1     -42.718 -54.184  14.708  1.00  0.00     0.135 C 
HETATM   22  C   UNL     1     -42.671 -55.458  15.541  1.00  0.00     0.041 C 
HETATM   23  H   UNL     1     -41.719 -50.757  11.645  1.00  0.00     0.164 HD
ENDBRANCH   1  13
TORSDOF 4
ENDMDL
MODEL 2
REMARK VINA RESULT:      -6.2      3.343      5.768
REMARK  4 active torsions:
REMARK  status: ('A' for Active; 'I' for Inactive)
REMARK    1  A    between atoms: C_2  and  C_4 
REMARK    2  A    between atoms: C_8  and  C_9 
REMARK    3  A    between atoms: C_9  and  C_10 
REMARK    4  A    between atoms: C_10  and  N_11 
REMARK       I    between atoms: N_11  and  C_12 
REMARK       I    between atoms: C_12  and  N_14 
ROOT
HETATM    1  C   UNL     1     -41.264 -54.680  14.972  1.00  0.00     0.132 C 
ENDROOT
BRANCH   1   2
HETATM    2  C   UNL     1     -42.764 -54.976  14.898  1.00  0.00     0.106 C 
BRANCH   2   3
HETATM    3  C   UNL     1     -43.521 -53.950  14.135  1.00  0.00     0.149 A 
HETATM    4  O   UNL     1     -43.133 -53.775  12.837  1.00  0.00    -0.223 OA
HETATM    5  N   UNL     1     -43.984 -52.819  12.288  1.00  0.00    -0.247 N 
HETATM    6  C   UNL     1     -44.801 -52.510  13.303  1.00  0.00     0.107 A 
ATOM      7  HN  UNL     1     -43.985 -52.444  11.339  1.00  0.00     0.196 HD
HETATM    8  N   UNL     1     -44.549 -53.196  14.473  1.00  0.00    -0.327 N 
ATOM      9  HN  UNL     1     -45.033 -53.135  15.369  1.00  0.00     0.169 HD
BRANCH   6  10
HETATM   10  C   UNL     1     -45.898 -51.506  13.146  1.00  0.00     0.047 C 
HETATM   11  C   UNL     1     -46.788 -51.814  11.943  1.00  0.00     0.017 C 
HETATM   12  C   UNL     1     -46.737 -51.383  14.417  1.00  0.00     0.017 C 
ENDBRANCH   6  10
ENDBRANCH   2   3
ENDBRANCH   1   2
BRANCH   1  13
HETATM   13  N   UNL     1     -40.921 -53.272  14.739  1.00  0.00    -0.343 N 
HETATM   14  C   UNL     1     -39.796 -52.940  14.031  1.00  0.00     0.318 C 
HETATM   15  O   UNL     1     -39.003 -53.804  13.659  1.00  0.00    -0.247 OA
HETATM   16  N   UNL     1     -39.590 -51.602  13.785  1.00  0.00    -0.330 N 
HETATM   17  C   UNL     1     -40.436 -50.462  14.152  1.00  0.00     0.153 C 
HETATM   18  C   UNL     1     -38.354 -51.193  13.104  1.00  0.00     0.159 C 
HETATM   19  C   UNL     1     -40.692 -49.579  12.920  1.00  0.00     0.188 C 
HETATM   20  O   UNL     1     -39.462 -49.165  12.305  1.00  0.00    -0.383 OA
HETATM   21  C   UNL     1     -38.681 -50.303  11.893  1.00  0.00     0.135 C 
HETATM   22  C   UNL     1     -37.412 -49.785  11.228  1.00  0.00     0.041 C 
HETATM   23  H   UNL     1     -41.711 -52.662  14.608  1.00  0.00     0.164 HD
ENDBRANCH   1  13
TORSDOF 4
ENDMDL
MODEL 3
REMARK VINA RESULT:      -6.0      2.812      4.383
REMARK  4 active torsions:
REMARK  status: ('A' for Active; 'I' for Inactive)
REMARK    1  A    between atoms: C_2  and  C_4 
REMARK    2  A    between atoms: C_8  and  C_9 
REMARK    3  A    between atoms: C_9  and  C_10 
REMARK    4  A    between atoms: C_10  and  N_11 
REMARK       I    between atoms: N_11  and  C_12 
REMARK       I    between atoms: C_12  and  N_14 
ROOT
HETATM    1  C   UNL     1     -40.148 -45.285  12.526  1.00  0.00     0.132 C 
ENDROOT
BRANCH   1   2
HETATM    2  C   UNL     1     -40.334 -44.926  11.050  1.00  0.00     0.106 C 
BRANCH   2   3
HETATM    3  C   UNL     1     -41.597 -45.460  10.477  1.00  0.00     0.149 A 
HETATM    4  O   UNL     1     -42.596 -44.545  10.299  1.00  0.00    -0.223 OA
HETATM    5  N   UNL     1     -43.663 -45.223   9.716  1.00  0.00    -0.247 N 
HETATM    6  C   UNL     1     -43.208 -46.476   9.597  1.00  0.00     0.107 A 
ATOM      7  HN  UNL     1     -44.574 -44.852   9.444  1.00  0.00     0.196 HD
HETATM    8  N   UNL     1     -41.921 -46.666  10.057  1.00  0.00    -0.327 N 
ATOM      9  HN  UNL     1     -41.364 -47.521  10.069  1.00  0.00     0.169 HD
BRANCH   6  10
HETATM   10  C   UNL     1     -44.047 -47.559   8.998  1.00  0.00     0.047 C 
HETATM   11  C   UNL     1     -45.529 -47.191   8.980  1.00  0.00     0.017 C 
HETATM   12  C   UNL     1     -43.569 -47.934   7.596  1.00  0.00     0.017 C 
ENDBRANCH   6  10
ENDBRANCH   2   3
ENDBRANCH   1   2
BRANCH   1  13
HETATM   13  N   UNL     1     -39.462 -46.563  12.747  1.00  0.00    -0.343 N 
HETATM   14  C   UNL     1     -40.181 -47.702  13.001  1.00  0.00     0.318 C 
HETATM   15  O   UNL     1     -41.402 -47.663  13.142  1.00  0.00    -0.247 OA
HETATM   16  N   UNL     1     -39.468 -48.873  13.114  1.00  0.00    -0.330 N 
HETATM   17  C   UNL     1     -38.024 -49.085  12.968  1.00  0.00     0.153 C 
HETATM   18  C   UNL     1     -40.186 -50.104  13.469  1.00  0.00     0.159 C 
HETATM   19  C   UNL     1     -37.758 -50.240  11.990  1.00  0.00     0.188 C 
HETATM   20  O   UNL     1     -38.443 -51.438  12.391  1.00  0.00    -0.383 OA
HETATM   21  C   UNL     1     -39.866 -51.220  12.461  1.00  0.00     0.135 C 
HETATM   22  C   UNL     1     -40.522 -52.534  12.864  1.00  0.00     0.041 C 
HETATM   23  H   UNL     1     -38.624 -46.691  12.204  1.00  0.00     0.164 HD
ENDBRANCH   1  13
TORSDOF 4
ENDMDL
MODEL 4
REMARK VINA RESULT:      -6.0      2.484      6.364
REMARK  4 active torsions:
REMARK  status: ('A' for Active; 'I' for Inactive)
REMARK    1  A    between atoms: C_2  and  C_4 
REMARK    2  A    between atoms: C_8  and  C_9 
REMARK    3  A    between atoms: C_9  and  C_10 
REMARK    4  A    between atoms: C_10  and  N_11 
REMARK       I    between atoms: N_11  and  C_12 
REMARK       I    between atoms: C_12  and  N_14 
ROOT
HETATM    1  C   UNL     1     -40.587 -51.381  11.731  1.00  0.00     0.132 C 
ENDROOT
BRANCH   1   2
HETATM    2  C   UNL     1     -41.459 -52.483  12.336  1.00  0.00     0.106 C 
BRANCH   2   3
HETATM    3  C   UNL     1     -42.749 -51.976  12.870  1.00  0.00     0.149 A 
HETATM    4  O   UNL     1     -42.652 -51.104  13.917  1.00  0.00    -0.223 OA
HETATM    5  N   UNL     1     -43.950 -50.712  14.237  1.00  0.00    -0.247 N 
HETATM    6  C   UNL     1     -44.702 -51.383  13.356  1.00  0.00     0.107 A 
ATOM      7  HN  UNL     1     -44.254 -50.068  14.968  1.00  0.00     0.196 HD
HETATM    8  N   UNL     1     -43.993 -52.180  12.482  1.00  0.00    -0.327 N 
ATOM      9  HN  UNL     1     -44.340 -52.775  11.730  1.00  0.00     0.169 HD
BRANCH   6  10
HETATM   10  C   UNL     1     -46.192 -51.248  13.338  1.00  0.00     0.047 C 
HETATM   11  C   UNL     1     -46.816 -51.953  12.136  1.00  0.00     0.017 C 
HETATM   12  C   UNL     1     -46.820 -51.746  14.639  1.00  0.00     0.017 C 
ENDBRANCH   6  10
ENDBRANCH   2   3
ENDBRANCH   1   2
BRANCH   1  13
HETATM   13  N   UNL     1     -41.293 -50.113  11.515  1.00  0.00    -0.343 N 
HETATM   14  C   UNL     1     -40.662 -48.918  11.748  1.00  0.00     0.318 C 
HETATM   15  O   UNL     1     -39.531 -48.882  12.229  1.00  0.00    -0.247 OA
HETATM   16  N   UNL     1     -41.365 -47.776  11.441  1.00  0.00    -0.330 N 
HETATM   17  C   UNL     1     -42.706 -47.652  10.861  1.00  0.00     0.153 C 
HETATM   18  C   UNL     1     -40.762 -46.472  11.753  1.00  0.00     0.159 C 
HETATM   19  C   UNL     1     -42.671 -46.701   9.654  1.00  0.00     0.188 C 
HETATM   20  O   UNL     1     -42.114 -45.425  10.006  1.00  0.00    -0.383 OA
HETATM   21  C   UNL     1     -40.771 -45.568  10.510  1.00  0.00     0.135 C 
HETATM   22  C   UNL     1     -40.241 -44.177  10.833  1.00  0.00     0.041 C 
HETATM   23  H   UNL     1     -41.942 -50.117  10.745  1.00  0.00     0.164 HD
ENDBRANCH   1  13
TORSDOF 4
ENDMDL
MODEL 5
REMARK VINA RESULT:      -5.9      2.752      6.297
REMARK  4 active torsions:
REMARK  status: ('A' for Active; 'I' for Inactive)
REMARK    1  A    between atoms: C_2  and  C_4 
REMARK    2  A    between atoms: C_8  and  C_9 
REMARK    3  A    between atoms: C_9  and  C_10 
REMARK    4  A    between atoms: C_10  and  N_11 
REMARK       I    between atoms: N_11  and  C_12 
REMARK       I    between atoms: C_12  and  N_14 
ROOT
HETATM    1  C   UNL     1     -41.249 -54.419  13.359  1.00  0.00     0.132 C 
ENDROOT
BRANCH   1   2
HETATM    2  C   UNL     1     -42.068 -54.327  14.648  1.00  0.00     0.106 C 
BRANCH   2   3
HETATM    3  C   UNL     1     -43.510 -54.068  14.403  1.00  0.00     0.149 A 
HETATM    4  O   UNL     1     -44.336 -55.147  14.548  1.00  0.00    -0.223 OA
HETATM    5  N   UNL     1     -45.634 -54.694  14.327  1.00  0.00    -0.247 N 
HETATM    6  C   UNL     1     -45.468 -53.391  14.070  1.00  0.00     0.107 A 
ATOM      7  HN  UNL     1     -46.503 -55.228  14.354  1.00  0.00     0.196 HD
HETATM    8  N   UNL     1     -44.159 -52.958  14.111  1.00  0.00    -0.327 N 
ATOM      9  HN  UNL     1     -43.788 -52.021  13.955  1.00  0.00     0.169 HD
BRANCH   6  10
HETATM   10  C   UNL     1     -46.631 -52.498  13.777  1.00  0.00     0.047 C 
HETATM   11  C   UNL     1     -46.797 -51.408  14.833  1.00  0.00     0.017 C 
HETATM   12  C   UNL     1     -46.534 -51.882  12.381  1.00  0.00     0.017 C 
ENDBRANCH   6  10
ENDBRANCH   2   3
ENDBRANCH   1   2
BRANCH   1  13
HETATM   13  N   UNL     1     -40.402 -53.247  13.106  1.00  0.00    -0.343 N 
HETATM   14  C   UNL     1     -40.874 -52.198  12.359  1.00  0.00     0.318 C 
HETATM   15  O   UNL     1     -41.973 -52.254  11.810  1.00  0.00    -0.247 OA
HETATM   16  N   UNL     1     -40.050 -51.103  12.239  1.00  0.00    -0.330 N 
HETATM   17  C   UNL     1     -38.726 -50.882  12.831  1.00  0.00     0.153 C 
HETATM   18  C   UNL     1     -40.477 -49.991  11.379  1.00  0.00     0.159 C 
HETATM   19  C   UNL     1     -38.692 -49.521  13.546  1.00  0.00     0.188 C 
HETATM   20  O   UNL     1     -39.076 -48.454  12.665  1.00  0.00    -0.383 OA
HETATM   21  C   UNL     1     -40.406 -48.662  12.149  1.00  0.00     0.135 C 
HETATM   22  C   UNL     1     -40.750 -47.482  11.250  1.00  0.00     0.041 C 
HETATM   23  H   UNL     1     -39.789 -52.998  13.864  1.00  0.00     0.164 HD
ENDBRANCH   1  13
TORSDOF 4
ENDMDL
MODEL 6
REMARK VINA RESULT:      -5.8      1.834      6.900
REMARK  4 active torsions:
REMARK  status: ('A' for Active; 'I' for Inactive)
REMARK    1  A    between atoms: C_2  and  C_4 
REMARK    2  A    between atoms: C_8  and  C_9 
REMARK    3  A    between atoms: C_9  and  C_10 
REMARK    4  A    between atoms: C_10  and  N_11 
REMARK       I    between atoms: N_11  and  C_12 
REMARK       I    between atoms: C_12  and  N_14 
ROOT
HETATM    1  C   UNL     1     -40.224 -49.764  14.022  1.00  0.00     0.132 C 
ENDROOT
BRANCH   1   2
HETATM    2  C   UNL     1     -39.537 -51.088  13.680  1.00  0.00     0.106 C 
BRANCH   2   3
HETATM    3  C   UNL     1     -40.497 -52.165  13.324  1.00  0.00     0.149 A 
HETATM    4  O   UNL     1     -39.971 -53.214  12.625  1.00  0.00    -0.223 OA
HETATM    5  N   UNL     1     -41.005 -54.128  12.432  1.00  0.00    -0.247 N 
HETATM    6  C   UNL     1     -42.050 -53.544  13.030  1.00  0.00     0.107 A 
ATOM      7  HN  UNL     1     -40.972 -55.026  11.950  1.00  0.00     0.196 HD
HETATM    8  N   UNL     1     -41.776 -52.320  13.602  1.00  0.00    -0.327 N 
ATOM      9  HN  UNL     1     -42.402 -51.694  14.110  1.00  0.00     0.169 HD
BRANCH   6  10
HETATM   10  C   UNL     1     -43.394 -54.199  13.068  1.00  0.00     0.047 C 
HETATM   11  C   UNL     1     -43.759 -54.676  14.472  1.00  0.00     0.017 C 
HETATM   12  C   UNL     1     -44.485 -53.283  12.512  1.00  0.00     0.017 C 
ENDBRANCH   6  10
ENDBRANCH   2   3
ENDBRANCH   1   2
BRANCH   1  13
HETATM   13  N   UNL     1     -40.227 -48.792  12.922  1.00  0.00    -0.343 N 
HETATM   14  C   UNL     1     -41.284 -48.735  12.051  1.00  0.00     0.318 C 
HETATM   15  O   UNL     1     -42.202 -49.551  12.113  1.00  0.00    -0.247 OA
HETATM   16  N   UNL     1     -41.250 -47.742  11.099  1.00  0.00    -0.330 N 
HETATM   17  C   UNL     1     -40.239 -46.698  10.900  1.00  0.00     0.153 C 
HETATM   18  C   UNL     1     -42.318 -47.693  10.092  1.00  0.00     0.159 C 
HETATM   19  C   UNL     1     -40.917 -45.321  10.807  1.00  0.00     0.188 C 
HETATM   20  O   UNL     1     -41.926 -45.299   9.785  1.00  0.00    -0.383 OA
HETATM   21  C   UNL     1     -42.942 -46.289  10.041  1.00  0.00     0.135 C 
HETATM   22  C   UNL     1     -43.985 -46.186   8.936  1.00  0.00     0.041 C 
HETATM   23  H   UNL     1     -39.795 -47.910  13.138  1.00  0.00     0.164 HD
ENDBRANCH   1  13
TORSDOF 4
ENDMDL
MODEL 7
REMARK VINA RESULT:      -5.7      3.022      4.615
REMARK  4 active torsions:
REMARK  status: ('A' for Active; 'I' for Inactive)
REMARK    1  A    between atoms: C_2  and  C_4 
REMARK    2  A    between atoms: C_8  and  C_9 
REMARK    3  A    between atoms: C_9  and  C_10 
REMARK    4  A    between atoms: C_10  and  N_11 
REMARK       I    between atoms: N_11  and  C_12 
REMARK       I    between atoms: C_12  and  N_14 
ROOT
HETATM    1  C   UNL     1     -40.590 -54.509  15.038  1.00  0.00     0.132 C 
ENDROOT
BRANCH   1   2
HETATM    2  C   UNL     1     -39.538 -53.823  14.165  1.00  0.00     0.106 C 
BRANCH   2   3
HETATM    3  C   UNL     1     -40.121 -52.844  13.212  1.00  0.00     0.149 A 
HETATM    4  O   UNL     1     -40.652 -53.377  12.071  1.00  0.00    -0.223 OA
HETATM    5  N   UNL     1     -41.184 -52.317  11.342  1.00  0.00    -0.247 N 
HETATM    6  C   UNL     1     -40.925 -51.251  12.109  1.00  0.00     0.107 A 
ATOM      7  HN  UNL     1     -41.658 -52.347  10.438  1.00  0.00     0.196 HD
HETATM    8  N   UNL     1     -40.267 -51.536  13.287  1.00  0.00    -0.327 N 
ATOM      9  HN  UNL     1     -39.969 -50.898  14.025  1.00  0.00     0.169 HD
BRANCH   6  10
HETATM   10  C   UNL     1     -41.341 -49.874  11.699  1.00  0.00     0.047 C 
HETATM   11  C   UNL     1     -42.580 -49.400  12.456  1.00  0.00     0.017 C 
HETATM   12  C   UNL     1     -40.200 -48.869  11.854  1.00  0.00     0.017 C 
ENDBRANCH   6  10
ENDBRANCH   2   3
ENDBRANCH   1   2
BRANCH   1  13
HETATM   13  N   UNL     1     -41.957 -54.412  14.513  1.00  0.00    -0.343 N 
HETATM   14  C   UNL     1     -42.946 -53.821  15.256  1.00  0.00     0.318 C 
HETATM   15  O   UNL     1     -42.735 -53.446  16.408  1.00  0.00    -0.247 OA
HETATM   16  N   UNL     1     -44.179 -53.695  14.659  1.00  0.00    -0.330 N 
HETATM   17  C   UNL     1     -44.585 -54.082  13.304  1.00  0.00     0.153 C 
HETATM   18  C   UNL     1     -45.291 -53.145  15.447  1.00  0.00     0.159 C 
HETATM   19  C   UNL     1     -45.290 -52.905  12.610  1.00  0.00     0.188 C 
HETATM   20  O   UNL     1     -46.395 -52.420  13.389  1.00  0.00    -0.383 OA
HETATM   21  C   UNL     1     -45.958 -51.984  14.691  1.00  0.00     0.135 C 
HETATM   22  C   UNL     1     -47.175 -51.462  15.443  1.00  0.00     0.041 C 
HETATM   23  H   UNL     1     -42.017 -54.267  13.519  1.00  0.00     0.164 HD
ENDBRANCH   1  13
TORSDOF 4
ENDMDL
MODEL 8
REMARK VINA RESULT:      -5.4      2.110      2.730
REMARK  4 active torsions:
REMARK  status: ('A' for Active; 'I' for Inactive)
REMARK    1  A    between atoms: C_2  and  C_4 
REMARK    2  A    between atoms: C_8  and  C_9 
REMARK    3  A    between atoms: C_9  and  C_10 
REMARK    4  A    between atoms: C_10  and  N_11 
REMARK       I    between atoms: N_11  and  C_12 
REMARK       I    between atoms: C_12  and  N_14 
ROOT
HETATM    1  C   UNL     1     -38.917 -51.405  13.247  1.00  0.00     0.132 C 
ENDROOT
BRANCH   1   2
HETATM    2  C   UNL     1     -38.318 -50.389  12.272  1.00  0.00     0.106 C 
BRANCH   2   3
HETATM    3  C   UNL     1     -39.325 -49.443  11.727  1.00  0.00     0.149 A 
HETATM    4  O   UNL     1     -40.202 -49.972  10.824  1.00  0.00    -0.223 OA
HETATM    5  N   UNL     1     -41.084 -48.952  10.473  1.00  0.00    -0.247 N 
HETATM    6  C   UNL     1     -40.655 -47.910  11.196  1.00  0.00     0.107 A 
ATOM      7  HN  UNL     1     -41.868 -48.990   9.821  1.00  0.00     0.196 HD
HETATM    8  N   UNL     1     -39.562 -48.174  11.995  1.00  0.00    -0.327 N 
ATOM      9  HN  UNL     1     -39.065 -47.548  12.629  1.00  0.00     0.169 HD
BRANCH   6  10
HETATM   10  C   UNL     1     -41.336 -46.580  11.130  1.00  0.00     0.047 C 
HETATM   11  C   UNL     1     -42.823 -46.681  11.461  1.00  0.00     0.017 C 
HETATM   12  C   UNL     1     -40.654 -45.550  12.031  1.00  0.00     0.017 C 
ENDBRANCH   6  10
ENDBRANCH   2   3
ENDBRANCH   1   2
BRANCH   1  13
HETATM   13  N   UNL     1     -40.382 -51.381  13.308  1.00  0.00    -0.343 N 
HETATM   14  C   UNL     1     -41.105 -52.523  13.080  1.00  0.00     0.318 C 
HETATM   15  O   UNL     1     -40.553 -53.564  12.728  1.00  0.00    -0.247 OA
HETATM   16  N   UNL     1     -42.469 -52.435  13.238  1.00  0.00    -0.330 N 
HETATM   17  C   UNL     1     -43.272 -51.280  13.654  1.00  0.00     0.153 C 
HETATM   18  C   UNL     1     -43.292 -53.611  12.922  1.00  0.00     0.159 C 
HETATM   19  C   UNL     1     -44.214 -51.681  14.801  1.00  0.00     0.188 C 
HETATM   20  O   UNL     1     -45.031 -52.806  14.441  1.00  0.00    -0.383 OA
HETATM   21  C   UNL     1     -44.219 -53.947  14.102  1.00  0.00     0.135 C 
HETATM   22  C   UNL     1     -45.152 -55.102  13.761  1.00  0.00     0.041 C 
HETATM   23  H   UNL     1     -40.765 -50.756  13.999  1.00  0.00     0.164 HD
ENDBRANCH   1  13
TORSDOF 4
ENDMDL
MODEL 9
REMARK VINA RESULT:      -5.3      2.604      3.293
REMARK  4 active torsions:
REMARK  status: ('A' for Active; 'I' for Inactive)
REMARK    1  A    between atoms: C_2  and  C_4 
REMARK    2  A    between atoms: C_8  and  C_9 
REMARK    3  A    between atoms: C_9  and  C_10 
REMARK    4  A    between atoms: C_10  and  N_11 
REMARK       I    between atoms: N_11  and  C_12 
REMARK       I    between atoms: C_12  and  N_14 
ROOT
HETATM    1  C   UNL     1     -41.020 -50.092  12.446  1.00  0.00     0.132 C 
ENDROOT
BRANCH   1   2
HETATM    2  C   UNL     1     -40.727 -49.471  11.078  1.00  0.00     0.106 C 
BRANCH   2   3
HETATM    3  C   UNL     1     -40.883 -47.994  11.065  1.00  0.00     0.149 A 
HETATM    4  O   UNL     1     -41.963 -47.509  11.747  1.00  0.00    -0.223 OA
HETATM    5  N   UNL     1     -41.906 -46.121  11.658  1.00  0.00    -0.247 N 
HETATM    6  C   UNL     1     -40.801 -45.902  10.934  1.00  0.00     0.107 A 
ATOM      7  HN  UNL     1     -42.551 -45.435  12.050  1.00  0.00     0.196 HD
HETATM    8  N   UNL     1     -40.131 -47.043  10.547  1.00  0.00    -0.327 N 
ATOM      9  HN  UNL     1     -39.274 -47.130  10.000  1.00  0.00     0.169 HD
BRANCH   6  10
HETATM   10  C   UNL     1     -40.349 -44.516  10.598  1.00  0.00     0.047 C 
HETATM   11  C   UNL     1     -40.022 -43.702  11.848  1.00  0.00     0.017 C 
HETATM   12  C   UNL     1     -39.160 -44.527   9.638  1.00  0.00     0.017 C 
ENDBRANCH   6  10
ENDBRANCH   2   3
ENDBRANCH   1   2
BRANCH   1  13
HETATM   13  N   UNL     1     -42.411 -50.524  12.620  1.00  0.00    -0.343 N 
HETATM   14  C   UNL     1     -42.735 -51.855  12.580  1.00  0.00     0.318 C 
HETATM   15  O   UNL     1     -41.889 -52.706  12.306  1.00  0.00    -0.247 OA
HETATM   16  N   UNL     1     -44.047 -52.183  12.835  1.00  0.00    -0.330 N 
HETATM   17  C   UNL     1     -45.163 -51.296  13.180  1.00  0.00     0.153 C 
HETATM   18  C   UNL     1     -44.457 -53.589  12.720  1.00  0.00     0.159 C 
HETATM   19  C   UNL     1     -45.880 -51.817  14.435  1.00  0.00     0.188 C 
HETATM   20  O   UNL     1     -46.303 -53.180  14.272  1.00  0.00    -0.383 OA
HETATM   21  C   UNL     1     -45.179 -54.041  14.001  1.00  0.00     0.135 C 
HETATM   22  C   UNL     1     -45.701 -55.466  13.868  1.00  0.00     0.041 C 
HETATM   23  H   UNL     1     -42.949 -49.967  13.263  1.00  0.00     0.164 HD
ENDBRANCH   1  13
TORSDOF 4
ENDMDL
