MODEL 1
REMARK VINA RESULT:      -5.9      0.000      0.000
REMARK  4 active torsions:
REMARK  status: ('A' for Active; 'I' for Inactive)
REMARK    1  A    between atoms: C_2  and  C_3 
REMARK    2  A    between atoms: C_2  and  C_14 
REMARK    3  A    between atoms: C_3  and  N_4 
REMARK       I    between atoms: N_4  and  C_5 
REMARK    4  A    between atoms: C_5  and  C_7 
ROOT
HETATM    1  C   UNL     1     -46.484 -53.576  14.550  1.00  0.00     0.131 C 
ENDROOT
BRANCH   1   2
HETATM    2  C   UNL     1     -46.717 -52.060  14.392  1.00  0.00     0.037 C 
HETATM    3  C   UNL     1     -46.323 -51.577  12.992  1.00  0.00     0.017 C 
BRANCH   2   4
HETATM    4  C   UNL     1     -46.102 -51.263  15.514  1.00  0.00     0.003 A 
HETATM    5  C   UNL     1     -46.744 -50.843  16.722  1.00  0.00     0.038 A 
HETATM    6  C   UNL     1     -48.134 -51.066  17.187  1.00  0.00     0.071 C 
HETATM    7  N   UNL     1     -45.908 -50.155  17.506  1.00  0.00    -0.265 N 
HETATM    8  O   UNL     1     -44.711 -50.104  16.832  1.00  0.00    -0.242 OA
ATOM      9  HN  UNL     1     -46.116 -49.750  18.419  1.00  0.00     0.194 HD
HETATM   10  C   UNL     1     -44.821 -50.765  15.650  1.00  0.00     0.081 A 
HETATM   11  C   UNL     1     -43.595 -50.781  14.825  1.00  0.00     0.079 C 
ENDBRANCH   2   4
ENDBRANCH   1   2
BRANCH   1  12
HETATM   12  N   UNL     1     -45.180 -54.037  14.093  1.00  0.00    -0.360 N 
HETATM   13  C   UNL     1     -44.221 -54.432  15.003  1.00  0.00     0.223 C 
HETATM   14  O   UNL     1     -44.453 -54.556  16.201  1.00  0.00    -0.273 OA
HETATM   15  H   UNL     1     -44.881 -53.745  13.171  1.00  0.00     0.162 HD
BRANCH  13  16
HETATM   16  C   UNL     1     -42.873 -54.757  14.389  1.00  0.00     0.104 C 
HETATM   17  C   UNL     1     -41.734 -54.371  15.325  1.00  0.00     0.139 C 
HETATM   18  N   UNL     1     -40.652 -54.023  14.442  1.00  0.00    -0.356 N 
HETATM   19  C   UNL     1     -39.403 -53.507  14.954  1.00  0.00     0.152 C 
HETATM   20  C   UNL     1     -41.116 -53.657  13.188  1.00  0.00     0.220 C 
HETATM   21  O   UNL     1     -40.468 -53.130  12.298  1.00  0.00    -0.273 OA
HETATM   22  C   UNL     1     -42.591 -53.958  13.117  1.00  0.00     0.118 C 
ENDBRANCH  13  16
ENDBRANCH   1  12
TORSDOF 4
ENDMDL
MODEL 2
REMARK VINA RESULT:      -5.8      4.639      7.013
REMARK  4 active torsions:
REMARK  status: ('A' for Active; 'I' for Inactive)
REMARK    1  A    between atoms: C_2  and  C_3 
REMARK    2  A    between atoms: C_2  and  C_14 
REMARK    3  A    between atoms: C_3  and  N_4 
REMARK       I    between atoms: N_4  and  C_5 
REMARK    4  A    between atoms: C_5  and  C_7 
ROOT
HETATM    1  C   UNL     1     -42.451 -49.696  13.014  1.00  0.00     0.131 C 
ENDROOT
BRANCH   1   2
HETATM    2  C   UNL     1     -43.611 -50.380  13.765  1.00  0.00     0.037 C 
HETATM    3  C   UNL     1     -43.339 -50.444  15.271  1.00  0.00     0.017 C 
BRANCH   2   4
HETATM    4  C   UNL     1     -43.994 -51.702  13.151  1.00  0.00     0.003 A 
HETATM    5  C   UNL     1     -43.113 -52.772  12.796  1.00  0.00     0.038 A 
HETATM    6  C   UNL     1     -41.639 -52.874  12.929  1.00  0.00     0.071 C 
HETATM    7  N   UNL     1     -43.783 -53.806  12.277  1.00  0.00    -0.265 N 
HETATM    8  O   UNL     1     -45.107 -53.436  12.275  1.00  0.00    -0.242 OA
ATOM      9  HN  UNL     1     -43.391 -54.689  11.950  1.00  0.00     0.194 HD
HETATM   10  C   UNL     1     -45.237 -52.190  12.797  1.00  0.00     0.081 A 
HETATM   11  C   UNL     1     -46.620 -51.673  12.849  1.00  0.00     0.079 C 
ENDBRANCH   2   4
ENDBRANCH   1   2
BRANCH   1  12
HETATM   12  N   UNL     1     -42.840 -49.032  11.777  1.00  0.00    -0.360 N 
HETATM   13  C   UNL     1     -43.174 -47.693  11.778  1.00  0.00     0.223 C 
HETATM   14  O   UNL     1     -43.022 -46.972  12.758  1.00  0.00    -0.273 OA
HETATM   15  H   UNL     1     -43.185 -49.616  11.026  1.00  0.00     0.162 HD
BRANCH  13  16
HETATM   16  C   UNL     1     -43.687 -47.176  10.448  1.00  0.00     0.104 C 
HETATM   17  C   UNL     1     -45.028 -47.805  10.092  1.00  0.00     0.139 C 
HETATM   18  N   UNL     1     -45.026 -47.854   8.654  1.00  0.00    -0.356 N 
HETATM   19  C   UNL     1     -46.106 -48.478   7.924  1.00  0.00     0.152 C 
HETATM   20  C   UNL     1     -43.737 -47.834   8.145  1.00  0.00     0.220 C 
HETATM   21  O   UNL     1     -43.406 -48.058   6.992  1.00  0.00    -0.273 OA
HETATM   22  C   UNL     1     -42.781 -47.551   9.276  1.00  0.00     0.118 C 
ENDBRANCH  13  16
ENDBRANCH   1  12
TORSDOF 4
ENDMDL
MODEL 3
REMARK VINA RESULT:      -5.5      4.372      5.694
REMARK  4 active torsions:
REMARK  status: ('A' for Active; 'I' for Inactive)
REMARK    1  A    between atoms: C_2  and  C_3 
REMARK    2  A    between atoms: C_2  and  C_14 
REMARK    3  A    between atoms: C_3  and  N_4 
REMARK       I    between atoms: N_4  and  C_5 
REMARK    4  A    between atoms: C_5  and  C_7 
ROOT
HETATM    1  C   UNL     1     -44.329 -50.697  13.769  1.00  0.00     0.131 C 
ENDROOT
BRANCH   1   2
HETATM    2  C   UNL     1     -45.151 -51.963  13.451  1.00  0.00     0.037 C 
HETATM    3  C   UNL     1     -46.428 -51.619  12.677  1.00  0.00     0.017 C 
BRANCH   2   4
HETATM    4  C   UNL     1     -45.381 -52.821  14.668  1.00  0.00     0.003 A 
HETATM    5  C   UNL     1     -46.289 -52.563  15.743  1.00  0.00     0.038 A 
HETATM    6  C   UNL     1     -47.218 -51.425  15.950  1.00  0.00     0.071 C 
HETATM    7  N   UNL     1     -46.247 -53.531  16.663  1.00  0.00    -0.265 N 
HETATM    8  O   UNL     1     -45.313 -54.437  16.217  1.00  0.00    -0.242 OA
ATOM      9  HN  UNL     1     -46.796 -53.588  17.521  1.00  0.00     0.194 HD
HETATM   10  C   UNL     1     -44.800 -54.021  15.031  1.00  0.00     0.081 A 
HETATM   11  C   UNL     1     -43.778 -54.912  14.443  1.00  0.00     0.079 C 
ENDBRANCH   2   4
ENDBRANCH   1   2
BRANCH   1  12
HETATM   12  N   UNL     1     -43.621 -50.135  12.627  1.00  0.00    -0.360 N 
HETATM   13  C   UNL     1     -43.086 -48.865  12.694  1.00  0.00     0.223 C 
HETATM   14  O   UNL     1     -43.046 -48.215  13.733  1.00  0.00    -0.273 OA
HETATM   15  H   UNL     1     -43.823 -50.528  11.717  1.00  0.00     0.162 HD
BRANCH  13  16
HETATM   16  C   UNL     1     -42.498 -48.365  11.388  1.00  0.00     0.104 C 
HETATM   17  C   UNL     1     -41.283 -47.479  11.635  1.00  0.00     0.139 C 
HETATM   18  N   UNL     1     -41.298 -46.545  10.540  1.00  0.00    -0.356 N 
HETATM   19  C   UNL     1     -40.341 -45.464  10.464  1.00  0.00     0.152 C 
HETATM   20  C   UNL     1     -42.567 -46.415   9.998  1.00  0.00     0.220 C 
HETATM   21  O   UNL     1     -42.935 -45.567   9.201  1.00  0.00    -0.273 OA
HETATM   22  C   UNL     1     -43.458 -47.466  10.610  1.00  0.00     0.118 C 
ENDBRANCH  13  16
ENDBRANCH   1  12
TORSDOF 4
ENDMDL
MODEL 4
REMARK VINA RESULT:      -5.5      4.947      6.832
REMARK  4 active torsions:
REMARK  status: ('A' for Active; 'I' for Inactive)
REMARK    1  A    between atoms: C_2  and  C_3 
REMARK    2  A    between atoms: C_2  and  C_14 
REMARK    3  A    between atoms: C_3  and  N_4 
REMARK       I    between atoms: N_4  and  C_5 
REMARK    4  A    between atoms: C_5  and  C_7 
ROOT
HETATM    1  C   UNL     1     -42.150 -50.984  12.561  1.00  0.00     0.131 C 
ENDROOT
BRANCH   1   2
HETATM    2  C   UNL     1     -43.519 -50.971  13.271  1.00  0.00     0.037 C 
HETATM    3  C   UNL     1     -43.398 -50.449  14.706  1.00  0.00     0.017 C 
BRANCH   2   4
HETATM    4  C   UNL     1     -44.242 -52.289  13.154  1.00  0.00     0.003 A 
HETATM    5  C   UNL     1     -43.726 -53.583  13.481  1.00  0.00     0.038 A 
HETATM    6  C   UNL     1     -42.394 -53.972  14.004  1.00  0.00     0.071 C 
HETATM    7  N   UNL     1     -44.633 -54.540  13.263  1.00  0.00    -0.265 N 
HETATM    8  O   UNL     1     -45.753 -53.899  12.787  1.00  0.00    -0.242 OA
ATOM      9  HN  UNL     1     -44.519 -55.542  13.418  1.00  0.00     0.194 HD
HETATM   10  C   UNL     1     -45.525 -52.562  12.725  1.00  0.00     0.081 A 
HETATM   11  C   UNL     1     -46.658 -51.756  12.224  1.00  0.00     0.079 C 
ENDBRANCH   2   4
ENDBRANCH   1   2
BRANCH   1  12
HETATM   12  N   UNL     1     -41.971 -49.927  11.575  1.00  0.00    -0.360 N 
HETATM   13  C   UNL     1     -41.121 -48.871  11.831  1.00  0.00     0.223 C 
HETATM   14  O   UNL     1     -40.377 -48.838  12.805  1.00  0.00    -0.273 OA
HETATM   15  H   UNL     1     -42.706 -49.802  10.890  1.00  0.00     0.162 HD
BRANCH  13  16
HETATM   16  C   UNL     1     -41.140 -47.783  10.774  1.00  0.00     0.104 C 
HETATM   17  C   UNL     1     -40.163 -46.666  11.116  1.00  0.00     0.139 C 
HETATM   18  N   UNL     1     -40.765 -45.484  10.557  1.00  0.00    -0.356 N 
HETATM   19  C   UNL     1     -40.177 -44.179  10.752  1.00  0.00     0.152 C 
HETATM   20  C   UNL     1     -42.134 -45.636  10.401  1.00  0.00     0.220 C 
HETATM   21  O   UNL     1     -42.938 -44.756  10.140  1.00  0.00    -0.273 OA
HETATM   22  C   UNL     1     -42.490 -47.075  10.675  1.00  0.00     0.118 C 
ENDBRANCH  13  16
ENDBRANCH   1  12
TORSDOF 4
ENDMDL
MODEL 5
REMARK VINA RESULT:      -5.5      4.834      6.508
REMARK  4 active torsions:
REMARK  status: ('A' for Active; 'I' for Inactive)
REMARK    1  A    between atoms: C_2  and  C_3 
REMARK    2  A    between atoms: C_2  and  C_14 
REMARK    3  A    between atoms: C_3  and  N_4 
REMARK       I    between atoms: N_4  and  C_5 
REMARK    4  A    between atoms: C_5  and  C_7 
ROOT
HETATM    1  C   UNL     1     -42.247 -51.105  12.606  1.00  0.00     0.131 C 
ENDROOT
BRANCH   1   2
HETATM    2  C   UNL     1     -43.607 -50.963  13.319  1.00  0.00     0.037 C 
HETATM    3  C   UNL     1     -43.467 -50.197  14.638  1.00  0.00     0.017 C 
BRANCH   2   4
HETATM    4  C   UNL     1     -44.331 -52.279  13.445  1.00  0.00     0.003 A 
HETATM    5  C   UNL     1     -45.671 -52.566  13.031  1.00  0.00     0.038 A 
HETATM    6  C   UNL     1     -46.677 -51.686  12.389  1.00  0.00     0.071 C 
HETATM    7  N   UNL     1     -45.999 -53.836  13.286  1.00  0.00    -0.265 N 
HETATM    8  O   UNL     1     -44.894 -54.404  13.873  1.00  0.00    -0.242 OA
ATOM      9  HN  UNL     1     -46.890 -54.292  13.085  1.00  0.00     0.194 HD
HETATM   10  C   UNL     1     -43.900 -53.483  13.965  1.00  0.00     0.081 A 
HETATM   11  C   UNL     1     -42.650 -53.971  14.585  1.00  0.00     0.079 C 
ENDBRANCH   2   4
ENDBRANCH   1   2
BRANCH   1  12
HETATM   12  N   UNL     1     -41.976 -50.075  11.612  1.00  0.00    -0.360 N 
HETATM   13  C   UNL     1     -41.139 -49.020  11.911  1.00  0.00     0.223 C 
HETATM   14  O   UNL     1     -40.478 -48.969  12.942  1.00  0.00    -0.273 OA
HETATM   15  H   UNL     1     -42.651 -49.961  10.866  1.00  0.00     0.162 HD
BRANCH  13  16
HETATM   16  C   UNL     1     -41.060 -47.959  10.830  1.00  0.00     0.104 C 
HETATM   17  C   UNL     1     -40.186 -46.791  11.267  1.00  0.00     0.139 C 
HETATM   18  N   UNL     1     -40.756 -45.651  10.597  1.00  0.00    -0.356 N 
HETATM   19  C   UNL     1     -40.256 -44.316  10.832  1.00  0.00     0.152 C 
HETATM   20  C   UNL     1     -42.083 -45.869  10.262  1.00  0.00     0.220 C 
HETATM   21  O   UNL     1     -42.881 -45.034   9.868  1.00  0.00    -0.273 OA
HETATM   22  C   UNL     1     -42.412 -47.316  10.528  1.00  0.00     0.118 C 
ENDBRANCH  13  16
ENDBRANCH   1  12
TORSDOF 4
ENDMDL
MODEL 6
REMARK VINA RESULT:      -5.4      1.667      2.353
REMARK  4 active torsions:
REMARK  status: ('A' for Active; 'I' for Inactive)
REMARK    1  A    between atoms: C_2  and  C_3 
REMARK    2  A    between atoms: C_2  and  C_14 
REMARK    3  A    between atoms: C_3  and  N_4 
REMARK       I    between atoms: N_4  and  C_5 
REMARK    4  A    between atoms: C_5  and  C_7 
ROOT
HETATM    1  C   UNL     1     -45.549 -53.157  16.275  1.00  0.00     0.131 C 
ENDROOT
BRANCH   1   2
HETATM    2  C   UNL     1     -45.889 -51.675  16.023  1.00  0.00     0.037 C 
HETATM    3  C   UNL     1     -47.403 -51.455  15.946  1.00  0.00     0.017 C 
BRANCH   2   4
HETATM    4  C   UNL     1     -45.123 -51.098  14.861  1.00  0.00     0.003 A 
HETATM    5  C   UNL     1     -45.348 -51.354  13.471  1.00  0.00     0.038 A 
HETATM    6  C   UNL     1     -46.355 -52.223  12.815  1.00  0.00     0.071 C 
HETATM    7  N   UNL     1     -44.490 -50.675  12.703  1.00  0.00    -0.265 N 
HETATM    8  O   UNL     1     -43.687 -49.968  13.567  1.00  0.00    -0.242 OA
ATOM      9  HN  UNL     1     -44.441 -50.680  11.684  1.00  0.00     0.194 HD
HETATM   10  C   UNL     1     -44.062 -50.213  14.848  1.00  0.00     0.081 A 
HETATM   11  C   UNL     1     -43.271 -49.510  15.879  1.00  0.00     0.079 C 
ENDBRANCH   2   4
ENDBRANCH   1   2
BRANCH   1  12
HETATM   12  N   UNL     1     -44.215 -53.552  15.845  1.00  0.00    -0.360 N 
HETATM   13  C   UNL     1     -44.046 -54.609  14.974  1.00  0.00     0.223 C 
HETATM   14  O   UNL     1     -44.986 -55.163  14.413  1.00  0.00    -0.273 OA
HETATM   15  H   UNL     1     -43.438 -53.283  16.436  1.00  0.00     0.162 HD
BRANCH  13  16
HETATM   16  C   UNL     1     -42.599 -54.988  14.723  1.00  0.00     0.104 C 
HETATM   17  C   UNL     1     -41.713 -54.581  15.894  1.00  0.00     0.139 C 
HETATM   18  N   UNL     1     -40.438 -54.295  15.291  1.00  0.00    -0.356 N 
HETATM   19  C   UNL     1     -39.338 -53.780  16.073  1.00  0.00     0.152 C 
HETATM   20  C   UNL     1     -40.570 -53.978  13.947  1.00  0.00     0.220 C 
HETATM   21  O   UNL     1     -39.709 -53.505  13.223  1.00  0.00    -0.273 OA
HETATM   22  C   UNL     1     -41.992 -54.254  13.529  1.00  0.00     0.118 C 
ENDBRANCH  13  16
ENDBRANCH   1  12
TORSDOF 4
ENDMDL
MODEL 7
REMARK VINA RESULT:      -5.4      4.650      6.455
REMARK  4 active torsions:
REMARK  status: ('A' for Active; 'I' for Inactive)
REMARK    1  A    between atoms: C_2  and  C_3 
REMARK    2  A    between atoms: C_2  and  C_14 
REMARK    3  A    between atoms: C_3  and  N_4 
REMARK       I    between atoms: N_4  and  C_5 
REMARK    4  A    between atoms: C_5  and  C_7 
ROOT
HETATM    1  C   UNL     1     -41.038 -49.692  11.395  1.00  0.00     0.131 C 
ENDROOT
BRANCH   1   2
HETATM    2  C   UNL     1     -41.569 -48.459  12.153  1.00  0.00     0.037 C 
HETATM    3  C   UNL     1     -42.931 -48.743  12.794  1.00  0.00     0.017 C 
BRANCH   2   4
HETATM    4  C   UNL     1     -41.533 -47.207  11.314  1.00  0.00     0.003 A 
HETATM    5  C   UNL     1     -40.710 -46.055  11.525  1.00  0.00     0.038 A 
HETATM    6  C   UNL     1     -39.707 -45.784  12.583  1.00  0.00     0.071 C 
HETATM    7  N   UNL     1     -40.924 -45.124  10.591  1.00  0.00    -0.265 N 
HETATM    8  O   UNL     1     -41.889 -45.638   9.757  1.00  0.00    -0.242 OA
ATOM      9  HN  UNL     1     -40.466 -44.216  10.513  1.00  0.00     0.194 HD
HETATM   10  C   UNL     1     -42.249 -46.877  10.180  1.00  0.00     0.081 A 
HETATM   11  C   UNL     1     -43.286 -47.541   9.364  1.00  0.00     0.079 C 
ENDBRANCH   2   4
ENDBRANCH   1   2
BRANCH   1  12
HETATM   12  N   UNL     1     -41.690 -50.946  11.749  1.00  0.00    -0.360 N 
HETATM   13  C   UNL     1     -40.947 -52.014  12.209  1.00  0.00     0.223 C 
HETATM   14  O   UNL     1     -39.754 -51.925  12.479  1.00  0.00    -0.273 OA
HETATM   15  H   UNL     1     -42.598 -51.128  11.341  1.00  0.00     0.162 HD
BRANCH  13  16
HETATM   16  C   UNL     1     -41.743 -53.289  12.408  1.00  0.00     0.104 C 
HETATM   17  C   UNL     1     -43.238 -53.003  12.457  1.00  0.00     0.139 C 
HETATM   18  N   UNL     1     -43.765 -54.017  13.332  1.00  0.00    -0.356 N 
HETATM   19  C   UNL     1     -45.159 -54.030  13.711  1.00  0.00     0.152 C 
HETATM   20  C   UNL     1     -42.789 -54.514  14.181  1.00  0.00     0.220 C 
HETATM   21  O   UNL     1     -42.966 -55.231  15.153  1.00  0.00    -0.273 OA
HETATM   22  C   UNL     1     -41.453 -53.967  13.746  1.00  0.00     0.118 C 
ENDBRANCH  13  16
ENDBRANCH   1  12
TORSDOF 4
ENDMDL
MODEL 8
REMARK VINA RESULT:      -5.3      4.036      6.071
REMARK  4 active torsions:
REMARK  status: ('A' for Active; 'I' for Inactive)
REMARK    1  A    between atoms: C_2  and  C_3 
REMARK    2  A    between atoms: C_2  and  C_14 
REMARK    3  A    between atoms: C_3  and  N_4 
REMARK       I    between atoms: N_4  and  C_5 
REMARK    4  A    between atoms: C_5  and  C_7 
ROOT
HETATM    1  C   UNL     1     -41.445 -50.588  11.789  1.00  0.00     0.131 C 
ENDROOT
BRANCH   1   2
HETATM    2  C   UNL     1     -41.621 -49.295  12.610  1.00  0.00     0.037 C 
HETATM    3  C   UNL     1     -43.081 -49.093  13.026  1.00  0.00     0.017 C 
BRANCH   2   4
HETATM    4  C   UNL     1     -41.000 -48.097  11.939  1.00  0.00     0.003 A 
HETATM    5  C   UNL     1     -41.404 -47.499  10.703  1.00  0.00     0.038 A 
HETATM    6  C   UNL     1     -42.501 -47.875   9.778  1.00  0.00     0.071 C 
HETATM    7  N   UNL     1     -40.640 -46.446  10.397  1.00  0.00    -0.265 N 
HETATM    8  O   UNL     1     -39.722 -46.335  11.414  1.00  0.00    -0.242 OA
ATOM      9  HN  UNL     1     -40.722 -45.846   9.575  1.00  0.00     0.194 HD
HETATM   10  C   UNL     1     -39.935 -47.311  12.333  1.00  0.00     0.081 A 
HETATM   11  C   UNL     1     -39.007 -47.302  13.483  1.00  0.00     0.079 C 
ENDBRANCH   2   4
ENDBRANCH   1   2
BRANCH   1  12
HETATM   12  N   UNL     1     -42.056 -51.769  12.383  1.00  0.00    -0.360 N 
HETATM   13  C   UNL     1     -41.294 -52.886  12.660  1.00  0.00     0.223 C 
HETATM   14  O   UNL     1     -40.072 -52.895  12.565  1.00  0.00    -0.273 OA
HETATM   15  H   UNL     1     -43.056 -51.881  12.269  1.00  0.00     0.162 HD
BRANCH  13  16
HETATM   16  C   UNL     1     -42.090 -54.080  13.150  1.00  0.00     0.104 C 
HETATM   17  C   UNL     1     -43.579 -53.894  12.888  1.00  0.00     0.139 C 
HETATM   18  N   UNL     1     -44.220 -54.606  13.961  1.00  0.00    -0.356 N 
HETATM   19  C   UNL     1     -45.657 -54.590  14.120  1.00  0.00     0.152 C 
HETATM   20  C   UNL     1     -43.382 -54.738  15.057  1.00  0.00     0.220 C 
HETATM   21  O   UNL     1     -43.698 -55.115  16.175  1.00  0.00    -0.273 OA
HETATM   22  C   UNL     1     -42.003 -54.271  14.664  1.00  0.00     0.118 C 
ENDBRANCH  13  16
ENDBRANCH   1  12
TORSDOF 4
ENDMDL
MODEL 9
REMARK VINA RESULT:      -5.3      3.088      6.266
REMARK  4 active torsions:
REMARK  status: ('A' for Active; 'I' for Inactive)
REMARK    1  A    between atoms: C_2  and  C_3 
REMARK    2  A    between atoms: C_2  and  C_14 
REMARK    3  A    between atoms: C_3  and  N_4 
REMARK       I    between atoms: N_4  and  C_5 
REMARK    4  A    between atoms: C_5  and  C_7 
ROOT
HETATM    1  C   UNL     1     -39.190 -51.376  14.854  1.00  0.00     0.131 C 
ENDROOT
BRANCH   1   2
HETATM    2  C   UNL     1     -39.360 -49.920  14.375  1.00  0.00     0.037 C 
HETATM    3  C   UNL     1     -40.202 -49.104  15.360  1.00  0.00     0.017 C 
BRANCH   2   4
HETATM    4  C   UNL     1     -39.829 -49.835  12.946  1.00  0.00     0.003 A 
HETATM    5  C   UNL     1     -39.020 -49.930  11.769  1.00  0.00     0.038 A 
HETATM    6  C   UNL     1     -37.557 -50.132  11.634  1.00  0.00     0.071 C 
HETATM    7  N   UNL     1     -39.757 -49.817  10.659  1.00  0.00    -0.265 N 
HETATM    8  O   UNL     1     -41.053 -49.640  11.081  1.00  0.00    -0.242 OA
ATOM      9  HN  UNL     1     -39.424 -49.855   9.695  1.00  0.00     0.194 HD
HETATM   10  C   UNL     1     -41.100 -49.654  12.438  1.00  0.00     0.081 A 
HETATM   11  C   UNL     1     -42.446 -49.471  13.020  1.00  0.00     0.079 C 
ENDBRANCH   2   4
ENDBRANCH   1   2
BRANCH   1  12
HETATM   12  N   UNL     1     -40.307 -52.253  14.527  1.00  0.00    -0.360 N 
HETATM   13  C   UNL     1     -40.098 -53.413  13.810  1.00  0.00     0.223 C 
HETATM   14  O   UNL     1     -38.978 -53.836  13.544  1.00  0.00    -0.273 OA
HETATM   15  H   UNL     1     -41.233 -51.844  14.527  1.00  0.00     0.162 HD
BRANCH  13  16
HETATM   16  C   UNL     1     -41.367 -54.151  13.431  1.00  0.00     0.104 C 
HETATM   17  C   UNL     1     -42.366 -53.218  12.758  1.00  0.00     0.139 C 
HETATM   18  N   UNL     1     -43.652 -53.752  13.123  1.00  0.00    -0.356 N 
HETATM   19  C   UNL     1     -44.876 -53.082  12.748  1.00  0.00     0.152 C 
HETATM   20  C   UNL     1     -43.578 -54.510  14.281  1.00  0.00     0.220 C 
HETATM   21  O   UNL     1     -44.517 -54.924  14.941  1.00  0.00    -0.273 OA
HETATM   22  C   UNL     1     -42.125 -54.690  14.643  1.00  0.00     0.118 C 
ENDBRANCH  13  16
ENDBRANCH   1  12
TORSDOF 4
ENDMDL
