MODEL 1
REMARK VINA RESULT:      -6.3      0.000      0.000
REMARK  6 active torsions:
REMARK  status: ('A' for Active; 'I' for Inactive)
REMARK    1  A    between atoms: C_7  and  O_8 
REMARK    2  A    between atoms: O_8  and  C_9 
REMARK    3  A    between atoms: C_9  and  C_10 
REMARK    4  A    between atoms: C_10  and  N_11 
REMARK    5  A    between atoms: C_12  and  C_13 
REMARK    6  A    between atoms: C_13  and  O_14 
ROOT
HETATM    1  N   UNL     1     -42.682 -52.719  14.218  1.00  0.00    -0.331 N 
HETATM    2  C   UNL     1     -42.407 -53.434  13.058  1.00  0.00     0.108 A 
HETATM    3  N   UNL     1     -43.451 -53.446  12.254  1.00  0.00    -0.342 N 
ATOM      4  HN  UNL     1     -43.510 -53.877  11.331  1.00  0.00     0.167 HD
HETATM    5  C   UNL     1     -44.437 -52.764  12.906  1.00  0.00     0.060 A 
HETATM    6  C   UNL     1     -45.756 -52.521  12.484  1.00  0.00     0.032 A 
HETATM    7  C   UNL     1     -46.616 -51.790  13.308  1.00  0.00     0.002 A 
HETATM    8  C   UNL     1     -46.172 -51.313  14.532  1.00  0.00     0.002 A 
HETATM    9  C   UNL     1     -44.868 -51.560  14.974  1.00  0.00     0.032 A 
HETATM   10  C   UNL     1     -43.996 -52.291  14.142  1.00  0.00     0.062 A 
ENDROOT
BRANCH   1  11
HETATM   11  C   UNL     1     -41.693 -52.506  15.274  1.00  0.00     0.157 C 
BRANCH  11  12
HETATM   12  C   UNL     1     -40.833 -51.253  15.161  1.00  0.00     0.196 C 
BRANCH  12  13
HETATM   13  O   UNL     1     -40.927 -50.630  13.892  1.00  0.00    -0.349 OA
BRANCH  13  14
HETATM   14  C   UNL     1     -39.828 -50.413  13.110  1.00  0.00     0.074 A 
HETATM   15  C   UNL     1     -39.636 -49.566  12.003  1.00  0.00    -0.029 A 
HETATM   16  C   UNL     1     -40.649 -48.627  11.407  1.00  0.00     0.051 C 
HETATM   17  C   UNL     1     -38.364 -49.549  11.386  1.00  0.00     0.009 A 
HETATM   18  C   UNL     1     -37.303 -50.319  11.862  1.00  0.00     0.001 A 
HETATM   19  C   UNL     1     -37.489 -51.120  12.975  1.00  0.00     0.003 A 
HETATM   20  C   UNL     1     -38.737 -51.161  13.591  1.00  0.00     0.037 A 
ENDBRANCH  13  14
ENDBRANCH  12  13
ENDBRANCH  11  12
ENDBRANCH   1  11
BRANCH   2  21
HETATM   21  C   UNL     1     -41.122 -54.131  12.761  1.00  0.00     0.240 C 
BRANCH  21  22
HETATM   22  O   UNL     1     -40.542 -53.534  11.610  1.00  0.00    -0.393 OA
HETATM   23  H   UNL     1     -41.180 -52.863  11.309  1.00  0.00     0.209 HD
ENDBRANCH  21  22
ENDBRANCH   2  21
TORSDOF 6
ENDMDL
MODEL 2
REMARK VINA RESULT:      -6.2      2.140      3.520
REMARK  6 active torsions:
REMARK  status: ('A' for Active; 'I' for Inactive)
REMARK    1  A    between atoms: C_7  and  O_8 
REMARK    2  A    between atoms: O_8  and  C_9 
REMARK    3  A    between atoms: C_9  and  C_10 
REMARK    4  A    between atoms: C_10  and  N_11 
REMARK    5  A    between atoms: C_12  and  C_13 
REMARK    6  A    between atoms: C_13  and  O_14 
ROOT
HETATM    1  N   UNL     1     -42.649 -51.174  13.465  1.00  0.00    -0.331 N 
HETATM    2  C   UNL     1     -42.212 -52.054  12.483  1.00  0.00     0.108 A 
HETATM    3  N   UNL     1     -43.202 -52.811  12.054  1.00  0.00    -0.342 N 
ATOM      4  HN  UNL     1     -43.160 -53.521  11.323  1.00  0.00     0.167 HD
HETATM    5  C   UNL     1     -44.295 -52.452  12.789  1.00  0.00     0.060 A 
HETATM    6  C   UNL     1     -45.595 -52.985  12.735  1.00  0.00     0.032 A 
HETATM    7  C   UNL     1     -46.583 -52.469  13.578  1.00  0.00     0.002 A 
HETATM    8  C   UNL     1     -46.281 -51.445  14.462  1.00  0.00     0.002 A 
HETATM    9  C   UNL     1     -44.988 -50.915  14.540  1.00  0.00     0.032 A 
HETATM   10  C   UNL     1     -43.992 -51.428  13.686  1.00  0.00     0.062 A 
ENDROOT
BRANCH   1  11
HETATM   11  C   UNL     1     -41.774 -50.185  14.094  1.00  0.00     0.157 C 
BRANCH  11  12
HETATM   12  C   UNL     1     -42.031 -48.724  13.745  1.00  0.00     0.196 C 
BRANCH  12  13
HETATM   13  O   UNL     1     -41.316 -48.297  12.598  1.00  0.00    -0.349 OA
BRANCH  13  14
HETATM   14  C   UNL     1     -41.913 -47.581  11.600  1.00  0.00     0.074 A 
HETATM   15  C   UNL     1     -41.431 -46.523  10.807  1.00  0.00    -0.029 A 
HETATM   16  C   UNL     1     -40.056 -45.917  10.862  1.00  0.00     0.051 C 
HETATM   17  C   UNL     1     -42.292 -45.973   9.831  1.00  0.00     0.009 A 
HETATM   18  C   UNL     1     -43.578 -46.469   9.617  1.00  0.00     0.001 A 
HETATM   19  C   UNL     1     -44.030 -47.536  10.373  1.00  0.00     0.003 A 
HETATM   20  C   UNL     1     -43.204 -48.085  11.349  1.00  0.00     0.037 A 
ENDBRANCH  13  14
ENDBRANCH  12  13
ENDBRANCH  11  12
ENDBRANCH   1  11
BRANCH   2  21
HETATM   21  C   UNL     1     -40.808 -52.166  11.991  1.00  0.00     0.240 C 
BRANCH  21  22
HETATM   22  O   UNL     1     -40.679 -53.385  11.271  1.00  0.00    -0.393 OA
HETATM   23  H   UNL     1     -41.588 -53.665  11.060  1.00  0.00     0.209 HD
ENDBRANCH  21  22
ENDBRANCH   2  21
TORSDOF 6
ENDMDL
MODEL 3
REMARK VINA RESULT:      -6.1      1.117      1.992
REMARK  6 active torsions:
REMARK  status: ('A' for Active; 'I' for Inactive)
REMARK    1  A    between atoms: C_7  and  O_8 
REMARK    2  A    between atoms: O_8  and  C_9 
REMARK    3  A    between atoms: C_9  and  C_10 
REMARK    4  A    between atoms: C_10  and  N_11 
REMARK    5  A    between atoms: C_12  and  C_13 
REMARK    6  A    between atoms: C_13  and  O_14 
ROOT
HETATM    1  N   UNL     1     -42.648 -52.620  14.048  1.00  0.00    -0.331 N 
HETATM    2  C   UNL     1     -42.439 -53.470  12.969  1.00  0.00     0.108 A 
HETATM    3  N   UNL     1     -43.534 -53.586  12.243  1.00  0.00    -0.342 N 
ATOM      4  HN  UNL     1     -43.647 -54.127  11.386  1.00  0.00     0.167 HD
HETATM    5  C   UNL     1     -44.485 -52.836  12.872  1.00  0.00     0.060 A 
HETATM    6  C   UNL     1     -45.832 -52.654  12.513  1.00  0.00     0.032 A 
HETATM    7  C   UNL     1     -46.646 -51.834  13.298  1.00  0.00     0.002 A 
HETATM    8  C   UNL     1     -46.130 -51.208  14.422  1.00  0.00     0.002 A 
HETATM    9  C   UNL     1     -44.796 -51.391  14.803  1.00  0.00     0.032 A 
HETATM   10  C   UNL     1     -43.971 -52.212  14.010  1.00  0.00     0.062 A 
ENDROOT
BRANCH   1  11
HETATM   11  C   UNL     1     -41.595 -52.273  15.002  1.00  0.00     0.157 C 
BRANCH  11  12
HETATM   12  C   UNL     1     -40.777 -51.025  14.693  1.00  0.00     0.196 C 
BRANCH  12  13
HETATM   13  O   UNL     1     -40.393 -50.940  13.331  1.00  0.00    -0.349 OA
BRANCH  13  14
HETATM   14  C   UNL     1     -40.412 -49.757  12.648  1.00  0.00     0.074 A 
HETATM   15  C   UNL     1     -39.484 -48.700  12.607  1.00  0.00    -0.029 A 
HETATM   16  C   UNL     1     -38.166 -48.637  13.328  1.00  0.00     0.051 C 
HETATM   17  C   UNL     1     -39.777 -47.584  11.791  1.00  0.00     0.009 A 
HETATM   18  C   UNL     1     -40.933 -47.522  11.013  1.00  0.00     0.001 A 
HETATM   19  C   UNL     1     -41.821 -48.583  11.028  1.00  0.00     0.003 A 
HETATM   20  C   UNL     1     -41.559 -49.687  11.834  1.00  0.00     0.037 A 
ENDBRANCH  13  14
ENDBRANCH  12  13
ENDBRANCH  11  12
ENDBRANCH   1  11
BRANCH   2  21
HETATM   21  C   UNL     1     -41.167 -54.190  12.673  1.00  0.00     0.240 C 
BRANCH  21  22
HETATM   22  O   UNL     1     -40.454 -53.458  11.686  1.00  0.00    -0.393 OA
HETATM   23  H   UNL     1     -40.528 -53.979  10.866  1.00  0.00     0.209 HD
ENDBRANCH  21  22
ENDBRANCH   2  21
TORSDOF 6
ENDMDL
MODEL 4
REMARK VINA RESULT:      -6.1      2.210      5.585
REMARK  6 active torsions:
REMARK  status: ('A' for Active; 'I' for Inactive)
REMARK    1  A    between atoms: C_7  and  O_8 
REMARK    2  A    between atoms: O_8  and  C_9 
REMARK    3  A    between atoms: C_9  and  C_10 
REMARK    4  A    between atoms: C_10  and  N_11 
REMARK    5  A    between atoms: C_12  and  C_13 
REMARK    6  A    between atoms: C_13  and  O_14 
ROOT
HETATM    1  N   UNL     1     -41.634 -52.874  14.412  1.00  0.00    -0.331 N 
HETATM    2  C   UNL     1     -40.354 -53.220  13.994  1.00  0.00     0.108 A 
HETATM    3  N   UNL     1     -39.873 -52.320  13.159  1.00  0.00    -0.342 N 
ATOM      4  HN  UNL     1     -38.951 -52.318  12.724  1.00  0.00     0.167 HD
HETATM    5  C   UNL     1     -40.860 -51.392  12.996  1.00  0.00     0.060 A 
HETATM    6  C   UNL     1     -40.854 -50.246  12.181  1.00  0.00     0.032 A 
HETATM    7  C   UNL     1     -41.977 -49.414  12.159  1.00  0.00     0.002 A 
HETATM    8  C   UNL     1     -43.087 -49.720  12.931  1.00  0.00     0.002 A 
HETATM    9  C   UNL     1     -43.116 -50.865  13.735  1.00  0.00     0.032 A 
HETATM   10  C   UNL     1     -41.982 -51.702  13.765  1.00  0.00     0.062 A 
ENDROOT
BRANCH   1  11
HETATM   11  C   UNL     1     -42.398 -53.669  15.373  1.00  0.00     0.157 C 
BRANCH  11  12
HETATM   12  C   UNL     1     -43.300 -54.755  14.797  1.00  0.00     0.196 C 
BRANCH  12  13
HETATM   13  O   UNL     1     -44.668 -54.562  15.115  1.00  0.00    -0.349 OA
BRANCH  13  14
HETATM   14  C   UNL     1     -45.387 -53.519  14.604  1.00  0.00     0.074 A 
HETATM   15  C   UNL     1     -46.053 -52.456  15.244  1.00  0.00    -0.029 A 
HETATM   16  C   UNL     1     -46.105 -52.194  16.724  1.00  0.00     0.051 C 
HETATM   17  C   UNL     1     -46.723 -51.506  14.440  1.00  0.00     0.009 A 
HETATM   18  C   UNL     1     -46.713 -51.580  13.047  1.00  0.00     0.001 A 
HETATM   19  C   UNL     1     -46.023 -52.605  12.425  1.00  0.00     0.003 A 
HETATM   20  C   UNL     1     -45.366 -53.559  13.197  1.00  0.00     0.037 A 
ENDBRANCH  13  14
ENDBRANCH  12  13
ENDBRANCH  11  12
ENDBRANCH   1  11
BRANCH   2  21
HETATM   21  C   UNL     1     -39.621 -54.455  14.396  1.00  0.00     0.240 C 
BRANCH  21  22
HETATM   22  O   UNL     1     -38.843 -54.897  13.293  1.00  0.00    -0.393 OA
HETATM   23  H   UNL     1     -38.530 -55.789  13.530  1.00  0.00     0.209 HD
ENDBRANCH  21  22
ENDBRANCH   2  21
TORSDOF 6
ENDMDL
MODEL 5
REMARK VINA RESULT:      -6.1      2.059      6.568
REMARK  6 active torsions:
REMARK  status: ('A' for Active; 'I' for Inactive)
REMARK    1  A    between atoms: C_7  and  O_8 
REMARK    2  A    between atoms: O_8  and  C_9 
REMARK    3  A    between atoms: C_9  and  C_10 
REMARK    4  A    between atoms: C_10  and  N_11 
REMARK    5  A    between atoms: C_12  and  C_13 
REMARK    6  A    between atoms: C_13  and  O_14 
ROOT
HETATM    1  N   UNL     1     -40.256 -52.050  12.899  1.00  0.00    -0.331 N 
HETATM    2  C   UNL     1     -39.518 -52.819  13.792  1.00  0.00     0.108 A 
HETATM    3  N   UNL     1     -38.541 -52.111  14.326  1.00  0.00    -0.342 N 
ATOM      4  HN  UNL     1     -37.869 -52.424  15.026  1.00  0.00     0.167 HD
HETATM    5  C   UNL     1     -38.613 -50.876  13.750  1.00  0.00     0.060 A 
HETATM    6  C   UNL     1     -37.776 -49.766  13.960  1.00  0.00     0.032 A 
HETATM    7  C   UNL     1     -38.025 -48.578  13.267  1.00  0.00     0.002 A 
HETATM    8  C   UNL     1     -39.087 -48.498  12.379  1.00  0.00     0.002 A 
HETATM    9  C   UNL     1     -39.920 -49.598  12.147  1.00  0.00     0.032 A 
HETATM   10  C   UNL     1     -39.675 -50.795  12.849  1.00  0.00     0.062 A 
ENDROOT
BRANCH   1  11
HETATM   11  C   UNL     1     -41.426 -52.563  12.188  1.00  0.00     0.157 C 
BRANCH  11  12
HETATM   12  C   UNL     1     -42.776 -51.976  12.581  1.00  0.00     0.196 C 
BRANCH  12  13
HETATM   13  O   UNL     1     -43.834 -52.915  12.489  1.00  0.00    -0.349 OA
BRANCH  13  14
HETATM   14  C   UNL     1     -44.913 -52.872  13.327  1.00  0.00     0.074 A 
HETATM   15  C   UNL     1     -45.673 -53.906  13.906  1.00  0.00    -0.029 A 
HETATM   16  C   UNL     1     -45.442 -55.384  13.748  1.00  0.00     0.051 C 
HETATM   17  C   UNL     1     -46.749 -53.552  14.750  1.00  0.00     0.009 A 
HETATM   18  C   UNL     1     -47.051 -52.222  15.043  1.00  0.00     0.001 A 
HETATM   19  C   UNL     1     -46.274 -51.213  14.502  1.00  0.00     0.003 A 
HETATM   20  C   UNL     1     -45.217 -51.538  13.657  1.00  0.00     0.037 A 
ENDBRANCH  13  14
ENDBRANCH  12  13
ENDBRANCH  11  12
ENDBRANCH   1  11
BRANCH   2  21
HETATM   21  C   UNL     1     -39.760 -54.259  14.092  1.00  0.00     0.240 C 
BRANCH  21  22
HETATM   22  O   UNL     1     -38.829 -55.037  13.353  1.00  0.00    -0.393 OA
HETATM   23  H   UNL     1     -37.954 -54.653  13.542  1.00  0.00     0.209 HD
ENDBRANCH  21  22
ENDBRANCH   2  21
TORSDOF 6
ENDMDL
MODEL 6
REMARK VINA RESULT:      -6.0      2.672      6.322
REMARK  6 active torsions:
REMARK  status: ('A' for Active; 'I' for Inactive)
REMARK    1  A    between atoms: C_7  and  O_8 
REMARK    2  A    between atoms: O_8  and  C_9 
REMARK    3  A    between atoms: C_9  and  C_10 
REMARK    4  A    between atoms: C_10  and  N_11 
REMARK    5  A    between atoms: C_12  and  C_13 
REMARK    6  A    between atoms: C_13  and  O_14 
ROOT
HETATM    1  N   UNL     1     -40.895 -49.461  11.656  1.00  0.00    -0.331 N 
HETATM    2  C   UNL     1     -39.575 -49.029  11.603  1.00  0.00     0.108 A 
HETATM    3  N   UNL     1     -39.509 -47.761  11.247  1.00  0.00    -0.342 N 
ATOM      4  HN  UNL     1     -38.667 -47.193  11.155  1.00  0.00     0.167 HD
HETATM    5  C   UNL     1     -40.796 -47.364  11.028  1.00  0.00     0.060 A 
HETATM    6  C   UNL     1     -41.260 -46.107  10.602  1.00  0.00     0.032 A 
HETATM    7  C   UNL     1     -42.633 -45.902  10.440  1.00  0.00     0.002 A 
HETATM    8  C   UNL     1     -43.527 -46.931  10.693  1.00  0.00     0.002 A 
HETATM    9  C   UNL     1     -43.080 -48.192  11.102  1.00  0.00     0.032 A 
HETATM   10  C   UNL     1     -41.698 -48.400  11.273  1.00  0.00     0.062 A 
ENDROOT
BRANCH   1  11
HETATM   11  C   UNL     1     -41.273 -50.814  12.061  1.00  0.00     0.157 C 
BRANCH  11  12
HETATM   12  C   UNL     1     -42.219 -50.932  13.250  1.00  0.00     0.196 C 
BRANCH  12  13
HETATM   13  O   UNL     1     -43.490 -51.452  12.896  1.00  0.00    -0.349 OA
BRANCH  13  14
HETATM   14  C   UNL     1     -44.563 -51.372  13.737  1.00  0.00     0.074 A 
HETATM   15  C   UNL     1     -45.939 -51.537  13.494  1.00  0.00    -0.029 A 
HETATM   16  C   UNL     1     -46.582 -51.885  12.180  1.00  0.00     0.051 C 
HETATM   17  C   UNL     1     -46.832 -51.397  14.581  1.00  0.00     0.009 A 
HETATM   18  C   UNL     1     -46.382 -51.135  15.875  1.00  0.00     0.001 A 
HETATM   19  C   UNL     1     -45.025 -51.014  16.113  1.00  0.00     0.003 A 
HETATM   20  C   UNL     1     -44.129 -51.136  15.055  1.00  0.00     0.037 A 
ENDBRANCH  13  14
ENDBRANCH  12  13
ENDBRANCH  11  12
ENDBRANCH   1  11
BRANCH   2  21
HETATM   21  C   UNL     1     -38.380 -49.880  11.872  1.00  0.00     0.240 C 
BRANCH  21  22
HETATM   22  O   UNL     1     -37.765 -50.200  10.632  1.00  0.00    -0.393 OA
HETATM   23  H   UNL     1     -37.028 -49.571  10.532  1.00  0.00     0.209 HD
ENDBRANCH  21  22
ENDBRANCH   2  21
TORSDOF 6
ENDMDL
MODEL 7
REMARK VINA RESULT:      -5.9      1.971      2.627
REMARK  6 active torsions:
REMARK  status: ('A' for Active; 'I' for Inactive)
REMARK    1  A    between atoms: C_7  and  O_8 
REMARK    2  A    between atoms: O_8  and  C_9 
REMARK    3  A    between atoms: C_9  and  C_10 
REMARK    4  A    between atoms: C_10  and  N_11 
REMARK    5  A    between atoms: C_12  and  C_13 
REMARK    6  A    between atoms: C_13  and  O_14 
ROOT
HETATM    1  N   UNL     1     -42.718 -51.507  13.674  1.00  0.00    -0.331 N 
HETATM    2  C   UNL     1     -42.425 -52.277  12.554  1.00  0.00     0.108 A 
HETATM    3  N   UNL     1     -43.524 -52.788  12.035  1.00  0.00    -0.342 N 
ATOM      4  HN  UNL     1     -43.594 -53.368  11.199  1.00  0.00     0.167 HD
HETATM    5  C   UNL     1     -44.546 -52.383  12.842  1.00  0.00     0.060 A 
HETATM    6  C   UNL     1     -45.915 -52.686  12.735  1.00  0.00     0.032 A 
HETATM    7  C   UNL     1     -46.809 -52.163  13.673  1.00  0.00     0.002 A 
HETATM    8  C   UNL     1     -46.348 -51.355  14.701  1.00  0.00     0.002 A 
HETATM    9  C   UNL     1     -44.987 -51.056  14.832  1.00  0.00     0.032 A 
HETATM   10  C   UNL     1     -44.084 -51.577  13.883  1.00  0.00     0.062 A 
ENDROOT
BRANCH   1  11
HETATM   11  C   UNL     1     -41.697 -50.785  14.431  1.00  0.00     0.157 C 
BRANCH  11  12
HETATM   12  C   UNL     1     -41.506 -49.312  14.089  1.00  0.00     0.196 C 
BRANCH  12  13
HETATM   13  O   UNL     1     -40.629 -49.108  12.995  1.00  0.00    -0.349 OA
BRANCH  13  14
HETATM   14  C   UNL     1     -40.488 -47.887  12.400  1.00  0.00     0.074 A 
HETATM   15  C   UNL     1     -40.998 -47.387  11.187  1.00  0.00    -0.029 A 
HETATM   16  C   UNL     1     -41.891 -48.118  10.222  1.00  0.00     0.051 C 
HETATM   17  C   UNL     1     -40.682 -46.058  10.826  1.00  0.00     0.009 A 
HETATM   18  C   UNL     1     -39.914 -45.233  11.648  1.00  0.00     0.001 A 
HETATM   19  C   UNL     1     -39.450 -45.719  12.857  1.00  0.00     0.003 A 
HETATM   20  C   UNL     1     -39.738 -47.029  13.227  1.00  0.00     0.037 A 
ENDBRANCH  13  14
ENDBRANCH  12  13
ENDBRANCH  11  12
ENDBRANCH   1  11
BRANCH   2  21
HETATM   21  C   UNL     1     -41.057 -52.530  12.018  1.00  0.00     0.240 C 
BRANCH  21  22
HETATM   22  O   UNL     1     -40.704 -51.456  11.158  1.00  0.00    -0.393 OA
HETATM   23  H   UNL     1     -40.121 -51.841  10.478  1.00  0.00     0.209 HD
ENDBRANCH  21  22
ENDBRANCH   2  21
TORSDOF 6
ENDMDL
MODEL 8
REMARK VINA RESULT:      -5.8      2.060      5.489
REMARK  6 active torsions:
REMARK  status: ('A' for Active; 'I' for Inactive)
REMARK    1  A    between atoms: C_7  and  O_8 
REMARK    2  A    between atoms: O_8  and  C_9 
REMARK    3  A    between atoms: C_9  and  C_10 
REMARK    4  A    between atoms: C_10  and  N_11 
REMARK    5  A    between atoms: C_12  and  C_13 
REMARK    6  A    between atoms: C_13  and  O_14 
ROOT
HETATM    1  N   UNL     1     -41.272 -50.146  13.349  1.00  0.00    -0.331 N 
HETATM    2  C   UNL     1     -40.828 -50.999  12.346  1.00  0.00     0.108 A 
HETATM    3  N   UNL     1     -40.970 -50.444  11.158  1.00  0.00    -0.342 N 
ATOM      4  HN  UNL     1     -40.702 -50.842  10.259  1.00  0.00     0.167 HD
HETATM    5  C   UNL     1     -41.551 -49.228  11.378  1.00  0.00     0.060 A 
HETATM    6  C   UNL     1     -41.937 -48.262  10.433  1.00  0.00     0.032 A 
HETATM    7  C   UNL     1     -42.517 -47.068  10.870  1.00  0.00     0.002 A 
HETATM    8  C   UNL     1     -42.712 -46.842  12.224  1.00  0.00     0.002 A 
HETATM    9  C   UNL     1     -42.349 -47.800  13.177  1.00  0.00     0.032 A 
HETATM   10  C   UNL     1     -41.757 -49.002  12.739  1.00  0.00     0.062 A 
ENDROOT
BRANCH   1  11
HETATM   11  C   UNL     1     -41.198 -50.483  14.770  1.00  0.00     0.157 C 
BRANCH  11  12
HETATM   12  C   UNL     1     -42.513 -50.821  15.462  1.00  0.00     0.196 C 
BRANCH  12  13
HETATM   13  O   UNL     1     -43.085 -52.032  14.999  1.00  0.00    -0.349 OA
BRANCH  13  14
HETATM   14  C   UNL     1     -44.291 -52.062  14.357  1.00  0.00     0.074 A 
HETATM   15  C   UNL     1     -44.690 -52.710  13.173  1.00  0.00    -0.029 A 
HETATM   16  C   UNL     1     -43.838 -53.592  12.303  1.00  0.00     0.051 C 
HETATM   17  C   UNL     1     -46.030 -52.560  12.748  1.00  0.00     0.009 A 
HETATM   18  C   UNL     1     -46.959 -51.823  13.482  1.00  0.00     0.001 A 
HETATM   19  C   UNL     1     -46.568 -51.223  14.666  1.00  0.00     0.003 A 
HETATM   20  C   UNL     1     -45.251 -51.346  15.097  1.00  0.00     0.037 A 
ENDBRANCH  13  14
ENDBRANCH  12  13
ENDBRANCH  11  12
ENDBRANCH   1  11
BRANCH   2  21
HETATM   21  C   UNL     1     -40.291 -52.374  12.560  1.00  0.00     0.240 C 
BRANCH  21  22
HETATM   22  O   UNL     1     -40.534 -53.141  11.389  1.00  0.00    -0.393 OA
HETATM   23  H   UNL     1     -40.271 -52.574  10.642  1.00  0.00     0.209 HD
ENDBRANCH  21  22
ENDBRANCH   2  21
TORSDOF 6
ENDMDL
MODEL 9
REMARK VINA RESULT:      -5.7      2.355      3.232
REMARK  6 active torsions:
REMARK  status: ('A' for Active; 'I' for Inactive)
REMARK    1  A    between atoms: C_7  and  O_8 
REMARK    2  A    between atoms: O_8  and  C_9 
REMARK    3  A    between atoms: C_9  and  C_10 
REMARK    4  A    between atoms: C_10  and  N_11 
REMARK    5  A    between atoms: C_12  and  C_13 
REMARK    6  A    between atoms: C_13  and  O_14 
ROOT
HETATM    1  N   UNL     1     -42.613 -51.185  13.298  1.00  0.00    -0.331 N 
HETATM    2  C   UNL     1     -42.278 -52.097  12.304  1.00  0.00     0.108 A 
HETATM    3  N   UNL     1     -43.315 -52.847  11.985  1.00  0.00    -0.342 N 
ATOM      4  HN  UNL     1     -43.349 -53.574  11.271  1.00  0.00     0.167 HD
HETATM    5  C   UNL     1     -44.332 -52.451  12.804  1.00  0.00     0.060 A 
HETATM    6  C   UNL     1     -45.640 -52.961  12.880  1.00  0.00     0.032 A 
HETATM    7  C   UNL     1     -46.540 -52.409  13.794  1.00  0.00     0.002 A 
HETATM    8  C   UNL     1     -46.144 -51.368  14.621  1.00  0.00     0.002 A 
HETATM    9  C   UNL     1     -44.842 -50.860  14.570  1.00  0.00     0.032 A 
HETATM   10  C   UNL     1     -43.934 -51.411  13.644  1.00  0.00     0.062 A 
ENDROOT
BRANCH   1  11
HETATM   11  C   UNL     1     -41.669 -50.198  13.821  1.00  0.00     0.157 C 
BRANCH  11  12
HETATM   12  C   UNL     1     -41.501 -48.918  13.012  1.00  0.00     0.196 C 
BRANCH  12  13
HETATM   13  O   UNL     1     -40.414 -48.124  13.454  1.00  0.00    -0.349 OA
BRANCH  13  14
HETATM   14  C   UNL     1     -40.115 -46.922  12.877  1.00  0.00     0.074 A 
HETATM   15  C   UNL     1     -39.580 -45.742  13.427  1.00  0.00    -0.029 A 
HETATM   16  C   UNL     1     -39.164 -45.529  14.856  1.00  0.00     0.051 C 
HETATM   17  C   UNL     1     -39.372 -44.638  12.569  1.00  0.00     0.009 A 
HETATM   18  C   UNL     1     -39.652 -44.702  11.204  1.00  0.00     0.001 A 
HETATM   19  C   UNL     1     -40.141 -45.879  10.664  1.00  0.00     0.003 A 
HETATM   20  C   UNL     1     -40.365 -46.974  11.493  1.00  0.00     0.037 A 
ENDBRANCH  13  14
ENDBRANCH  12  13
ENDBRANCH  11  12
ENDBRANCH   1  11
BRANCH   2  21
HETATM   21  C   UNL     1     -40.926 -52.246  11.692  1.00  0.00     0.240 C 
BRANCH  21  22
HETATM   22  O   UNL     1     -40.561 -53.618  11.734  1.00  0.00    -0.393 OA
HETATM   23  H   UNL     1     -40.476 -53.840  12.679  1.00  0.00     0.209 HD
ENDBRANCH  21  22
ENDBRANCH   2  21
TORSDOF 6
ENDMDL
