MODEL 1
REMARK VINA RESULT:      -6.6      0.000      0.000
REMARK  4 active torsions:
REMARK  status: ('A' for Active; 'I' for Inactive)
REMARK    1  A    between atoms: C_8  and  N_9 
REMARK       I    between atoms: N_9  and  C_10 
REMARK       I    between atoms: C_10  and  N_12 
REMARK    2  A    between atoms: N_12  and  C_13 
REMARK    3  A    between atoms: N_16  and  C_17 
REMARK    4  A    between atoms: C_17  and  C_18 
REMARK       I    between atoms: C_18  and  N_20 
ROOT
HETATM    1  N   UNL     1     -43.166 -48.335  10.363  1.00  0.00    -0.305 N 
HETATM    2  C   UNL     1     -43.020 -48.600  11.710  1.00  0.00     0.321 C 
HETATM    3  O   UNL     1     -43.222 -47.804  12.616  1.00  0.00    -0.247 OA
HETATM    4  N   UNL     1     -42.596 -49.897  11.915  1.00  0.00    -0.338 N 
HETATM    5  H   UNL     1     -42.445 -48.747   9.791  1.00  0.00     0.171 HD
HETATM    6  H   UNL     1     -42.487 -50.483  11.102  1.00  0.00     0.164 HD
ENDROOT
BRANCH   4   7
HETATM    7  C   UNL     1     -42.372 -50.485  13.240  1.00  0.00     0.089 C 
HETATM    8  C   UNL     1     -41.689 -51.855  13.121  1.00  0.00     0.055 C 
HETATM    9  C   UNL     1     -42.638 -52.912  12.536  1.00  0.00     0.275 C 
HETATM   10  N   UNL     1     -43.954 -53.024  13.192  1.00  0.00     0.097 N 
HETATM   11  C   UNL     1     -44.573 -51.698  13.372  1.00  0.00     0.275 C 
HETATM   12  C   UNL     1     -43.659 -50.676  14.049  1.00  0.00     0.055 C 
BRANCH  10  13
HETATM   13  C   UNL     1     -43.901 -53.747  14.478  1.00  0.00     0.374 C 
BRANCH  13  14
HETATM   14  C   UNL     1     -45.219 -54.472  14.766  1.00  0.00     0.243 C 
HETATM   15  O   UNL     1     -45.758 -54.470  15.868  1.00  0.00    -0.272 OA
HETATM   16  N   UNL     1     -45.779 -55.107  13.694  1.00  0.00    -0.369 N 
HETATM   17  H   UNL     1     -45.179 -55.342  12.914  1.00  0.00     0.159 HD
HETATM   18  H   UNL     1     -46.586 -55.684  13.879  1.00  0.00     0.159 HD
ENDBRANCH  13  14
ENDBRANCH  10  13
ENDBRANCH   4   7
BRANCH   1  19
HETATM   19  C   UNL     1     -43.650 -47.117   9.914  1.00  0.00     0.083 A 
HETATM   20  C   UNL     1     -43.085 -45.809   9.921  1.00  0.00     0.050 A 
HETATM   21  C   UNL     1     -41.809 -45.332  10.511  1.00  0.00     0.072 C 
HETATM   22  N   UNL     1     -43.931 -44.912   9.391  1.00  0.00    -0.303 N 
HETATM   23  N   UNL     1     -44.997 -45.639   9.034  1.00  0.00    -0.303 N 
ATOM     24  HN  UNL     1     -43.794 -43.907   9.284  1.00  0.00     0.186 HD
HETATM   25  C   UNL     1     -44.903 -46.962   9.362  1.00  0.00     0.050 A 
HETATM   26  H   UNL     1     -45.762 -45.162   8.569  1.00  0.00     0.186 HD
HETATM   27  C   UNL     1     -45.968 -47.934   9.035  1.00  0.00     0.072 C 
ENDBRANCH   1  19
TORSDOF 4
ENDMDL
MODEL 2
REMARK VINA RESULT:      -6.6      2.303      3.319
REMARK  4 active torsions:
REMARK  status: ('A' for Active; 'I' for Inactive)
REMARK    1  A    between atoms: C_8  and  N_9 
REMARK       I    between atoms: N_9  and  C_10 
REMARK       I    between atoms: C_10  and  N_12 
REMARK    2  A    between atoms: N_12  and  C_13 
REMARK    3  A    between atoms: N_16  and  C_17 
REMARK    4  A    between atoms: C_17  and  C_18 
REMARK       I    between atoms: C_18  and  N_20 
ROOT
HETATM    1  N   UNL     1     -43.067 -48.337  10.287  1.00  0.00    -0.305 N 
HETATM    2  C   UNL     1     -43.006 -48.604  11.640  1.00  0.00     0.321 C 
HETATM    3  O   UNL     1     -43.439 -47.882  12.527  1.00  0.00    -0.247 OA
HETATM    4  N   UNL     1     -42.373 -49.807  11.878  1.00  0.00    -0.338 N 
HETATM    5  H   UNL     1     -42.231 -48.595   9.787  1.00  0.00     0.171 HD
HETATM    6  H   UNL     1     -42.080 -50.342  11.075  1.00  0.00     0.164 HD
ENDROOT
BRANCH   4   7
HETATM    7  C   UNL     1     -42.175 -50.377  13.214  1.00  0.00     0.089 C 
HETATM    8  C   UNL     1     -40.701 -50.747  13.436  1.00  0.00     0.055 C 
HETATM    9  C   UNL     1     -40.287 -51.957  12.585  1.00  0.00     0.275 C 
HETATM   10  N   UNL     1     -41.159 -53.142  12.688  1.00  0.00     0.097 N 
HETATM   11  C   UNL     1     -42.579 -52.770  12.549  1.00  0.00     0.275 C 
HETATM   12  C   UNL     1     -43.014 -51.633  13.473  1.00  0.00     0.055 C 
BRANCH  10  13
HETATM   13  C   UNL     1     -40.947 -53.912  13.930  1.00  0.00     0.374 C 
BRANCH  13  14
HETATM   14  C   UNL     1     -39.456 -54.074  14.238  1.00  0.00     0.243 C 
HETATM   15  O   UNL     1     -38.868 -53.404  15.080  1.00  0.00    -0.272 OA
HETATM   16  N   UNL     1     -38.818 -55.048  13.523  1.00  0.00    -0.369 N 
HETATM   17  H   UNL     1     -39.238 -55.354  12.655  1.00  0.00     0.159 HD
HETATM   18  H   UNL     1     -37.814 -55.102  13.624  1.00  0.00     0.159 HD
ENDBRANCH  13  14
ENDBRANCH  10  13
ENDBRANCH   4   7
BRANCH   1  19
HETATM   19  C   UNL     1     -43.721 -47.216   9.800  1.00  0.00     0.083 A 
HETATM   20  C   UNL     1     -45.007 -47.048   9.210  1.00  0.00     0.050 A 
HETATM   21  C   UNL     1     -46.024 -48.068   8.849  1.00  0.00     0.072 C 
HETATM   22  N   UNL     1     -45.219 -45.768   8.866  1.00  0.00    -0.303 N 
HETATM   23  N   UNL     1     -44.104 -45.137   9.250  1.00  0.00    -0.303 N 
ATOM     24  HN  UNL     1     -46.042 -45.369   8.414  1.00  0.00     0.186 HD
HETATM   25  C   UNL     1     -43.151 -45.961   9.780  1.00  0.00     0.050 A 
HETATM   26  H   UNL     1     -44.058 -44.131   9.118  1.00  0.00     0.186 HD
HETATM   27  C   UNL     1     -41.856 -45.454  10.281  1.00  0.00     0.072 C 
ENDBRANCH   1  19
TORSDOF 4
ENDMDL
MODEL 3
REMARK VINA RESULT:      -6.3      2.685      7.760
REMARK  4 active torsions:
REMARK  status: ('A' for Active; 'I' for Inactive)
REMARK    1  A    between atoms: C_8  and  N_9 
REMARK       I    between atoms: N_9  and  C_10 
REMARK       I    between atoms: C_10  and  N_12 
REMARK    2  A    between atoms: N_12  and  C_13 
REMARK    3  A    between atoms: N_16  and  C_17 
REMARK    4  A    between atoms: C_17  and  C_18 
REMARK       I    between atoms: C_18  and  N_20 
ROOT
HETATM    1  N   UNL     1     -43.655 -51.546  12.492  1.00  0.00    -0.305 N 
HETATM    2  C   UNL     1     -43.463 -50.414  13.258  1.00  0.00     0.321 C 
HETATM    3  O   UNL     1     -43.950 -50.214  14.362  1.00  0.00    -0.247 OA
HETATM    4  N   UNL     1     -42.647 -49.510  12.610  1.00  0.00    -0.338 N 
HETATM    5  H   UNL     1     -43.766 -51.352  11.508  1.00  0.00     0.171 HD
HETATM    6  H   UNL     1     -42.272 -49.784  11.715  1.00  0.00     0.164 HD
ENDROOT
BRANCH   4   7
HETATM    7  C   UNL     1     -42.239 -48.222  13.179  1.00  0.00     0.089 C 
HETATM    8  C   UNL     1     -42.712 -47.060  12.294  1.00  0.00     0.055 C 
HETATM    9  C   UNL     1     -41.936 -47.005  10.969  1.00  0.00     0.275 C 
HETATM   10  N   UNL     1     -40.466 -47.025  11.087  1.00  0.00     0.097 N 
HETATM   11  C   UNL     1     -40.021 -48.095  11.997  1.00  0.00     0.275 C 
HETATM   12  C   UNL     1     -40.723 -48.084  13.355  1.00  0.00     0.055 C 
BRANCH  10  13
HETATM   13  C   UNL     1     -39.900 -45.726  11.502  1.00  0.00     0.374 C 
BRANCH  13  14
HETATM   14  C   UNL     1     -39.800 -44.758  10.320  1.00  0.00     0.243 C 
HETATM   15  O   UNL     1     -40.378 -43.677  10.287  1.00  0.00    -0.272 OA
HETATM   16  N   UNL     1     -38.989 -45.169   9.300  1.00  0.00    -0.369 N 
HETATM   17  H   UNL     1     -38.785 -46.157   9.222  1.00  0.00     0.159 HD
HETATM   18  H   UNL     1     -38.992 -44.606   8.462  1.00  0.00     0.159 HD
ENDBRANCH  13  14
ENDBRANCH  10  13
ENDBRANCH   4   7
BRANCH   1  19
HETATM   19  C   UNL     1     -44.383 -52.626  12.965  1.00  0.00     0.083 A 
HETATM   20  C   UNL     1     -43.987 -53.816  13.638  1.00  0.00     0.050 A 
HETATM   21  C   UNL     1     -42.626 -54.312  13.965  1.00  0.00     0.072 C 
HETATM   22  N   UNL     1     -45.044 -54.603  13.894  1.00  0.00    -0.303 N 
HETATM   23  N   UNL     1     -46.087 -53.916  13.416  1.00  0.00    -0.303 N 
ATOM     24  HN  UNL     1     -45.050 -55.516  14.350  1.00  0.00     0.186 HD
HETATM   25  C   UNL     1     -45.747 -52.740  12.808  1.00  0.00     0.050 A 
HETATM   26  H   UNL     1     -47.013 -54.313  13.537  1.00  0.00     0.186 HD
HETATM   27  C   UNL     1     -46.758 -51.828  12.232  1.00  0.00     0.072 C 
ENDBRANCH   1  19
TORSDOF 4
ENDMDL
MODEL 4
REMARK VINA RESULT:      -5.8      2.907      7.707
REMARK  4 active torsions:
REMARK  status: ('A' for Active; 'I' for Inactive)
REMARK    1  A    between atoms: C_8  and  N_9 
REMARK       I    between atoms: N_9  and  C_10 
REMARK       I    between atoms: C_10  and  N_12 
REMARK    2  A    between atoms: N_12  and  C_13 
REMARK    3  A    between atoms: N_16  and  C_17 
REMARK    4  A    between atoms: C_17  and  C_18 
REMARK       I    between atoms: C_18  and  N_20 
ROOT
HETATM    1  N   UNL     1     -43.456 -51.796  13.901  1.00  0.00    -0.305 N 
HETATM    2  C   UNL     1     -42.389 -51.702  13.031  1.00  0.00     0.321 C 
HETATM    3  O   UNL     1     -42.076 -52.541  12.198  1.00  0.00    -0.247 OA
HETATM    4  N   UNL     1     -41.695 -50.525  13.225  1.00  0.00    -0.338 N 
HETATM    5  H   UNL     1     -43.252 -51.457  14.828  1.00  0.00     0.171 HD
HETATM    6  H   UNL     1     -42.053 -49.885  13.917  1.00  0.00     0.164 HD
ENDROOT
BRANCH   4   7
HETATM    7  C   UNL     1     -40.525 -50.126  12.437  1.00  0.00     0.089 C 
HETATM    8  C   UNL     1     -39.698 -49.071  13.185  1.00  0.00     0.055 C 
HETATM    9  C   UNL     1     -40.427 -47.720  13.249  1.00  0.00     0.275 C 
HETATM   10  N   UNL     1     -40.924 -47.200  11.961  1.00  0.00     0.097 N 
HETATM   11  C   UNL     1     -41.654 -48.240  11.214  1.00  0.00     0.275 C 
HETATM   12  C   UNL     1     -40.881 -49.550  11.063  1.00  0.00     0.055 C 
BRANCH  10  13
HETATM   13  C   UNL     1     -39.860 -46.612  11.124  1.00  0.00     0.374 C 
BRANCH  13  14
HETATM   14  C   UNL     1     -40.370 -45.401  10.339  1.00  0.00     0.243 C 
HETATM   15  O   UNL     1     -41.522 -44.987  10.419  1.00  0.00    -0.272 OA
HETATM   16  N   UNL     1     -39.439 -44.783   9.554  1.00  0.00    -0.369 N 
HETATM   17  H   UNL     1     -38.620 -45.311   9.282  1.00  0.00     0.159 HD
HETATM   18  H   UNL     1     -39.773 -44.052   8.942  1.00  0.00     0.159 HD
ENDBRANCH  13  14
ENDBRANCH  10  13
ENDBRANCH   4   7
BRANCH   1  19
HETATM   19  C   UNL     1     -44.343 -52.860  13.846  1.00  0.00     0.083 A 
HETATM   20  C   UNL     1     -44.218 -54.222  14.241  1.00  0.00     0.050 A 
HETATM   21  C   UNL     1     -43.034 -54.952  14.762  1.00  0.00     0.072 C 
HETATM   22  N   UNL     1     -45.341 -54.908  13.982  1.00  0.00    -0.303 N 
HETATM   23  N   UNL     1     -46.168 -53.996  13.457  1.00  0.00    -0.303 N 
ATOM     24  HN  UNL     1     -45.524 -55.898  14.147  1.00  0.00     0.186 HD
HETATM   25  C   UNL     1     -45.609 -52.757  13.312  1.00  0.00     0.050 A 
HETATM   26  H   UNL     1     -47.108 -54.291  13.215  1.00  0.00     0.186 HD
HETATM   27  C   UNL     1     -46.365 -51.609  12.768  1.00  0.00     0.072 C 
ENDBRANCH   1  19
TORSDOF 4
ENDMDL
MODEL 5
REMARK VINA RESULT:      -5.8      3.473      7.106
REMARK  4 active torsions:
REMARK  status: ('A' for Active; 'I' for Inactive)
REMARK    1  A    between atoms: C_8  and  N_9 
REMARK       I    between atoms: N_9  and  C_10 
REMARK       I    between atoms: C_10  and  N_12 
REMARK    2  A    between atoms: N_12  and  C_13 
REMARK    3  A    between atoms: N_16  and  C_17 
REMARK    4  A    between atoms: C_17  and  C_18 
REMARK       I    between atoms: C_18  and  N_20 
ROOT
HETATM    1  N   UNL     1     -44.804 -51.236  13.347  1.00  0.00    -0.305 N 
HETATM    2  C   UNL     1     -43.632 -50.885  13.986  1.00  0.00     0.321 C 
HETATM    3  O   UNL     1     -43.177 -51.429  14.983  1.00  0.00    -0.247 OA
HETATM    4  N   UNL     1     -43.028 -49.815  13.360  1.00  0.00    -0.338 N 
HETATM    5  H   UNL     1     -45.342 -50.445  13.028  1.00  0.00     0.171 HD
HETATM    6  H   UNL     1     -43.469 -49.457  12.527  1.00  0.00     0.164 HD
ENDROOT
BRANCH   4   7
HETATM    7  C   UNL     1     -41.757 -49.225  13.791  1.00  0.00     0.089 C 
HETATM    8  C   UNL     1     -41.314 -48.117  12.825  1.00  0.00     0.055 C 
HETATM    9  C   UNL     1     -40.876 -48.690  11.468  1.00  0.00     0.275 C 
HETATM   10  N   UNL     1     -39.885 -49.781  11.523  1.00  0.00     0.097 N 
HETATM   11  C   UNL     1     -40.279 -50.806  12.507  1.00  0.00     0.275 C 
HETATM   12  C   UNL     1     -40.614 -50.241  13.888  1.00  0.00     0.055 C 
BRANCH  10  13
HETATM   13  C   UNL     1     -38.514 -49.306  11.793  1.00  0.00     0.374 C 
BRANCH  13  14
HETATM   14  C   UNL     1     -37.468 -50.300  11.282  1.00  0.00     0.243 C 
HETATM   15  O   UNL     1     -37.009 -51.205  11.972  1.00  0.00    -0.272 OA
HETATM   16  N   UNL     1     -37.092 -50.130   9.979  1.00  0.00    -0.369 N 
HETATM   17  H   UNL     1     -37.248 -49.226   9.554  1.00  0.00     0.159 HD
HETATM   18  H   UNL     1     -36.325 -50.699   9.650  1.00  0.00     0.159 HD
ENDBRANCH  13  14
ENDBRANCH  10  13
ENDBRANCH   4   7
BRANCH   1  19
HETATM   19  C   UNL     1     -45.551 -52.330  13.753  1.00  0.00     0.083 A 
HETATM   20  C   UNL     1     -46.672 -52.444  14.623  1.00  0.00     0.050 A 
HETATM   21  C   UNL     1     -47.340 -51.406  15.449  1.00  0.00     0.072 C 
HETATM   22  N   UNL     1     -47.066 -53.722  14.743  1.00  0.00    -0.303 N 
HETATM   23  N   UNL     1     -46.228 -54.398  13.949  1.00  0.00    -0.303 N 
ATOM     24  HN  UNL     1     -47.829 -54.092  15.310  1.00  0.00     0.186 HD
HETATM   25  C   UNL     1     -45.270 -53.621  13.361  1.00  0.00     0.050 A 
HETATM   26  H   UNL     1     -46.367 -55.399  13.855  1.00  0.00     0.186 HD
HETATM   27  C   UNL     1     -44.261 -54.177  12.434  1.00  0.00     0.072 C 
ENDBRANCH   1  19
TORSDOF 4
ENDMDL
MODEL 6
REMARK VINA RESULT:      -5.7      4.212      7.320
REMARK  4 active torsions:
REMARK  status: ('A' for Active; 'I' for Inactive)
REMARK    1  A    between atoms: C_8  and  N_9 
REMARK       I    between atoms: N_9  and  C_10 
REMARK       I    between atoms: C_10  and  N_12 
REMARK    2  A    between atoms: N_12  and  C_13 
REMARK    3  A    between atoms: N_16  and  C_17 
REMARK    4  A    between atoms: C_17  and  C_18 
REMARK       I    between atoms: C_18  and  N_20 
ROOT
HETATM    1  N   UNL     1     -44.075 -52.151  15.053  1.00  0.00    -0.305 N 
HETATM    2  C   UNL     1     -43.501 -51.424  14.029  1.00  0.00     0.321 C 
HETATM    3  O   UNL     1     -43.797 -51.510  12.846  1.00  0.00    -0.247 OA
HETATM    4  N   UNL     1     -42.523 -50.579  14.511  1.00  0.00    -0.338 N 
HETATM    5  H   UNL     1     -43.413 -52.460  15.748  1.00  0.00     0.171 HD
HETATM    6  H   UNL     1     -42.376 -50.562  15.508  1.00  0.00     0.164 HD
ENDROOT
BRANCH   4   7
HETATM    7  C   UNL     1     -41.749 -49.661  13.670  1.00  0.00     0.089 C 
HETATM    8  C   UNL     1     -41.114 -50.407  12.488  1.00  0.00     0.055 C 
HETATM    9  C   UNL     1     -39.982 -51.339  12.948  1.00  0.00     0.275 C 
HETATM   10  N   UNL     1     -38.954 -50.721  13.807  1.00  0.00     0.097 N 
HETATM   11  C   UNL     1     -39.570 -49.944  14.897  1.00  0.00     0.275 C 
HETATM   12  C   UNL     1     -40.624 -48.943  14.423  1.00  0.00     0.055 C 
BRANCH  10  13
HETATM   13  C   UNL     1     -37.996 -49.887  13.055  1.00  0.00     0.374 C 
BRANCH  13  14
HETATM   14  C   UNL     1     -37.357 -50.670  11.905  1.00  0.00     0.243 C 
HETATM   15  O   UNL     1     -36.781 -51.742  12.061  1.00  0.00    -0.272 OA
HETATM   16  N   UNL     1     -37.496 -50.103  10.669  1.00  0.00    -0.369 N 
HETATM   17  H   UNL     1     -37.692 -49.112  10.620  1.00  0.00     0.159 HD
HETATM   18  H   UNL     1     -36.990 -50.538   9.911  1.00  0.00     0.159 HD
ENDBRANCH  13  14
ENDBRANCH  10  13
ENDBRANCH   4   7
BRANCH   1  19
HETATM   19  C   UNL     1     -45.132 -53.017  14.822  1.00  0.00     0.083 A 
HETATM   20  C   UNL     1     -45.171 -54.407  14.514  1.00  0.00     0.050 A 
HETATM   21  C   UNL     1     -44.055 -55.351  14.252  1.00  0.00     0.072 C 
HETATM   22  N   UNL     1     -46.434 -54.832  14.352  1.00  0.00    -0.303 N 
HETATM   23  N   UNL     1     -47.178 -53.743  14.577  1.00  0.00    -0.303 N 
ATOM     24  HN  UNL     1     -46.753 -55.771  14.114  1.00  0.00     0.186 HD
HETATM   25  C   UNL     1     -46.449 -52.613  14.822  1.00  0.00     0.050 A 
HETATM   26  H   UNL     1     -48.187 -53.842  14.544  1.00  0.00     0.186 HD
HETATM   27  C   UNL     1     -47.086 -51.310  15.112  1.00  0.00     0.072 C 
ENDBRANCH   1  19
TORSDOF 4
ENDMDL
MODEL 7
REMARK VINA RESULT:      -5.4      2.424      3.007
REMARK  4 active torsions:
REMARK  status: ('A' for Active; 'I' for Inactive)
REMARK    1  A    between atoms: C_8  and  N_9 
REMARK       I    between atoms: N_9  and  C_10 
REMARK       I    between atoms: C_10  and  N_12 
REMARK    2  A    between atoms: N_12  and  C_13 
REMARK    3  A    between atoms: N_16  and  C_17 
REMARK    4  A    between atoms: C_17  and  C_18 
REMARK       I    between atoms: C_18  and  N_20 
ROOT
HETATM    1  N   UNL     1     -43.045 -48.647  11.376  1.00  0.00    -0.305 N 
HETATM    2  C   UNL     1     -41.821 -49.279  11.460  1.00  0.00     0.321 C 
HETATM    3  O   UNL     1     -40.749 -48.797  11.121  1.00  0.00    -0.247 OA
HETATM    4  N   UNL     1     -41.957 -50.552  11.974  1.00  0.00    -0.338 N 
HETATM    5  H   UNL     1     -43.793 -49.254  11.078  1.00  0.00     0.171 HD
HETATM    6  H   UNL     1     -42.881 -50.843  12.252  1.00  0.00     0.164 HD
ENDROOT
BRANCH   4   7
HETATM    7  C   UNL     1     -40.832 -51.464  12.206  1.00  0.00     0.089 C 
HETATM    8  C   UNL     1     -41.239 -52.916  11.918  1.00  0.00     0.055 C 
HETATM    9  C   UNL     1     -42.217 -53.452  12.975  1.00  0.00     0.275 C 
HETATM   10  N   UNL     1     -41.798 -53.280  14.379  1.00  0.00     0.097 N 
HETATM   11  C   UNL     1     -41.338 -51.903  14.632  1.00  0.00     0.275 C 
HETATM   12  C   UNL     1     -40.287 -51.410  13.637  1.00  0.00     0.055 C 
BRANCH  10  13
HETATM   13  C   UNL     1     -40.771 -54.254  14.800  1.00  0.00     0.374 C 
BRANCH  13  14
HETATM   14  C   UNL     1     -41.262 -55.113  15.968  1.00  0.00     0.243 C 
HETATM   15  O   UNL     1     -40.505 -55.699  16.735  1.00  0.00    -0.272 OA
HETATM   16  N   UNL     1     -42.619 -55.164  16.122  1.00  0.00    -0.369 N 
HETATM   17  H   UNL     1     -43.197 -54.936  15.323  1.00  0.00     0.159 HD
HETATM   18  H   UNL     1     -42.974 -55.810  16.812  1.00  0.00     0.159 HD
ENDBRANCH  13  14
ENDBRANCH  10  13
ENDBRANCH   4   7
BRANCH   1  19
HETATM   19  C   UNL     1     -43.153 -47.331  10.954  1.00  0.00     0.083 A 
HETATM   20  C   UNL     1     -43.448 -46.762   9.682  1.00  0.00     0.050 A 
HETATM   21  C   UNL     1     -43.645 -47.428   8.369  1.00  0.00     0.072 C 
HETATM   22  N   UNL     1     -43.429 -45.422   9.734  1.00  0.00    -0.303 N 
HETATM   23  N   UNL     1     -43.152 -45.147  11.014  1.00  0.00    -0.303 N 
ATOM     24  HN  UNL     1     -43.589 -44.762   8.972  1.00  0.00     0.186 HD
HETATM   25  C   UNL     1     -42.935 -46.254  11.786  1.00  0.00     0.050 A 
HETATM   26  H   UNL     1     -43.124 -44.173  11.296  1.00  0.00     0.186 HD
HETATM   27  C   UNL     1     -42.634 -46.163  13.230  1.00  0.00     0.072 C 
ENDBRANCH   1  19
TORSDOF 4
ENDMDL
MODEL 8
REMARK VINA RESULT:      -5.3      4.454      7.886
REMARK  4 active torsions:
REMARK  status: ('A' for Active; 'I' for Inactive)
REMARK    1  A    between atoms: C_8  and  N_9 
REMARK       I    between atoms: N_9  and  C_10 
REMARK       I    between atoms: C_10  and  N_12 
REMARK    2  A    between atoms: N_12  and  C_13 
REMARK    3  A    between atoms: N_16  and  C_17 
REMARK    4  A    between atoms: C_17  and  C_18 
REMARK       I    between atoms: C_18  and  N_20 
ROOT
HETATM    1  N   UNL     1     -43.149 -52.191  14.579  1.00  0.00    -0.305 N 
HETATM    2  C   UNL     1     -42.133 -51.910  13.689  1.00  0.00     0.321 C 
HETATM    3  O   UNL     1     -42.005 -52.408  12.579  1.00  0.00    -0.247 OA
HETATM    4  N   UNL     1     -41.252 -50.990  14.218  1.00  0.00    -0.338 N 
HETATM    5  H   UNL     1     -42.840 -52.254  15.537  1.00  0.00     0.171 HD
HETATM    6  H   UNL     1     -41.463 -50.618  15.131  1.00  0.00     0.164 HD
ENDROOT
BRANCH   4   7
HETATM    7  C   UNL     1     -40.080 -50.474  13.503  1.00  0.00     0.089 C 
HETATM    8  C   UNL     1     -38.806 -51.211  13.940  1.00  0.00     0.055 C 
HETATM    9  C   UNL     1     -38.403 -50.843  15.376  1.00  0.00     0.275 C 
HETATM   10  N   UNL     1     -38.315 -49.400  15.666  1.00  0.00     0.097 N 
HETATM   11  C   UNL     1     -39.508 -48.686  15.177  1.00  0.00     0.275 C 
HETATM   12  C   UNL     1     -39.846 -48.975  13.715  1.00  0.00     0.055 C 
BRANCH  10  13
HETATM   13  C   UNL     1     -37.086 -48.776  15.136  1.00  0.00     0.374 C 
BRANCH  13  14
HETATM   14  C   UNL     1     -36.120 -48.400  16.262  1.00  0.00     0.243 C 
HETATM   15  O   UNL     1     -34.958 -48.790  16.307  1.00  0.00    -0.272 OA
HETATM   16  N   UNL     1     -36.634 -47.565  17.213  1.00  0.00    -0.369 N 
HETATM   17  H   UNL     1     -37.640 -47.516  17.310  1.00  0.00     0.159 HD
HETATM   18  H   UNL     1     -36.057 -47.391  18.024  1.00  0.00     0.159 HD
ENDBRANCH  13  14
ENDBRANCH  10  13
ENDBRANCH   4   7
BRANCH   1  19
HETATM   19  C   UNL     1     -44.195 -53.036  14.242  1.00  0.00     0.083 A 
HETATM   20  C   UNL     1     -45.467 -52.784  13.654  1.00  0.00     0.050 A 
HETATM   21  C   UNL     1     -46.108 -51.492  13.299  1.00  0.00     0.072 C 
HETATM   22  N   UNL     1     -46.175 -53.917  13.525  1.00  0.00    -0.303 N 
HETATM   23  N   UNL     1     -45.360 -54.867  13.998  1.00  0.00    -0.303 N 
ATOM     24  HN  UNL     1     -47.117 -54.029  13.152  1.00  0.00     0.186 HD
HETATM   25  C   UNL     1     -44.173 -54.392  14.482  1.00  0.00     0.050 A 
HETATM   26  H   UNL     1     -45.681 -55.830  13.962  1.00  0.00     0.186 HD
HETATM   27  C   UNL     1     -43.130 -55.285  15.030  1.00  0.00     0.072 C 
ENDBRANCH   1  19
TORSDOF 4
ENDMDL
MODEL 9
REMARK VINA RESULT:      -5.2      5.373      9.341
REMARK  4 active torsions:
REMARK  status: ('A' for Active; 'I' for Inactive)
REMARK    1  A    between atoms: C_8  and  N_9 
REMARK       I    between atoms: N_9  and  C_10 
REMARK       I    between atoms: C_10  and  N_12 
REMARK    2  A    between atoms: N_12  and  C_13 
REMARK    3  A    between atoms: N_16  and  C_17 
REMARK    4  A    between atoms: C_17  and  C_18 
REMARK       I    between atoms: C_18  and  N_20 
ROOT
HETATM    1  N   UNL     1     -42.703 -45.323  11.274  1.00  0.00    -0.305 N 
HETATM    2  C   UNL     1     -41.930 -44.199  11.061  1.00  0.00     0.321 C 
HETATM    3  O   UNL     1     -40.957 -44.137  10.323  1.00  0.00    -0.247 OA
HETATM    4  N   UNL     1     -42.389 -43.135  11.809  1.00  0.00    -0.338 N 
HETATM    5  H   UNL     1     -42.986 -45.442  12.235  1.00  0.00     0.171 HD
HETATM    6  H   UNL     1     -43.217 -43.282  12.364  1.00  0.00     0.164 HD
ENDROOT
BRANCH   4   7
HETATM    7  C   UNL     1     -41.789 -41.797  11.781  1.00  0.00     0.089 C 
HETATM    8  C   UNL     1     -40.372 -41.821  12.371  1.00  0.00     0.055 C 
HETATM    9  C   UNL     1     -40.395 -42.052  13.890  1.00  0.00     0.275 C 
HETATM   10  N   UNL     1     -41.282 -41.159  14.660  1.00  0.00     0.097 N 
HETATM   11  C   UNL     1     -42.620 -41.081  14.045  1.00  0.00     0.275 C 
HETATM   12  C   UNL     1     -42.597 -40.749  12.553  1.00  0.00     0.055 C 
BRANCH  10  13
HETATM   13  C   UNL     1     -40.721 -39.807  14.849  1.00  0.00     0.374 C 
BRANCH  13  14
HETATM   14  C   UNL     1     -40.054 -39.666  16.220  1.00  0.00     0.243 C 
HETATM   15  O   UNL     1     -38.986 -40.198  16.503  1.00  0.00    -0.272 OA
HETATM   16  N   UNL     1     -40.720 -38.874  17.111  1.00  0.00    -0.369 N 
HETATM   17  H   UNL     1     -41.707 -38.713  16.960  1.00  0.00     0.159 HD
HETATM   18  H   UNL     1     -40.363 -38.854  18.056  1.00  0.00     0.159 HD
ENDBRANCH  13  14
ENDBRANCH  10  13
ENDBRANCH   4   7
BRANCH   1  19
HETATM   19  C   UNL     1     -42.477 -46.500  10.578  1.00  0.00     0.083 A 
HETATM   20  C   UNL     1     -41.482 -47.509  10.717  1.00  0.00     0.050 A 
HETATM   21  C   UNL     1     -40.303 -47.560  11.618  1.00  0.00     0.072 C 
HETATM   22  N   UNL     1     -41.640 -48.476   9.799  1.00  0.00    -0.303 N 
HETATM   23  N   UNL     1     -42.723 -48.099   9.110  1.00  0.00    -0.303 N 
ATOM     24  HN  UNL     1     -41.066 -49.307   9.659  1.00  0.00     0.186 HD
HETATM   25  C   UNL     1     -43.244 -46.899   9.505  1.00  0.00     0.050 A 
HETATM   26  H   UNL     1     -43.056 -48.713   8.374  1.00  0.00     0.186 HD
HETATM   27  C   UNL     1     -44.452 -46.318   8.881  1.00  0.00     0.072 C 
ENDBRANCH   1  19
TORSDOF 4
ENDMDL
