MODEL 1
REMARK VINA RESULT:      -5.8      0.000      0.000
REMARK  4 active torsions:
REMARK  status: ('A' for Active; 'I' for Inactive)
REMARK       I    between atoms: N_1  and  C_2 
REMARK    1  A    between atoms: C_2  and  C_4 
REMARK    2  A    between atoms: C_4  and  C_5 
REMARK    3  A    between atoms: C_8  and  N_9 
REMARK       I    between atoms: N_9  and  C_10 
REMARK    4  A    between atoms: C_10  and  C_12 
ROOT
HETATM    1  C   UNL     1     -42.414 -47.229  10.069  1.00  0.00     0.026 A 
HETATM    2  C   UNL     1     -41.462 -46.475  10.735  1.00  0.00     0.078 A 
HETATM    3  S   UNL     1     -40.302 -47.512  11.470  1.00  0.00    -0.064 SA
HETATM    4  C   UNL     1     -41.183 -48.857  10.906  1.00  0.00     0.151 A 
HETATM    5  N   UNL     1     -42.219 -48.597  10.158  1.00  0.00    -0.339 N 
ATOM      6  HN  UNL     1     -42.801 -49.301   9.703  1.00  0.00     0.168 HD
ENDROOT
BRANCH   4   7
HETATM    7  N   UNL     1     -40.712 -50.076  11.303  1.00  0.00    -0.307 N 
HETATM    8  C   UNL     1     -41.474 -50.907  12.102  1.00  0.00     0.227 C 
HETATM    9  O   UNL     1     -42.559 -50.627  12.604  1.00  0.00    -0.273 OA
HETATM   10  H   UNL     1     -39.751 -50.293  11.091  1.00  0.00     0.171 HD
BRANCH   8  11
HETATM   11  C   UNL     1     -40.781 -52.236  12.375  1.00  0.00     0.078 C 
HETATM   12  C   UNL     1     -41.761 -53.332  12.810  1.00  0.00     0.014 C 
HETATM   13  C   UNL     1     -41.022 -54.188  13.840  1.00  0.00     0.001 C 
HETATM   14  C   UNL     1     -39.615 -53.618  13.935  1.00  0.00     0.001 C 
HETATM   15  C   UNL     1     -39.775 -52.166  13.521  1.00  0.00     0.014 C 
ENDBRANCH   8  11
ENDBRANCH   4   7
BRANCH   1  16
HETATM   16  C   UNL     1     -43.586 -46.735   9.286  1.00  0.00     0.160 C 
BRANCH  16  17
HETATM   17  C   UNL     1     -44.042 -47.690   8.193  1.00  0.00     0.221 C 
HETATM   18  N   UNL     1     -45.333 -48.122   8.232  1.00  0.00    -0.370 N 
HETATM   19  H   UNL     1     -45.665 -48.782   7.546  1.00  0.00     0.159 HD
HETATM   20  H   UNL     1     -45.978 -47.803   8.958  1.00  0.00     0.159 HD
HETATM   21  O   UNL     1     -43.267 -48.126   7.342  1.00  0.00    -0.273 OA
ENDBRANCH  16  17
ENDBRANCH   1  16
TORSDOF 4
ENDMDL
MODEL 2
REMARK VINA RESULT:      -5.8      1.689      2.072
REMARK  4 active torsions:
REMARK  status: ('A' for Active; 'I' for Inactive)
REMARK       I    between atoms: N_1  and  C_2 
REMARK    1  A    between atoms: C_2  and  C_4 
REMARK    2  A    between atoms: C_4  and  C_5 
REMARK    3  A    between atoms: C_8  and  N_9 
REMARK       I    between atoms: N_9  and  C_10 
REMARK    4  A    between atoms: C_10  and  C_12 
ROOT
HETATM    1  C   UNL     1     -43.225 -47.137   9.853  1.00  0.00     0.026 A 
HETATM    2  C   UNL     1     -42.607 -45.976  10.286  1.00  0.00     0.078 A 
HETATM    3  S   UNL     1     -41.066 -46.345  10.956  1.00  0.00    -0.064 SA
HETATM    4  C   UNL     1     -41.368 -47.999  10.679  1.00  0.00     0.151 A 
HETATM    5  N   UNL     1     -42.482 -48.287  10.063  1.00  0.00    -0.339 N 
ATOM      6  HN  UNL     1     -42.765 -49.225   9.778  1.00  0.00     0.168 HD
ENDROOT
BRANCH   4   7
HETATM    7  N   UNL     1     -40.410 -48.856  11.136  1.00  0.00    -0.307 N 
HETATM    8  C   UNL     1     -40.753 -50.014  11.809  1.00  0.00     0.227 C 
HETATM    9  O   UNL     1     -41.887 -50.342  12.145  1.00  0.00    -0.273 OA
HETATM   10  H   UNL     1     -39.450 -48.556  11.069  1.00  0.00     0.171 HD
BRANCH   8  11
HETATM   11  C   UNL     1     -39.533 -50.848  12.177  1.00  0.00     0.078 C 
HETATM   12  C   UNL     1     -39.342 -50.976  13.692  1.00  0.00     0.014 C 
HETATM   13  C   UNL     1     -37.833 -50.974  13.941  1.00  0.00     0.001 C 
HETATM   14  C   UNL     1     -37.178 -50.911  12.569  1.00  0.00     0.001 C 
HETATM   15  C   UNL     1     -38.219 -50.241  11.691  1.00  0.00     0.014 C 
ENDBRANCH   8  11
ENDBRANCH   4   7
BRANCH   1  16
HETATM   16  C   UNL     1     -44.560 -47.272   9.197  1.00  0.00     0.160 C 
BRANCH  16  17
HETATM   17  C   UNL     1     -44.518 -48.005   7.865  1.00  0.00     0.221 C 
HETATM   18  N   UNL     1     -45.685 -48.534   7.401  1.00  0.00    -0.370 N 
HETATM   19  H   UNL     1     -45.694 -49.057   6.538  1.00  0.00     0.159 HD
HETATM   20  H   UNL     1     -46.559 -48.429   7.919  1.00  0.00     0.159 HD
HETATM   21  O   UNL     1     -43.467 -48.188   7.252  1.00  0.00    -0.273 OA
ENDBRANCH  16  17
ENDBRANCH   1  16
TORSDOF 4
ENDMDL
MODEL 3
REMARK VINA RESULT:      -5.7      3.419      4.721
REMARK  4 active torsions:
REMARK  status: ('A' for Active; 'I' for Inactive)
REMARK       I    between atoms: N_1  and  C_2 
REMARK    1  A    between atoms: C_2  and  C_4 
REMARK    2  A    between atoms: C_4  and  C_5 
REMARK    3  A    between atoms: C_8  and  N_9 
REMARK       I    between atoms: N_9  and  C_10 
REMARK    4  A    between atoms: C_10  and  C_12 
ROOT
HETATM    1  C   UNL     1     -39.625 -49.256  11.861  1.00  0.00     0.026 A 
HETATM    2  C   UNL     1     -40.607 -48.309  11.628  1.00  0.00     0.078 A 
HETATM    3  S   UNL     1     -42.163 -49.017  11.828  1.00  0.00    -0.064 SA
HETATM    4  C   UNL     1     -41.416 -50.515  12.140  1.00  0.00     0.151 A 
HETATM    5  N   UNL     1     -40.112 -50.513  12.182  1.00  0.00    -0.339 N 
ATOM      6  HN  UNL     1     -39.534 -51.320  12.417  1.00  0.00     0.168 HD
ENDROOT
BRANCH   4   7
HETATM    7  N   UNL     1     -42.264 -51.571  12.311  1.00  0.00    -0.307 N 
HETATM    8  C   UNL     1     -41.777 -52.854  12.482  1.00  0.00     0.227 C 
HETATM    9  O   UNL     1     -40.601 -53.194  12.406  1.00  0.00    -0.273 OA
HETATM   10  H   UNL     1     -43.249 -51.399  12.189  1.00  0.00     0.171 HD
BRANCH   8  11
HETATM   11  C   UNL     1     -42.893 -53.865  12.712  1.00  0.00     0.078 C 
HETATM   12  C   UNL     1     -44.284 -53.280  12.439  1.00  0.00     0.014 C 
HETATM   13  C   UNL     1     -45.228 -53.915  13.461  1.00  0.00     0.001 C 
HETATM   14  C   UNL     1     -44.387 -54.900  14.260  1.00  0.00     0.001 C 
HETATM   15  C   UNL     1     -42.975 -54.353  14.156  1.00  0.00     0.014 C 
ENDBRANCH   8  11
ENDBRANCH   4   7
BRANCH   1  16
HETATM   16  C   UNL     1     -38.144 -49.067  11.813  1.00  0.00     0.160 C 
BRANCH  16  17
HETATM   17  C   UNL     1     -37.393 -50.250  11.222  1.00  0.00     0.221 C 
HETATM   18  N   UNL     1     -37.040 -50.180   9.908  1.00  0.00    -0.370 N 
HETATM   19  H   UNL     1     -36.570 -50.957   9.469  1.00  0.00     0.159 HD
HETATM   20  H   UNL     1     -37.255 -49.356   9.343  1.00  0.00     0.159 HD
HETATM   21  O   UNL     1     -37.169 -51.272  11.871  1.00  0.00    -0.273 OA
ENDBRANCH  16  17
ENDBRANCH   1  16
TORSDOF 4
ENDMDL
MODEL 4
REMARK VINA RESULT:      -5.4      1.777      2.042
REMARK  4 active torsions:
REMARK  status: ('A' for Active; 'I' for Inactive)
REMARK       I    between atoms: N_1  and  C_2 
REMARK    1  A    between atoms: C_2  and  C_4 
REMARK    2  A    between atoms: C_4  and  C_5 
REMARK    3  A    between atoms: C_8  and  N_9 
REMARK       I    between atoms: N_9  and  C_10 
REMARK    4  A    between atoms: C_10  and  C_12 
ROOT
HETATM    1  C   UNL     1     -41.833 -47.446  10.610  1.00  0.00     0.026 A 
HETATM    2  C   UNL     1     -40.660 -47.237  11.315  1.00  0.00     0.078 A 
HETATM    3  S   UNL     1     -40.150 -48.705  12.053  1.00  0.00    -0.064 SA
HETATM    4  C   UNL     1     -41.541 -49.471  11.438  1.00  0.00     0.151 A 
HETATM    5  N   UNL     1     -42.308 -48.746  10.671  1.00  0.00    -0.339 N 
ATOM      6  HN  UNL     1     -43.138 -49.088  10.186  1.00  0.00     0.168 HD
ENDROOT
BRANCH   4   7
HETATM    7  N   UNL     1     -41.713 -50.771  11.818  1.00  0.00    -0.307 N 
HETATM    8  C   UNL     1     -42.748 -51.136  12.657  1.00  0.00     0.227 C 
HETATM    9  O   UNL     1     -43.531 -50.370  13.210  1.00  0.00    -0.273 OA
HETATM   10  H   UNL     1     -40.993 -51.428  11.560  1.00  0.00     0.171 HD
BRANCH   8  11
HETATM   11  C   UNL     1     -42.786 -52.639  12.903  1.00  0.00     0.078 C 
HETATM   12  C   UNL     1     -44.085 -53.284  12.405  1.00  0.00     0.014 C 
HETATM   13  C   UNL     1     -44.423 -54.398  13.397  1.00  0.00     0.001 C 
HETATM   14  C   UNL     1     -43.287 -54.423  14.409  1.00  0.00     0.001 C 
HETATM   15  C   UNL     1     -42.736 -53.009  14.383  1.00  0.00     0.014 C 
ENDBRANCH   8  11
ENDBRANCH   4   7
BRANCH   1  16
HETATM   16  C   UNL     1     -42.608 -46.451   9.811  1.00  0.00     0.160 C 
BRANCH  16  17
HETATM   17  C   UNL     1     -43.561 -47.079   8.805  1.00  0.00     0.221 C 
HETATM   18  N   UNL     1     -43.101 -47.273   7.538  1.00  0.00    -0.370 N 
HETATM   19  H   UNL     1     -43.712 -47.656   6.832  1.00  0.00     0.159 HD
HETATM   20  H   UNL     1     -42.146 -47.022   7.275  1.00  0.00     0.159 HD
HETATM   21  O   UNL     1     -44.731 -47.340   9.088  1.00  0.00    -0.273 OA
ENDBRANCH  16  17
ENDBRANCH   1  16
TORSDOF 4
ENDMDL
MODEL 5
REMARK VINA RESULT:      -5.3      3.686      5.163
REMARK  4 active torsions:
REMARK  status: ('A' for Active; 'I' for Inactive)
REMARK       I    between atoms: N_1  and  C_2 
REMARK    1  A    between atoms: C_2  and  C_4 
REMARK    2  A    between atoms: C_4  and  C_5 
REMARK    3  A    between atoms: C_8  and  N_9 
REMARK       I    between atoms: N_9  and  C_10 
REMARK    4  A    between atoms: C_10  and  C_12 
ROOT
HETATM    1  C   UNL     1     -39.865 -48.843  11.820  1.00  0.00     0.026 A 
HETATM    2  C   UNL     1     -40.656 -47.961  11.103  1.00  0.00     0.078 A 
HETATM    3  S   UNL     1     -42.317 -48.357  11.316  1.00  0.00    -0.064 SA
HETATM    4  C   UNL     1     -41.853 -49.686  12.276  1.00  0.00     0.151 A 
HETATM    5  N   UNL     1     -40.576 -49.811  12.510  1.00  0.00    -0.339 N 
ATOM      6  HN  UNL     1     -40.161 -50.520  13.115  1.00  0.00     0.168 HD
ENDROOT
BRANCH   4   7
HETATM    7  N   UNL     1     -42.872 -50.489  12.700  1.00  0.00    -0.307 N 
HETATM    8  C   UNL     1     -43.322 -50.438  14.006  1.00  0.00     0.227 C 
HETATM    9  O   UNL     1     -42.826 -49.777  14.913  1.00  0.00    -0.273 OA
HETATM   10  H   UNL     1     -43.200 -51.198  12.062  1.00  0.00     0.171 HD
BRANCH   8  11
HETATM   11  C   UNL     1     -44.500 -51.374  14.245  1.00  0.00     0.078 C 
HETATM   12  C   UNL     1     -45.518 -51.344  13.099  1.00  0.00     0.014 C 
HETATM   13  C   UNL     1     -46.896 -51.509  13.741  1.00  0.00     0.001 C 
HETATM   14  C   UNL     1     -46.651 -51.696  15.231  1.00  0.00     0.001 C 
HETATM   15  C   UNL     1     -45.322 -51.005  15.478  1.00  0.00     0.014 C 
ENDBRANCH   8  11
ENDBRANCH   4   7
BRANCH   1  16
HETATM   16  C   UNL     1     -38.376 -48.853  11.928  1.00  0.00     0.160 C 
BRANCH  16  17
HETATM   17  C   UNL     1     -37.734 -50.146  11.448  1.00  0.00     0.221 C 
HETATM   18  N   UNL     1     -37.214 -50.162  10.189  1.00  0.00    -0.370 N 
HETATM   19  H   UNL     1     -36.810 -51.009   9.821  1.00  0.00     0.159 HD
HETATM   20  H   UNL     1     -37.238 -49.331   9.594  1.00  0.00     0.159 HD
HETATM   21  O   UNL     1     -37.740 -51.170  12.130  1.00  0.00    -0.273 OA
ENDBRANCH  16  17
ENDBRANCH   1  16
TORSDOF 4
ENDMDL
MODEL 6
REMARK VINA RESULT:      -5.2      3.002      4.007
REMARK  4 active torsions:
REMARK  status: ('A' for Active; 'I' for Inactive)
REMARK       I    between atoms: N_1  and  C_2 
REMARK    1  A    between atoms: C_2  and  C_4 
REMARK    2  A    between atoms: C_4  and  C_5 
REMARK    3  A    between atoms: C_8  and  N_9 
REMARK       I    between atoms: N_9  and  C_10 
REMARK    4  A    between atoms: C_10  and  C_12 
ROOT
HETATM    1  C   UNL     1     -41.012 -49.260  11.957  1.00  0.00     0.026 A 
HETATM    2  C   UNL     1     -39.935 -50.092  12.210  1.00  0.00     0.078 A 
HETATM    3  S   UNL     1     -40.480 -51.710  12.424  1.00  0.00    -0.064 SA
HETATM    4  C   UNL     1     -42.084 -51.170  12.230  1.00  0.00     0.151 A 
HETATM    5  N   UNL     1     -42.237 -49.906  11.946  1.00  0.00    -0.339 N 
ATOM      6  HN  UNL     1     -43.132 -49.458  11.744  1.00  0.00     0.168 HD
ENDROOT
BRANCH   4   7
HETATM    7  N   UNL     1     -43.049 -52.121  12.397  1.00  0.00    -0.307 N 
HETATM    8  C   UNL     1     -44.208 -51.843  13.098  1.00  0.00     0.227 C 
HETATM    9  O   UNL     1     -44.452 -50.803  13.703  1.00  0.00    -0.273 OA
HETATM   10  H   UNL     1     -42.833 -53.058  12.096  1.00  0.00     0.171 HD
BRANCH   8  11
HETATM   11  C   UNL     1     -45.168 -53.025  13.113  1.00  0.00     0.078 C 
HETATM   12  C   UNL     1     -46.141 -52.979  14.297  1.00  0.00     0.014 C 
HETATM   13  C   UNL     1     -46.361 -54.428  14.734  1.00  0.00     0.001 C 
HETATM   14  C   UNL     1     -45.569 -55.289  13.761  1.00  0.00     0.001 C 
HETATM   15  C   UNL     1     -44.464 -54.371  13.268  1.00  0.00     0.014 C 
ENDBRANCH   8  11
ENDBRANCH   4   7
BRANCH   1  16
HETATM   16  C   UNL     1     -40.990 -47.790  11.697  1.00  0.00     0.160 C 
BRANCH  16  17
HETATM   17  C   UNL     1     -41.638 -47.389  10.380  1.00  0.00     0.221 C 
HETATM   18  N   UNL     1     -41.483 -46.100   9.968  1.00  0.00    -0.370 N 
HETATM   19  H   UNL     1     -41.925 -45.785   9.118  1.00  0.00     0.159 HD
HETATM   20  H   UNL     1     -40.937 -45.430  10.514  1.00  0.00     0.159 HD
HETATM   21  O   UNL     1     -42.342 -48.166   9.735  1.00  0.00    -0.273 OA
ENDBRANCH  16  17
ENDBRANCH   1  16
TORSDOF 4
ENDMDL
MODEL 7
REMARK VINA RESULT:      -5.2      4.638      5.647
REMARK  4 active torsions:
REMARK  status: ('A' for Active; 'I' for Inactive)
REMARK       I    between atoms: N_1  and  C_2 
REMARK    1  A    between atoms: C_2  and  C_4 
REMARK    2  A    between atoms: C_4  and  C_5 
REMARK    3  A    between atoms: C_8  and  N_9 
REMARK       I    between atoms: N_9  and  C_10 
REMARK    4  A    between atoms: C_10  and  C_12 
ROOT
HETATM    1  C   UNL     1     -38.500 -51.313  13.749  1.00  0.00     0.026 A 
HETATM    2  C   UNL     1     -38.569 -51.190  15.126  1.00  0.00     0.078 A 
HETATM    3  S   UNL     1     -39.958 -52.014  15.720  1.00  0.00    -0.064 SA
HETATM    4  C   UNL     1     -40.382 -52.405  14.118  1.00  0.00     0.151 A 
HETATM    5  N   UNL     1     -39.539 -52.040  13.192  1.00  0.00    -0.339 N 
ATOM      6  HN  UNL     1     -39.632 -52.259  12.199  1.00  0.00     0.168 HD
ENDROOT
BRANCH   4   7
HETATM    7  N   UNL     1     -41.570 -53.061  13.967  1.00  0.00    -0.307 N 
HETATM    8  C   UNL     1     -42.284 -52.977  12.787  1.00  0.00     0.227 C 
HETATM    9  O   UNL     1     -42.005 -52.267  11.825  1.00  0.00    -0.273 OA
HETATM   10  H   UNL     1     -41.960 -53.507  14.783  1.00  0.00     0.171 HD
BRANCH   8  11
HETATM   11  C   UNL     1     -43.546 -53.830  12.817  1.00  0.00     0.078 C 
HETATM   12  C   UNL     1     -44.824 -52.996  12.670  1.00  0.00     0.014 C 
HETATM   13  C   UNL     1     -45.881 -53.665  13.550  1.00  0.00     0.001 C 
HETATM   14  C   UNL     1     -45.221 -54.905  14.136  1.00  0.00     0.001 C 
HETATM   15  C   UNL     1     -43.740 -54.572  14.138  1.00  0.00     0.014 C 
ENDBRANCH   8  11
ENDBRANCH   4   7
BRANCH   1  16
HETATM   16  C   UNL     1     -37.453 -50.767  12.834  1.00  0.00     0.160 C 
BRANCH  16  17
HETATM   17  C   UNL     1     -38.014 -50.036  11.625  1.00  0.00     0.221 C 
HETATM   18  N   UNL     1     -37.294 -50.084  10.469  1.00  0.00    -0.370 N 
HETATM   19  H   UNL     1     -37.615 -49.584   9.654  1.00  0.00     0.159 HD
HETATM   20  H   UNL     1     -36.418 -50.606  10.411  1.00  0.00     0.159 HD
HETATM   21  O   UNL     1     -39.041 -49.359  11.689  1.00  0.00    -0.273 OA
ENDBRANCH  16  17
ENDBRANCH   1  16
TORSDOF 4
ENDMDL
MODEL 8
REMARK VINA RESULT:      -5.2      2.574      3.261
REMARK  4 active torsions:
REMARK  status: ('A' for Active; 'I' for Inactive)
REMARK       I    between atoms: N_1  and  C_2 
REMARK    1  A    between atoms: C_2  and  C_4 
REMARK    2  A    between atoms: C_4  and  C_5 
REMARK    3  A    between atoms: C_8  and  N_9 
REMARK       I    between atoms: N_9  and  C_10 
REMARK    4  A    between atoms: C_10  and  C_12 
ROOT
HETATM    1  C   UNL     1     -40.954 -46.697  11.287  1.00  0.00     0.026 A 
HETATM    2  C   UNL     1     -42.247 -46.444  10.859  1.00  0.00     0.078 A 
HETATM    3  S   UNL     1     -43.177 -47.891  10.913  1.00  0.00    -0.064 SA
HETATM    4  C   UNL     1     -41.791 -48.734  11.432  1.00  0.00     0.151 A 
HETATM    5  N   UNL     1     -40.721 -48.016  11.638  1.00  0.00    -0.339 N 
ATOM      6  HN  UNL     1     -39.840 -48.375  12.006  1.00  0.00     0.168 HD
ENDROOT
BRANCH   4   7
HETATM    7  N   UNL     1     -41.943 -50.083  11.574  1.00  0.00    -0.307 N 
HETATM    8  C   UNL     1     -40.853 -50.901  11.806  1.00  0.00     0.227 C 
HETATM    9  O   UNL     1     -39.677 -50.550  11.812  1.00  0.00    -0.273 OA
HETATM   10  H   UNL     1     -42.855 -50.469  11.388  1.00  0.00     0.171 HD
BRANCH   8  11
HETATM   11  C   UNL     1     -41.257 -52.358  11.990  1.00  0.00     0.078 C 
HETATM   12  C   UNL     1     -42.743 -52.519  12.327  1.00  0.00     0.014 C 
HETATM   13  C   UNL     1     -42.842 -53.694  13.302  1.00  0.00     0.001 C 
HETATM   14  C   UNL     1     -41.428 -54.232  13.460  1.00  0.00     0.001 C 
HETATM   15  C   UNL     1     -40.540 -53.040  13.153  1.00  0.00     0.014 C 
ENDBRANCH   8  11
ENDBRANCH   4   7
BRANCH   1  16
HETATM   16  C   UNL     1     -39.827 -45.725  11.412  1.00  0.00     0.160 C 
BRANCH  16  17
HETATM   17  C   UNL     1     -39.720 -44.755  10.245  1.00  0.00     0.221 C 
HETATM   18  N   UNL     1     -38.961 -45.133   9.179  1.00  0.00    -0.370 N 
HETATM   19  H   UNL     1     -38.837 -44.505   8.400  1.00  0.00     0.159 HD
HETATM   20  H   UNL     1     -38.495 -46.042   9.155  1.00  0.00     0.159 HD
HETATM   21  O   UNL     1     -40.232 -43.636  10.277  1.00  0.00    -0.273 OA
ENDBRANCH  16  17
ENDBRANCH   1  16
TORSDOF 4
ENDMDL
MODEL 9
REMARK VINA RESULT:      -5.2      4.404      5.811
REMARK  4 active torsions:
REMARK  status: ('A' for Active; 'I' for Inactive)
REMARK       I    between atoms: N_1  and  C_2 
REMARK    1  A    between atoms: C_2  and  C_4 
REMARK    2  A    between atoms: C_4  and  C_5 
REMARK    3  A    between atoms: C_8  and  N_9 
REMARK       I    between atoms: N_9  and  C_10 
REMARK    4  A    between atoms: C_10  and  C_12 
ROOT
HETATM    1  C   UNL     1     -38.625 -51.086  13.577  1.00  0.00     0.026 A 
HETATM    2  C   UNL     1     -38.534 -51.525  14.887  1.00  0.00     0.078 A 
HETATM    3  S   UNL     1     -40.097 -51.557  15.606  1.00  0.00    -0.064 SA
HETATM    4  C   UNL     1     -40.748 -50.933  14.161  1.00  0.00     0.151 A 
HETATM    5  N   UNL     1     -39.913 -50.778  13.171  1.00  0.00    -0.339 N 
ATOM      6  HN  UNL     1     -40.171 -50.472  12.232  1.00  0.00     0.168 HD
ENDROOT
BRANCH   4   7
HETATM    7  N   UNL     1     -42.085 -50.656  14.190  1.00  0.00    -0.307 N 
HETATM    8  C   UNL     1     -42.963 -51.297  13.337  1.00  0.00     0.227 C 
HETATM    9  O   UNL     1     -42.656 -52.073  12.437  1.00  0.00    -0.273 OA
HETATM   10  H   UNL     1     -42.386 -49.888  14.769  1.00  0.00     0.171 HD
BRANCH   8  11
HETATM   11  C   UNL     1     -44.408 -50.880  13.579  1.00  0.00     0.078 C 
HETATM   12  C   UNL     1     -44.768 -50.843  15.069  1.00  0.00     0.014 C 
HETATM   13  C   UNL     1     -46.221 -51.308  15.174  1.00  0.00     0.001 C 
HETATM   14  C   UNL     1     -46.696 -51.541  13.748  1.00  0.00     0.001 C 
HETATM   15  C   UNL     1     -45.424 -51.848  12.978  1.00  0.00     0.014 C 
ENDBRANCH   8  11
ENDBRANCH   4   7
BRANCH   1  16
HETATM   16  C   UNL     1     -37.517 -50.924  12.589  1.00  0.00     0.160 C 
BRANCH  16  17
HETATM   17  C   UNL     1     -37.808 -49.899  11.503  1.00  0.00     0.221 C 
HETATM   18  N   UNL     1     -37.263 -50.113  10.273  1.00  0.00    -0.370 N 
HETATM   19  H   UNL     1     -37.404 -49.439   9.535  1.00  0.00     0.159 HD
HETATM   20  H   UNL     1     -36.695 -50.940  10.080  1.00  0.00     0.159 HD
HETATM   21  O   UNL     1     -38.447 -48.872  11.729  1.00  0.00    -0.273 OA
ENDBRANCH  16  17
ENDBRANCH   1  16
TORSDOF 4
ENDMDL
