MODEL 1
REMARK VINA RESULT:      -5.8      0.000      0.000
REMARK  5 active torsions:
REMARK  status: ('A' for Active; 'I' for Inactive)
REMARK    1  A    between atoms: C_2  and  C_5 
REMARK    2  A    between atoms: C_5  and  C_6 
REMARK       I    between atoms: C_6  and  N_8 
REMARK    3  A    between atoms: N_8  and  C_9 
REMARK    4  A    between atoms: C_9  and  C_10 
REMARK    5  A    between atoms: C_13  and  N_17 
ROOT
HETATM    1  C   UNL     1     -41.946 -54.022  14.233  1.00  0.00    -0.025 A 
HETATM    2  C   UNL     1     -41.581 -52.908  14.980  1.00  0.00     0.014 A 
HETATM    3  C   UNL     1     -40.667 -51.986  14.454  1.00  0.00     0.049 A 
HETATM    4  C   UNL     1     -40.113 -52.174  13.187  1.00  0.00     0.103 A 
HETATM    5  N   UNL     1     -40.459 -53.265  12.469  1.00  0.00    -0.352 N 
ATOM      6  HN  UNL     1     -40.058 -53.422  11.545  1.00  0.00     0.166 HD
HETATM    7  C   UNL     1     -41.349 -54.149  12.991  1.00  0.00     0.098 A 
ENDROOT
BRANCH   1   8
HETATM    8  C   UNL     1     -42.925 -55.033  14.744  1.00  0.00     0.162 C 
BRANCH   8   9
HETATM    9  N   UNL     1     -44.170 -54.441  15.171  1.00  0.00    -0.357 N 
HETATM   10  C   UNL     1     -45.166 -54.198  14.252  1.00  0.00     0.218 C 
HETATM   11  O   UNL     1     -45.057 -54.488  13.064  1.00  0.00    -0.274 OA
HETATM   12  H   UNL     1     -44.296 -54.183  16.142  1.00  0.00     0.162 HD
BRANCH  10  13
HETATM   13  C   UNL     1     -46.410 -53.526  14.805  1.00  0.00     0.111 C 
BRANCH  13  14
HETATM   14  C   UNL     1     -46.412 -51.981  14.703  1.00  0.00    -0.043 C 
HETATM   15  C   UNL     1     -46.869 -51.517  13.310  1.00  0.00     0.015 C 
HETATM   16  C   UNL     1     -45.022 -51.400  15.003  1.00  0.00     0.015 C 
HETATM   17  C   UNL     1     -47.408 -51.428  15.742  1.00  0.00     0.015 C 
ENDBRANCH  13  14
ENDBRANCH  10  13
ENDBRANCH   8   9
ENDBRANCH   1   8
BRANCH   4  18
HETATM   18  N   UNL     1     -39.160 -51.314  12.677  1.00  0.00    -0.363 N 
HETATM   19  C   UNL     1     -37.825 -51.165  13.271  1.00  0.00     0.150 C 
HETATM   20  C   UNL     1     -37.679 -49.801  13.967  1.00  0.00     0.187 C 
HETATM   21  O   UNL     1     -38.018 -48.713  13.093  1.00  0.00    -0.388 OA
HETATM   22  C   UNL     1     -39.383 -48.845  12.656  1.00  0.00     0.187 C 
HETATM   23  C   UNL     1     -39.594 -50.153  11.881  1.00  0.00     0.150 C 
ENDBRANCH   4  18
TORSDOF 5
ENDMDL
MODEL 2
REMARK VINA RESULT:      -5.8      3.646      4.550
REMARK  5 active torsions:
REMARK  status: ('A' for Active; 'I' for Inactive)
REMARK    1  A    between atoms: C_2  and  C_5 
REMARK    2  A    between atoms: C_5  and  C_6 
REMARK       I    between atoms: C_6  and  N_8 
REMARK    3  A    between atoms: N_8  and  C_9 
REMARK    4  A    between atoms: C_9  and  C_10 
REMARK    5  A    between atoms: C_13  and  N_17 
ROOT
HETATM    1  C   UNL     1     -41.649 -50.593  12.609  1.00  0.00    -0.025 A 
HETATM    2  C   UNL     1     -42.653 -49.651  12.803  1.00  0.00     0.014 A 
HETATM    3  C   UNL     1     -42.792 -48.587  11.904  1.00  0.00     0.049 A 
HETATM    4  C   UNL     1     -41.931 -48.457  10.813  1.00  0.00     0.103 A 
HETATM    5  N   UNL     1     -40.948 -49.366  10.635  1.00  0.00    -0.352 N 
ATOM      6  HN  UNL     1     -40.305 -49.281   9.848  1.00  0.00     0.166 HD
HETATM    7  C   UNL     1     -40.826 -50.394  11.514  1.00  0.00     0.098 A 
ENDROOT
BRANCH   1   8
HETATM    8  C   UNL     1     -41.462 -51.755  13.535  1.00  0.00     0.162 C 
BRANCH   8   9
HETATM    9  N   UNL     1     -42.631 -52.028  14.335  1.00  0.00    -0.357 N 
HETATM   10  C   UNL     1     -43.591 -52.901  13.873  1.00  0.00     0.218 C 
HETATM   11  O   UNL     1     -43.488 -53.493  12.803  1.00  0.00    -0.274 OA
HETATM   12  H   UNL     1     -42.754 -51.555  15.222  1.00  0.00     0.162 HD
BRANCH  10  13
HETATM   13  C   UNL     1     -44.800 -53.072  14.775  1.00  0.00     0.111 C 
BRANCH  13  14
HETATM   14  C   UNL     1     -45.768 -51.864  14.796  1.00  0.00    -0.043 C 
HETATM   15  C   UNL     1     -45.169 -50.684  15.579  1.00  0.00     0.015 C 
HETATM   16  C   UNL     1     -47.124 -52.245  15.409  1.00  0.00     0.015 C 
HETATM   17  C   UNL     1     -46.001 -51.405  13.342  1.00  0.00     0.015 C 
ENDBRANCH  13  14
ENDBRANCH  10  13
ENDBRANCH   8   9
ENDBRANCH   1   8
BRANCH   4  18
HETATM   18  N   UNL     1     -42.008 -47.379   9.952  1.00  0.00    -0.363 N 
HETATM   19  C   UNL     1     -41.539 -46.036  10.317  1.00  0.00     0.150 C 
HETATM   20  C   UNL     1     -42.722 -45.073  10.516  1.00  0.00     0.187 C 
HETATM   21  O   UNL     1     -43.602 -45.060   9.381  1.00  0.00    -0.388 OA
HETATM   22  C   UNL     1     -44.134 -46.379   9.161  1.00  0.00     0.187 C 
HETATM   23  C   UNL     1     -43.015 -47.391   8.878  1.00  0.00     0.150 C 
ENDBRANCH   4  18
TORSDOF 5
ENDMDL
MODEL 3
REMARK VINA RESULT:      -5.8      2.951      4.188
REMARK  5 active torsions:
REMARK  status: ('A' for Active; 'I' for Inactive)
REMARK    1  A    between atoms: C_2  and  C_5 
REMARK    2  A    between atoms: C_5  and  C_6 
REMARK       I    between atoms: C_6  and  N_8 
REMARK    3  A    between atoms: N_8  and  C_9 
REMARK    4  A    between atoms: C_9  and  C_10 
REMARK    5  A    between atoms: C_13  and  N_17 
ROOT
HETATM    1  C   UNL     1     -40.952 -50.601  11.838  1.00  0.00    -0.025 A 
HETATM    2  C   UNL     1     -41.948 -49.661  12.077  1.00  0.00     0.014 A 
HETATM    3  C   UNL     1     -41.652 -48.296  11.982  1.00  0.00     0.049 A 
HETATM    4  C   UNL     1     -40.366 -47.865  11.653  1.00  0.00     0.103 A 
HETATM    5  N   UNL     1     -39.398 -48.781  11.435  1.00  0.00    -0.352 N 
ATOM      6  HN  UNL     1     -38.450 -48.483  11.202  1.00  0.00     0.166 HD
HETATM    7  C   UNL     1     -39.699 -50.102  11.528  1.00  0.00     0.098 A 
ENDROOT
BRANCH   1   8
HETATM    8  C   UNL     1     -41.216 -52.074  11.917  1.00  0.00     0.162 C 
BRANCH   8   9
HETATM    9  N   UNL     1     -42.616 -52.400  11.788  1.00  0.00    -0.357 N 
HETATM   10  C   UNL     1     -43.279 -53.007  12.831  1.00  0.00     0.218 C 
HETATM   11  O   UNL     1     -42.735 -53.269  13.899  1.00  0.00    -0.274 OA
HETATM   12  H   UNL     1     -43.099 -52.203  10.920  1.00  0.00     0.162 HD
BRANCH  10  13
HETATM   13  C   UNL     1     -44.734 -53.349  12.563  1.00  0.00     0.111 C 
BRANCH  13  14
HETATM   14  C   UNL     1     -45.753 -52.320  13.111  1.00  0.00    -0.043 C 
HETATM   15  C   UNL     1     -46.735 -51.871  12.015  1.00  0.00     0.015 C 
HETATM   16  C   UNL     1     -45.043 -51.088  13.694  1.00  0.00     0.015 C 
HETATM   17  C   UNL     1     -46.565 -52.994  14.235  1.00  0.00     0.015 C 
ENDBRANCH  13  14
ENDBRANCH  10  13
ENDBRANCH   8   9
ENDBRANCH   1   8
BRANCH   4  18
HETATM   18  N   UNL     1     -40.036 -46.523  11.620  1.00  0.00    -0.363 N 
HETATM   19  C   UNL     1     -39.631 -45.775  12.817  1.00  0.00     0.150 C 
HETATM   20  C   UNL     1     -40.726 -44.782  13.244  1.00  0.00     0.187 C 
HETATM   21  O   UNL     1     -41.122 -43.922  12.164  1.00  0.00    -0.388 OA
HETATM   22  C   UNL     1     -41.637 -44.710  11.076  1.00  0.00     0.187 C 
HETATM   23  C   UNL     1     -40.575 -45.680  10.540  1.00  0.00     0.150 C 
ENDBRANCH   4  18
TORSDOF 5
ENDMDL
MODEL 4
REMARK VINA RESULT:      -5.6      3.925      6.182
REMARK  5 active torsions:
REMARK  status: ('A' for Active; 'I' for Inactive)
REMARK    1  A    between atoms: C_2  and  C_5 
REMARK    2  A    between atoms: C_5  and  C_6 
REMARK       I    between atoms: C_6  and  N_8 
REMARK    3  A    between atoms: N_8  and  C_9 
REMARK    4  A    between atoms: C_9  and  C_10 
REMARK    5  A    between atoms: C_13  and  N_17 
ROOT
HETATM    1  C   UNL     1     -40.551 -50.793  12.003  1.00  0.00    -0.025 A 
HETATM    2  C   UNL     1     -39.531 -50.928  12.938  1.00  0.00     0.014 A 
HETATM    3  C   UNL     1     -39.438 -52.098  13.701  1.00  0.00     0.049 A 
HETATM    4  C   UNL     1     -40.361 -53.133  13.537  1.00  0.00     0.103 A 
HETATM    5  N   UNL     1     -41.359 -52.992  12.637  1.00  0.00    -0.352 N 
ATOM      6  HN  UNL     1     -42.046 -53.735  12.511  1.00  0.00     0.166 HD
HETATM    7  C   UNL     1     -41.435 -51.853  11.903  1.00  0.00     0.098 A 
ENDROOT
BRANCH   1   8
HETATM    8  C   UNL     1     -40.691 -49.567  11.154  1.00  0.00     0.162 C 
BRANCH   8   9
HETATM    9  N   UNL     1     -42.063 -49.145  11.001  1.00  0.00    -0.357 N 
HETATM   10  C   UNL     1     -42.346 -47.848  10.635  1.00  0.00     0.218 C 
HETATM   11  O   UNL     1     -41.472 -47.019  10.401  1.00  0.00    -0.274 OA
HETATM   12  H   UNL     1     -42.813 -49.799  11.190  1.00  0.00     0.162 HD
BRANCH  10  13
HETATM   13  C   UNL     1     -43.823 -47.504  10.554  1.00  0.00     0.111 C 
BRANCH  13  14
HETATM   14  C   UNL     1     -44.327 -47.140   9.136  1.00  0.00    -0.043 C 
HETATM   15  C   UNL     1     -45.804 -47.527   8.954  1.00  0.00     0.015 C 
HETATM   16  C   UNL     1     -43.483 -47.826   8.051  1.00  0.00     0.015 C 
HETATM   17  C   UNL     1     -44.206 -45.613   8.957  1.00  0.00     0.015 C 
ENDBRANCH  13  14
ENDBRANCH  10  13
ENDBRANCH   8   9
ENDBRANCH   1   8
BRANCH   4  18
HETATM   18  N   UNL     1     -40.327 -54.267  14.326  1.00  0.00    -0.363 N 
HETATM   19  C   UNL     1     -41.426 -54.640  15.227  1.00  0.00     0.150 C 
HETATM   20  C   UNL     1     -41.022 -54.449  16.699  1.00  0.00     0.187 C 
HETATM   21  O   UNL     1     -39.796 -55.128  17.012  1.00  0.00    -0.388 OA
HETATM   22  C   UNL     1     -38.731 -54.619  16.189  1.00  0.00     0.187 C 
HETATM   23  C   UNL     1     -39.025 -54.842  14.699  1.00  0.00     0.150 C 
ENDBRANCH   4  18
TORSDOF 5
ENDMDL
MODEL 5
REMARK VINA RESULT:      -5.6      1.603      2.199
REMARK  5 active torsions:
REMARK  status: ('A' for Active; 'I' for Inactive)
REMARK    1  A    between atoms: C_2  and  C_5 
REMARK    2  A    between atoms: C_5  and  C_6 
REMARK       I    between atoms: C_6  and  N_8 
REMARK    3  A    between atoms: N_8  and  C_9 
REMARK    4  A    between atoms: C_9  and  C_10 
REMARK    5  A    between atoms: C_13  and  N_17 
ROOT
HETATM    1  C   UNL     1     -40.979 -52.924  12.968  1.00  0.00    -0.025 A 
HETATM    2  C   UNL     1     -40.095 -52.603  13.992  1.00  0.00     0.014 A 
HETATM    3  C   UNL     1     -39.357 -51.416  13.926  1.00  0.00     0.049 A 
HETATM    4  C   UNL     1     -39.494 -50.548  12.841  1.00  0.00     0.103 A 
HETATM    5  N   UNL     1     -40.345 -50.869  11.842  1.00  0.00    -0.352 N 
ATOM      6  HN  UNL     1     -40.451 -50.251  11.038  1.00  0.00     0.166 HD
HETATM    7  C   UNL     1     -41.056 -52.024  11.920  1.00  0.00     0.098 A 
ENDROOT
BRANCH   1   8
HETATM    8  C   UNL     1     -41.800 -54.177  12.993  1.00  0.00     0.162 C 
BRANCH   8   9
HETATM    9  N   UNL     1     -43.195 -53.938  12.708  1.00  0.00    -0.357 N 
HETATM   10  C   UNL     1     -44.062 -53.634  13.733  1.00  0.00     0.218 C 
HETATM   11  O   UNL     1     -43.698 -53.527  14.900  1.00  0.00    -0.274 OA
HETATM   12  H   UNL     1     -43.534 -54.022  11.758  1.00  0.00     0.162 HD
BRANCH  10  13
HETATM   13  C   UNL     1     -45.513 -53.454  13.323  1.00  0.00     0.111 C 
BRANCH  13  14
HETATM   14  C   UNL     1     -45.999 -51.984  13.289  1.00  0.00    -0.043 C 
HETATM   15  C   UNL     1     -46.798 -51.633  14.555  1.00  0.00     0.015 C 
HETATM   16  C   UNL     1     -46.864 -51.711  12.049  1.00  0.00     0.015 C 
HETATM   17  C   UNL     1     -44.761 -51.066  13.234  1.00  0.00     0.015 C 
ENDBRANCH  13  14
ENDBRANCH  10  13
ENDBRANCH   8   9
ENDBRANCH   1   8
BRANCH   4  18
HETATM   18  N   UNL     1     -38.727 -49.405  12.724  1.00  0.00    -0.363 N 
HETATM   19  C   UNL     1     -37.704 -49.031  13.709  1.00  0.00     0.150 C 
HETATM   20  C   UNL     1     -38.150 -47.809  14.531  1.00  0.00     0.187 C 
HETATM   21  O   UNL     1     -38.537 -46.710  13.693  1.00  0.00    -0.388 OA
HETATM   22  C   UNL     1     -39.635 -47.101  12.848  1.00  0.00     0.187 C 
HETATM   23  C   UNL     1     -39.244 -48.273  11.937  1.00  0.00     0.150 C 
ENDBRANCH   4  18
TORSDOF 5
ENDMDL
MODEL 6
REMARK VINA RESULT:      -5.6      3.576      7.259
REMARK  5 active torsions:
REMARK  status: ('A' for Active; 'I' for Inactive)
REMARK    1  A    between atoms: C_2  and  C_5 
REMARK    2  A    between atoms: C_5  and  C_6 
REMARK       I    between atoms: C_6  and  N_8 
REMARK    3  A    between atoms: N_8  and  C_9 
REMARK    4  A    between atoms: C_9  and  C_10 
REMARK    5  A    between atoms: C_13  and  N_17 
ROOT
HETATM    1  C   UNL     1     -40.506 -54.172  14.003  1.00  0.00    -0.025 A 
HETATM    2  C   UNL     1     -41.406 -54.613  14.967  1.00  0.00     0.014 A 
HETATM    3  C   UNL     1     -42.778 -54.615  14.689  1.00  0.00     0.049 A 
HETATM    4  C   UNL     1     -43.256 -54.176  13.454  1.00  0.00     0.103 A 
HETATM    5  N   UNL     1     -42.381 -53.736  12.524  1.00  0.00    -0.352 N 
ATOM      6  HN  UNL     1     -42.714 -53.404  11.619  1.00  0.00     0.166 HD
HETATM    7  C   UNL     1     -41.052 -53.742  12.806  1.00  0.00     0.098 A 
ENDROOT
BRANCH   1   8
HETATM    8  C   UNL     1     -39.028 -54.158  14.245  1.00  0.00     0.162 C 
BRANCH   8   9
HETATM    9  N   UNL     1     -38.586 -55.249  15.080  1.00  0.00    -0.357 N 
HETATM   10  C   UNL     1     -38.303 -55.025  16.409  1.00  0.00     0.218 C 
HETATM   11  O   UNL     1     -38.435 -53.926  16.939  1.00  0.00    -0.274 OA
HETATM   12  H   UNL     1     -38.461 -56.169  14.678  1.00  0.00     0.162 HD
BRANCH  10  13
HETATM   13  C   UNL     1     -37.798 -56.234  17.177  1.00  0.00     0.111 C 
BRANCH  13  14
HETATM   14  C   UNL     1     -38.867 -56.943  18.045  1.00  0.00    -0.043 C 
HETATM   15  C   UNL     1     -40.132 -57.251  17.227  1.00  0.00     0.015 C 
HETATM   16  C   UNL     1     -39.246 -56.094  19.268  1.00  0.00     0.015 C 
HETATM   17  C   UNL     1     -38.279 -58.280  18.540  1.00  0.00     0.015 C 
ENDBRANCH  13  14
ENDBRANCH  10  13
ENDBRANCH   8   9
ENDBRANCH   1   8
BRANCH   4  18
HETATM   18  N   UNL     1     -44.610 -54.107  13.183  1.00  0.00    -0.363 N 
HETATM   19  C   UNL     1     -45.267 -52.872  12.735  1.00  0.00     0.150 C 
HETATM   20  C   UNL     1     -46.167 -52.293  13.841  1.00  0.00     0.187 C 
HETATM   21  O   UNL     1     -47.099 -53.265  14.339  1.00  0.00    -0.388 OA
HETATM   22  C   UNL     1     -46.386 -54.389  14.888  1.00  0.00     0.187 C 
HETATM   23  C   UNL     1     -45.519 -55.072  13.822  1.00  0.00     0.150 C 
ENDBRANCH   4  18
TORSDOF 5
ENDMDL
MODEL 7
REMARK VINA RESULT:      -5.3      1.710      7.007
REMARK  5 active torsions:
REMARK  status: ('A' for Active; 'I' for Inactive)
REMARK    1  A    between atoms: C_2  and  C_5 
REMARK    2  A    between atoms: C_5  and  C_6 
REMARK       I    between atoms: C_6  and  N_8 
REMARK    3  A    between atoms: N_8  and  C_9 
REMARK    4  A    between atoms: C_9  and  C_10 
REMARK    5  A    between atoms: C_13  and  N_17 
ROOT
HETATM    1  C   UNL     1     -40.828 -52.750  12.951  1.00  0.00    -0.025 A 
HETATM    2  C   UNL     1     -41.297 -53.692  13.860  1.00  0.00     0.014 A 
HETATM    3  C   UNL     1     -42.648 -54.056  13.850  1.00  0.00     0.049 A 
HETATM    4  C   UNL     1     -43.536 -53.481  12.940  1.00  0.00     0.103 A 
HETATM    5  N   UNL     1     -43.081 -52.556  12.066  1.00  0.00    -0.352 N 
ATOM      6  HN  UNL     1     -43.717 -52.120  11.400  1.00  0.00     0.166 HD
HETATM    7  C   UNL     1     -41.766 -52.214  12.086  1.00  0.00     0.098 A 
ENDROOT
BRANCH   1   8
HETATM    8  C   UNL     1     -39.391 -52.332  12.912  1.00  0.00     0.162 C 
BRANCH   8   9
HETATM    9  N   UNL     1     -39.191 -51.076  12.228  1.00  0.00    -0.357 N 
HETATM   10  C   UNL     1     -38.848 -49.952  12.945  1.00  0.00     0.218 C 
HETATM   11  O   UNL     1     -38.674 -49.967  14.160  1.00  0.00    -0.274 OA
HETATM   12  H   UNL     1     -39.329 -51.022  11.227  1.00  0.00     0.162 HD
BRANCH  10  13
HETATM   13  C   UNL     1     -38.714 -48.678  12.129  1.00  0.00     0.111 C 
BRANCH  13  14
HETATM   14  C   UNL     1     -39.822 -47.626  12.384  1.00  0.00    -0.043 C 
HETATM   15  C   UNL     1     -41.156 -48.299  12.745  1.00  0.00     0.015 C 
HETATM   16  C   UNL     1     -40.023 -46.719  11.161  1.00  0.00     0.015 C 
HETATM   17  C   UNL     1     -39.390 -46.749  13.577  1.00  0.00     0.015 C 
ENDBRANCH  13  14
ENDBRANCH  10  13
ENDBRANCH   8   9
ENDBRANCH   1   8
BRANCH   4  18
HETATM   18  N   UNL     1     -44.886 -53.775  12.957  1.00  0.00    -0.363 N 
HETATM   19  C   UNL     1     -45.919 -52.782  12.635  1.00  0.00     0.150 C 
HETATM   20  C   UNL     1     -46.702 -52.372  13.894  1.00  0.00     0.187 C 
HETATM   21  O   UNL     1     -47.229 -53.510  14.594  1.00  0.00    -0.388 OA
HETATM   22  C   UNL     1     -46.153 -54.374  15.002  1.00  0.00     0.187 C 
HETATM   23  C   UNL     1     -45.365 -54.891  13.790  1.00  0.00     0.150 C 
ENDBRANCH   4  18
TORSDOF 5
ENDMDL
MODEL 8
REMARK VINA RESULT:      -5.2      3.439      6.086
REMARK  5 active torsions:
REMARK  status: ('A' for Active; 'I' for Inactive)
REMARK    1  A    between atoms: C_2  and  C_5 
REMARK    2  A    between atoms: C_5  and  C_6 
REMARK       I    between atoms: C_6  and  N_8 
REMARK    3  A    between atoms: N_8  and  C_9 
REMARK    4  A    between atoms: C_9  and  C_10 
REMARK    5  A    between atoms: C_13  and  N_17 
ROOT
HETATM    1  C   UNL     1     -38.852 -48.719  13.340  1.00  0.00    -0.025 A 
HETATM    2  C   UNL     1     -39.219 -47.467  13.819  1.00  0.00     0.014 A 
HETATM    3  C   UNL     1     -39.762 -46.519  12.943  1.00  0.00     0.049 A 
HETATM    4  C   UNL     1     -39.937 -46.815  11.591  1.00  0.00     0.103 A 
HETATM    5  N   UNL     1     -39.567 -48.028  11.126  1.00  0.00    -0.352 N 
ATOM      6  HN  UNL     1     -39.680 -48.258  10.139  1.00  0.00     0.166 HD
HETATM    7  C   UNL     1     -39.043 -48.938  11.987  1.00  0.00     0.098 A 
ENDROOT
BRANCH   1   8
HETATM    8  C   UNL     1     -38.275 -49.773  14.235  1.00  0.00     0.162 C 
BRANCH   8   9
HETATM    9  N   UNL     1     -39.224 -50.808  14.566  1.00  0.00    -0.357 N 
HETATM   10  C   UNL     1     -39.126 -52.046  13.970  1.00  0.00     0.218 C 
HETATM   11  O   UNL     1     -38.238 -52.329  13.172  1.00  0.00    -0.274 OA
HETATM   12  H   UNL     1     -39.975 -50.611  15.217  1.00  0.00     0.162 HD
BRANCH  10  13
HETATM   13  C   UNL     1     -40.209 -53.039  14.356  1.00  0.00     0.111 C 
BRANCH  13  14
HETATM   14  C   UNL     1     -41.542 -52.874  13.586  1.00  0.00    -0.043 C 
HETATM   15  C   UNL     1     -42.317 -54.201  13.525  1.00  0.00     0.015 C 
HETATM   16  C   UNL     1     -41.304 -52.357  12.159  1.00  0.00     0.015 C 
HETATM   17  C   UNL     1     -42.412 -51.846  14.340  1.00  0.00     0.015 C 
ENDBRANCH  13  14
ENDBRANCH  10  13
ENDBRANCH   8   9
ENDBRANCH   1   8
BRANCH   4  18
HETATM   18  N   UNL     1     -40.408 -45.873  10.696  1.00  0.00    -0.363 N 
HETATM   19  C   UNL     1     -39.681 -44.634  10.391  1.00  0.00     0.150 C 
HETATM   20  C   UNL     1     -40.398 -43.411  10.988  1.00  0.00     0.187 C 
HETATM   21  O   UNL     1     -41.778 -43.351  10.593  1.00  0.00    -0.388 OA
HETATM   22  C   UNL     1     -42.466 -44.533  11.043  1.00  0.00     0.187 C 
HETATM   23  C   UNL     1     -41.854 -45.800  10.428  1.00  0.00     0.150 C 
ENDBRANCH   4  18
TORSDOF 5
ENDMDL
MODEL 9
REMARK VINA RESULT:      -5.2      6.094      7.183
REMARK  5 active torsions:
REMARK  status: ('A' for Active; 'I' for Inactive)
REMARK    1  A    between atoms: C_2  and  C_5 
REMARK    2  A    between atoms: C_5  and  C_6 
REMARK       I    between atoms: C_6  and  N_8 
REMARK    3  A    between atoms: N_8  and  C_9 
REMARK    4  A    between atoms: C_9  and  C_10 
REMARK    5  A    between atoms: C_13  and  N_17 
ROOT
HETATM    1  C   UNL     1     -39.365 -46.663  12.647  1.00  0.00    -0.025 A 
HETATM    2  C   UNL     1     -39.050 -48.017  12.645  1.00  0.00     0.014 A 
HETATM    3  C   UNL     1     -38.517 -48.610  13.795  1.00  0.00     0.049 A 
HETATM    4  C   UNL     1     -38.293 -47.855  14.948  1.00  0.00     0.103 A 
HETATM    5  N   UNL     1     -38.587 -46.537  14.944  1.00  0.00    -0.352 N 
ATOM      6  HN  UNL     1     -38.422 -45.969  15.774  1.00  0.00     0.166 HD
HETATM    7  C   UNL     1     -39.106 -45.976  13.821  1.00  0.00     0.098 A 
ENDROOT
BRANCH   1   8
HETATM    8  C   UNL     1     -39.947 -45.981  11.447  1.00  0.00     0.162 C 
BRANCH   8   9
HETATM    9  N   UNL     1     -40.737 -46.868  10.627  1.00  0.00    -0.357 N 
HETATM   10  C   UNL     1     -42.099 -46.944  10.814  1.00  0.00     0.218 C 
HETATM   11  O   UNL     1     -42.694 -46.263  11.643  1.00  0.00    -0.274 OA
HETATM   12  H   UNL     1     -40.282 -47.450   9.935  1.00  0.00     0.162 HD
BRANCH  10  13
HETATM   13  C   UNL     1     -42.820 -47.947   9.930  1.00  0.00     0.111 C 
BRANCH  13  14
HETATM   14  C   UNL     1     -43.812 -47.323   8.918  1.00  0.00    -0.043 C 
HETATM   15  C   UNL     1     -43.545 -45.820   8.732  1.00  0.00     0.015 C 
HETATM   16  C   UNL     1     -45.268 -47.530   9.364  1.00  0.00     0.015 C 
HETATM   17  C   UNL     1     -43.614 -48.017   7.555  1.00  0.00     0.015 C 
ENDBRANCH  13  14
ENDBRANCH  10  13
ENDBRANCH   8   9
ENDBRANCH   1   8
BRANCH   4  18
HETATM   18  N   UNL     1     -37.705 -48.404  16.072  1.00  0.00    -0.363 N 
HETATM   19  C   UNL     1     -37.004 -47.595  17.078  1.00  0.00     0.150 C 
HETATM   20  C   UNL     1     -35.486 -47.834  17.019  1.00  0.00     0.187 C 
HETATM   21  O   UNL     1     -35.158 -49.229  17.108  1.00  0.00    -0.388 OA
HETATM   22  C   UNL     1     -35.763 -49.944  16.015  1.00  0.00     0.187 C 
HETATM   23  C   UNL     1     -37.293 -49.818  16.047  1.00  0.00     0.150 C 
ENDBRANCH   4  18
TORSDOF 5
ENDMDL
