MODEL 1
REMARK VINA RESULT:      -6.7      0.000      0.000
REMARK  5 active torsions:
REMARK  status: ('A' for Active; 'I' for Inactive)
REMARK    1  A    between atoms: C_2  and  C_3 
REMARK    2  A    between atoms: C_3  and  N_4 
REMARK    3  A    between atoms: C_3  and  C_16 
REMARK       I    between atoms: N_4  and  C_5 
REMARK    4  A    between atoms: C_5  and  C_7 
REMARK    5  A    between atoms: C_7  and  N_8 
ROOT
HETATM    1  N   UNL     1     -41.817 -50.781  12.731  1.00  0.00    -0.354 N 
HETATM    2  C   UNL     1     -41.630 -49.424  12.566  1.00  0.00     0.236 C 
HETATM    3  O   UNL     1     -41.908 -48.591  13.430  1.00  0.00    -0.272 OA
HETATM    4  H   UNL     1     -41.555 -51.402  11.973  1.00  0.00     0.162 HD
ENDROOT
BRANCH   1   5
HETATM    5  C   UNL     1     -42.237 -51.361  14.012  1.00  0.00     0.092 C 
BRANCH   5   6
HETATM    6  C   UNL     1     -41.187 -52.391  14.502  1.00  0.00     0.021 C 
HETATM    7  C   UNL     1     -40.006 -52.602  13.563  1.00  0.00     0.007 C 
ENDBRANCH   5   6
BRANCH   5   8
HETATM    8  C   UNL     1     -43.693 -51.957  13.938  1.00  0.00    -0.019 C 
HETATM    9  C   UNL     1     -43.847 -52.839  12.661  1.00  0.00     0.016 C 
HETATM   10  C   UNL     1     -45.253 -53.450  12.563  1.00  0.00    -0.013 C 
HETATM   11  C   UNL     1     -46.289 -52.318  12.522  1.00  0.00     0.009 C 
HETATM   12  C   UNL     1     -45.506 -54.337  13.786  1.00  0.00     0.009 C 
HETATM   13  C   UNL     1     -46.195 -51.473  13.804  1.00  0.00    -0.013 C 
HETATM   14  C   UNL     1     -46.444 -52.373  15.022  1.00  0.00     0.009 C 
HETATM   15  C   UNL     1     -44.788 -50.856  13.902  1.00  0.00     0.016 C 
HETATM   16  C   UNL     1     -45.396 -53.497  15.067  1.00  0.00    -0.013 C 
HETATM   17  C   UNL     1     -43.986 -52.879  15.161  1.00  0.00     0.016 C 
ENDBRANCH   5   8
ENDBRANCH   1   5
BRANCH   2  18
HETATM   18  C   UNL     1     -41.125 -48.995  11.188  1.00  0.00     0.235 C 
BRANCH  18  19
HETATM   19  N   UNL     1     -41.840 -47.812  10.714  1.00  0.00    -0.301 N 
HETATM   20  C   UNL     1     -43.141 -47.937  10.269  1.00  0.00     0.102 C 
HETATM   21  C   UNL     1     -43.819 -46.902   9.767  1.00  0.00     0.092 C 
HETATM   22  C   UNL     1     -43.160 -45.588   9.710  1.00  0.00     0.250 C 
HETATM   23  O   UNL     1     -43.713 -44.623   9.196  1.00  0.00    -0.268 OA
HETATM   24  N   UNL     1     -41.908 -45.526  10.251  1.00  0.00    -0.275 N 
HETATM   25  C   UNL     1     -41.167 -46.600  10.670  1.00  0.00     0.329 C 
HETATM   26  H   UNL     1     -41.435 -44.639  10.202  1.00  0.00     0.173 HD
HETATM   27  O   UNL     1     -39.982 -46.463  10.969  1.00  0.00    -0.246 OA
ENDBRANCH  18  19
ENDBRANCH   2  18
TORSDOF 5
ENDMDL
MODEL 2
REMARK VINA RESULT:      -6.7      1.509      1.848
REMARK  5 active torsions:
REMARK  status: ('A' for Active; 'I' for Inactive)
REMARK    1  A    between atoms: C_2  and  C_3 
REMARK    2  A    between atoms: C_3  and  N_4 
REMARK    3  A    between atoms: C_3  and  C_16 
REMARK       I    between atoms: N_4  and  C_5 
REMARK    4  A    between atoms: C_5  and  C_7 
REMARK    5  A    between atoms: C_7  and  N_8 
ROOT
HETATM    1  N   UNL     1     -41.980 -50.731  11.937  1.00  0.00    -0.354 N 
HETATM    2  C   UNL     1     -40.981 -49.781  11.879  1.00  0.00     0.236 C 
HETATM    3  O   UNL     1     -40.124 -49.644  12.753  1.00  0.00    -0.272 OA
HETATM    4  H   UNL     1     -42.643 -50.784  11.171  1.00  0.00     0.162 HD
ENDROOT
BRANCH   1   5
HETATM    5  C   UNL     1     -42.023 -51.756  12.986  1.00  0.00     0.092 C 
BRANCH   5   6
HETATM    6  C   UNL     1     -41.225 -53.010  12.542  1.00  0.00     0.021 C 
HETATM    7  C   UNL     1     -40.134 -53.453  13.508  1.00  0.00     0.007 C 
ENDBRANCH   5   6
BRANCH   5   8
HETATM    8  C   UNL     1     -43.499 -52.090  13.422  1.00  0.00    -0.019 C 
HETATM    9  C   UNL     1     -44.088 -53.207  12.506  1.00  0.00     0.016 C 
HETATM   10  C   UNL     1     -45.525 -53.569  12.911  1.00  0.00    -0.013 C 
HETATM   11  C   UNL     1     -46.405 -52.316  12.809  1.00  0.00     0.009 C 
HETATM   12  C   UNL     1     -45.529 -54.087  14.354  1.00  0.00     0.009 C 
HETATM   13  C   UNL     1     -45.876 -51.224  13.753  1.00  0.00    -0.013 C 
HETATM   14  C   UNL     1     -45.879 -51.755  15.193  1.00  0.00     0.009 C 
HETATM   15  C   UNL     1     -44.438 -50.855  13.346  1.00  0.00     0.016 C 
HETATM   16  C   UNL     1     -44.985 -53.002  15.295  1.00  0.00    -0.013 C 
HETATM   17  C   UNL     1     -43.545 -52.633  14.883  1.00  0.00     0.016 C 
ENDBRANCH   5   8
ENDBRANCH   1   5
BRANCH   2  18
HETATM   18  C   UNL     1     -41.049 -48.832  10.682  1.00  0.00     0.235 C 
BRANCH  18  19
HETATM   19  N   UNL     1     -41.448 -47.490  11.102  1.00  0.00    -0.301 N 
HETATM   20  C   UNL     1     -40.479 -46.534  11.333  1.00  0.00     0.102 C 
HETATM   21  C   UNL     1     -40.783 -45.313  11.778  1.00  0.00     0.092 C 
HETATM   22  C   UNL     1     -42.197 -44.976  12.006  1.00  0.00     0.250 C 
HETATM   23  O   UNL     1     -42.523 -43.894  12.478  1.00  0.00    -0.268 OA
HETATM   24  N   UNL     1     -43.100 -45.943  11.669  1.00  0.00    -0.275 N 
HETATM   25  C   UNL     1     -42.794 -47.230  11.314  1.00  0.00     0.329 C 
HETATM   26  H   UNL     1     -44.071 -45.737  11.838  1.00  0.00     0.173 HD
HETATM   27  O   UNL     1     -43.680 -48.078  11.209  1.00  0.00    -0.246 OA
ENDBRANCH  18  19
ENDBRANCH   2  18
TORSDOF 5
ENDMDL
MODEL 3
REMARK VINA RESULT:      -6.6      1.689      1.999
REMARK  5 active torsions:
REMARK  status: ('A' for Active; 'I' for Inactive)
REMARK    1  A    between atoms: C_2  and  C_3 
REMARK    2  A    between atoms: C_3  and  N_4 
REMARK    3  A    between atoms: C_3  and  C_16 
REMARK       I    between atoms: N_4  and  C_5 
REMARK    4  A    between atoms: C_5  and  C_7 
REMARK    5  A    between atoms: C_7  and  N_8 
ROOT
HETATM    1  N   UNL     1     -41.385 -51.376  13.565  1.00  0.00    -0.354 N 
HETATM    2  C   UNL     1     -40.988 -50.359  14.409  1.00  0.00     0.236 C 
HETATM    3  O   UNL     1     -41.213 -50.357  15.620  1.00  0.00    -0.272 OA
HETATM    4  H   UNL     1     -41.154 -51.305  12.579  1.00  0.00     0.162 HD
ENDROOT
BRANCH   1   5
HETATM    5  C   UNL     1     -41.990 -52.615  14.065  1.00  0.00     0.092 C 
BRANCH   5   6
HETATM    6  C   UNL     1     -41.413 -53.837  13.304  1.00  0.00     0.021 C 
HETATM    7  C   UNL     1     -39.984 -54.210  13.676  1.00  0.00     0.007 C 
ENDBRANCH   5   6
BRANCH   5   8
HETATM    8  C   UNL     1     -43.564 -52.557  14.029  1.00  0.00    -0.019 C 
HETATM    9  C   UNL     1     -44.128 -53.789  13.258  1.00  0.00     0.016 C 
HETATM   10  C   UNL     1     -45.664 -53.773  13.215  1.00  0.00    -0.013 C 
HETATM   11  C   UNL     1     -46.132 -52.486  12.522  1.00  0.00     0.009 C 
HETATM   12  C   UNL     1     -46.211 -53.817  14.645  1.00  0.00     0.009 C 
HETATM   13  C   UNL     1     -45.637 -51.258  13.305  1.00  0.00    -0.013 C 
HETATM   14  C   UNL     1     -46.186 -51.317  14.737  1.00  0.00     0.009 C 
HETATM   15  C   UNL     1     -44.098 -51.269  13.345  1.00  0.00     0.016 C 
HETATM   16  C   UNL     1     -45.703 -52.600  15.432  1.00  0.00    -0.013 C 
HETATM   17  C   UNL     1     -44.161 -52.613  15.468  1.00  0.00     0.016 C 
ENDBRANCH   5   8
ENDBRANCH   1   5
BRANCH   2  18
HETATM   18  C   UNL     1     -40.314 -49.168  13.728  1.00  0.00     0.235 C 
BRANCH  18  19
HETATM   19  N   UNL     1     -41.079 -48.730  12.563  1.00  0.00    -0.301 N 
HETATM   20  C   UNL     1     -42.207 -47.954  12.743  1.00  0.00     0.102 C 
HETATM   21  C   UNL     1     -42.977 -47.579  11.719  1.00  0.00     0.092 C 
HETATM   22  C   UNL     1     -42.596 -47.992  10.360  1.00  0.00     0.250 C 
HETATM   23  O   UNL     1     -43.305 -47.733   9.396  1.00  0.00    -0.268 OA
HETATM   24  N   UNL     1     -41.421 -48.680  10.255  1.00  0.00    -0.275 N 
HETATM   25  C   UNL     1     -40.682 -49.159  11.304  1.00  0.00     0.329 C 
HETATM   26  H   UNL     1     -41.155 -48.989   9.334  1.00  0.00     0.173 HD
HETATM   27  O   UNL     1     -39.740 -49.925  11.108  1.00  0.00    -0.246 OA
ENDBRANCH  18  19
ENDBRANCH   2  18
TORSDOF 5
ENDMDL
MODEL 4
REMARK VINA RESULT:      -6.5      2.785      4.074
REMARK  5 active torsions:
REMARK  status: ('A' for Active; 'I' for Inactive)
REMARK    1  A    between atoms: C_2  and  C_3 
REMARK    2  A    between atoms: C_3  and  N_4 
REMARK    3  A    between atoms: C_3  and  C_16 
REMARK       I    between atoms: N_4  and  C_5 
REMARK    4  A    between atoms: C_5  and  C_7 
REMARK    5  A    between atoms: C_7  and  N_8 
ROOT
HETATM    1  N   UNL     1     -41.516 -51.472  14.083  1.00  0.00    -0.354 N 
HETATM    2  C   UNL     1     -40.717 -50.870  15.033  1.00  0.00     0.236 C 
HETATM    3  O   UNL     1     -40.564 -51.315  16.172  1.00  0.00    -0.272 OA
HETATM    4  H   UNL     1     -41.583 -51.045  13.165  1.00  0.00     0.162 HD
ENDROOT
BRANCH   1   5
HETATM    5  C   UNL     1     -42.148 -52.777  14.307  1.00  0.00     0.092 C 
BRANCH   5   6
HETATM    6  C   UNL     1     -41.524 -53.841  13.366  1.00  0.00     0.021 C 
HETATM    7  C   UNL     1     -40.082 -54.215  13.684  1.00  0.00     0.007 C 
ENDBRANCH   5   6
BRANCH   5   8
HETATM    8  C   UNL     1     -43.716 -52.700  14.192  1.00  0.00    -0.019 C 
HETATM    9  C   UNL     1     -44.362 -52.746  15.610  1.00  0.00     0.016 C 
HETATM   10  C   UNL     1     -45.894 -52.659  15.537  1.00  0.00    -0.013 C 
HETATM   11  C   UNL     1     -46.423 -53.833  14.703  1.00  0.00     0.009 C 
HETATM   12  C   UNL     1     -46.294 -51.335  14.877  1.00  0.00     0.009 C 
HETATM   13  C   UNL     1     -45.846 -53.768  13.279  1.00  0.00    -0.013 C 
HETATM   14  C   UNL     1     -46.248 -52.437  12.631  1.00  0.00     0.009 C 
HETATM   15  C   UNL     1     -44.311 -53.861  13.349  1.00  0.00     0.016 C 
HETATM   16  C   UNL     1     -45.704 -51.263  13.461  1.00  0.00    -0.013 C 
HETATM   17  C   UNL     1     -44.166 -51.359  13.535  1.00  0.00     0.016 C 
ENDBRANCH   5   8
ENDBRANCH   1   5
BRANCH   2  18
HETATM   18  C   UNL     1     -40.083 -49.544  14.611  1.00  0.00     0.235 C 
BRANCH  18  19
HETATM   19  N   UNL     1     -39.240 -49.720  13.430  1.00  0.00    -0.301 N 
HETATM   20  C   UNL     1     -38.220 -50.650  13.456  1.00  0.00     0.102 C 
HETATM   21  C   UNL     1     -37.382 -50.808  12.429  1.00  0.00     0.092 C 
HETATM   22  C   UNL     1     -37.570 -49.977  11.230  1.00  0.00     0.250 C 
HETATM   23  O   UNL     1     -36.788 -50.034  10.290  1.00  0.00    -0.268 OA
HETATM   24  N   UNL     1     -38.653 -49.146  11.246  1.00  0.00    -0.275 N 
HETATM   25  C   UNL     1     -39.454 -48.901  12.331  1.00  0.00     0.329 C 
HETATM   26  H   UNL     1     -38.786 -48.555  10.442  1.00  0.00     0.173 HD
HETATM   27  O   UNL     1     -40.289 -48.000  12.301  1.00  0.00    -0.246 OA
ENDBRANCH  18  19
ENDBRANCH   2  18
TORSDOF 5
ENDMDL
MODEL 5
REMARK VINA RESULT:      -6.3      2.541      3.815
REMARK  5 active torsions:
REMARK  status: ('A' for Active; 'I' for Inactive)
REMARK    1  A    between atoms: C_2  and  C_3 
REMARK    2  A    between atoms: C_3  and  N_4 
REMARK    3  A    between atoms: C_3  and  C_16 
REMARK       I    between atoms: N_4  and  C_5 
REMARK    4  A    between atoms: C_5  and  C_7 
REMARK    5  A    between atoms: C_7  and  N_8 
ROOT
HETATM    1  N   UNL     1     -41.514 -53.336  14.782  1.00  0.00    -0.354 N 
HETATM    2  C   UNL     1     -40.508 -52.533  15.280  1.00  0.00     0.236 C 
HETATM    3  O   UNL     1     -40.525 -52.047  16.411  1.00  0.00    -0.272 OA
HETATM    4  H   UNL     1     -41.420 -53.704  13.841  1.00  0.00     0.162 HD
ENDROOT
BRANCH   1   5
HETATM    5  C   UNL     1     -42.633 -53.792  15.614  1.00  0.00     0.092 C 
BRANCH   5   6
HETATM    6  C   UNL     1     -42.601 -55.337  15.752  1.00  0.00     0.021 C 
HETATM    7  C   UNL     1     -41.416 -55.888  16.536  1.00  0.00     0.007 C 
ENDBRANCH   5   6
BRANCH   5   8
HETATM    8  C   UNL     1     -44.016 -53.252  15.089  1.00  0.00    -0.019 C 
HETATM    9  C   UNL     1     -44.625 -54.251  14.059  1.00  0.00     0.016 C 
HETATM   10  C   UNL     1     -45.984 -53.762  13.535  1.00  0.00    -0.013 C 
HETATM   11  C   UNL     1     -45.799 -52.394  12.863  1.00  0.00     0.009 C 
HETATM   12  C   UNL     1     -46.962 -53.633  14.707  1.00  0.00     0.009 C 
HETATM   13  C   UNL     1     -45.257 -51.378  13.881  1.00  0.00    -0.013 C 
HETATM   14  C   UNL     1     -46.241 -51.261  15.053  1.00  0.00     0.009 C 
HETATM   15  C   UNL     1     -43.893 -51.863  14.404  1.00  0.00     0.016 C 
HETATM   16  C   UNL     1     -46.413 -52.630  15.732  1.00  0.00    -0.013 C 
HETATM   17  C   UNL     1     -45.045 -53.118  16.252  1.00  0.00     0.016 C 
ENDBRANCH   5   8
ENDBRANCH   1   5
BRANCH   2  18
HETATM   18  C   UNL     1     -39.384 -52.206  14.296  1.00  0.00     0.235 C 
BRANCH  18  19
HETATM   19  N   UNL     1     -39.838 -51.261  13.279  1.00  0.00    -0.301 N 
HETATM   20  C   UNL     1     -39.751 -49.905  13.524  1.00  0.00     0.102 C 
HETATM   21  C   UNL     1     -40.209 -48.999  12.657  1.00  0.00     0.092 C 
HETATM   22  C   UNL     1     -40.804 -49.467  11.395  1.00  0.00     0.250 C 
HETATM   23  O   UNL     1     -41.300 -48.681  10.598  1.00  0.00    -0.268 OA
HETATM   24  N   UNL     1     -40.772 -50.816  11.187  1.00  0.00    -0.275 N 
HETATM   25  C   UNL     1     -40.403 -51.757  12.112  1.00  0.00     0.329 C 
HETATM   26  H   UNL     1     -41.194 -51.155  10.338  1.00  0.00     0.173 HD
HETATM   27  O   UNL     1     -40.584 -52.953  11.894  1.00  0.00    -0.246 OA
ENDBRANCH  18  19
ENDBRANCH   2  18
TORSDOF 5
ENDMDL
MODEL 6
REMARK VINA RESULT:      -6.2      4.123      7.212
REMARK  5 active torsions:
REMARK  status: ('A' for Active; 'I' for Inactive)
REMARK    1  A    between atoms: C_2  and  C_3 
REMARK    2  A    between atoms: C_3  and  N_4 
REMARK    3  A    between atoms: C_3  and  C_16 
REMARK       I    between atoms: N_4  and  C_5 
REMARK    4  A    between atoms: C_5  and  C_7 
REMARK    5  A    between atoms: C_7  and  N_8 
ROOT
HETATM    1  N   UNL     1     -42.015 -52.321  13.355  1.00  0.00    -0.354 N 
HETATM    2  C   UNL     1     -42.664 -53.537  13.291  1.00  0.00     0.236 C 
HETATM    3  O   UNL     1     -42.185 -54.585  13.729  1.00  0.00    -0.272 OA
HETATM    4  H   UNL     1     -42.482 -51.503  12.978  1.00  0.00     0.162 HD
ENDROOT
BRANCH   1   5
HETATM    5  C   UNL     1     -40.750 -52.147  14.077  1.00  0.00     0.092 C 
BRANCH   5   6
HETATM    6  C   UNL     1     -41.022 -51.951  15.591  1.00  0.00     0.021 C 
HETATM    7  C   UNL     1     -40.158 -52.799  16.515  1.00  0.00     0.007 C 
ENDBRANCH   5   6
BRANCH   5   8
HETATM    8  C   UNL     1     -39.872 -50.996  13.457  1.00  0.00    -0.019 C 
HETATM    9  C   UNL     1     -40.042 -49.686  14.286  1.00  0.00     0.016 C 
HETATM   10  C   UNL     1     -39.188 -48.543  13.717  1.00  0.00    -0.013 C 
HETATM   11  C   UNL     1     -39.607 -48.279  12.264  1.00  0.00     0.009 C 
HETATM   12  C   UNL     1     -37.710 -48.945  13.763  1.00  0.00     0.009 C 
HETATM   13  C   UNL     1     -39.387 -49.543  11.416  1.00  0.00    -0.013 C 
HETATM   14  C   UNL     1     -37.906 -49.939  11.474  1.00  0.00     0.009 C 
HETATM   15  C   UNL     1     -40.246 -50.688  11.981  1.00  0.00     0.016 C 
HETATM   16  C   UNL     1     -37.492 -50.216  12.929  1.00  0.00    -0.013 C 
HETATM   17  C   UNL     1     -38.357 -51.361  13.496  1.00  0.00     0.016 C 
ENDBRANCH   5   8
ENDBRANCH   1   5
BRANCH   2  18
HETATM   18  C   UNL     1     -44.004 -53.527  12.556  1.00  0.00     0.235 C 
BRANCH  18  19
HETATM   19  N   UNL     1     -45.088 -53.128  13.452  1.00  0.00    -0.301 N 
HETATM   20  C   UNL     1     -45.373 -51.788  13.618  1.00  0.00     0.102 C 
HETATM   21  C   UNL     1     -46.310 -51.365  14.470  1.00  0.00     0.092 C 
HETATM   22  C   UNL     1     -47.071 -52.365  15.236  1.00  0.00     0.250 C 
HETATM   23  O   UNL     1     -47.891 -52.027  16.080  1.00  0.00    -0.268 OA
HETATM   24  N   UNL     1     -46.793 -53.671  14.950  1.00  0.00    -0.275 N 
HETATM   25  C   UNL     1     -45.765 -54.112  14.159  1.00  0.00     0.329 C 
HETATM   26  H   UNL     1     -47.290 -54.368  15.479  1.00  0.00     0.173 HD
HETATM   27  O   UNL     1     -45.482 -55.308  14.110  1.00  0.00    -0.246 OA
ENDBRANCH  18  19
ENDBRANCH   2  18
TORSDOF 5
ENDMDL
MODEL 7
REMARK VINA RESULT:      -6.1      4.217      7.807
REMARK  5 active torsions:
REMARK  status: ('A' for Active; 'I' for Inactive)
REMARK    1  A    between atoms: C_2  and  C_3 
REMARK    2  A    between atoms: C_3  and  N_4 
REMARK    3  A    between atoms: C_3  and  C_16 
REMARK       I    between atoms: N_4  and  C_5 
REMARK    4  A    between atoms: C_5  and  C_7 
REMARK    5  A    between atoms: C_7  and  N_8 
ROOT
HETATM    1  N   UNL     1     -41.488 -47.762  10.324  1.00  0.00    -0.354 N 
HETATM    2  C   UNL     1     -41.473 -48.868  11.148  1.00  0.00     0.236 C 
HETATM    3  O   UNL     1     -42.277 -49.042  12.065  1.00  0.00    -0.272 OA
HETATM    4  H   UNL     1     -40.794 -47.698   9.586  1.00  0.00     0.162 HD
ENDROOT
BRANCH   1   5
HETATM    5  C   UNL     1     -42.557 -46.758  10.383  1.00  0.00     0.092 C 
BRANCH   5   6
HETATM    6  C   UNL     1     -43.054 -46.422   8.953  1.00  0.00     0.021 C 
HETATM    7  C   UNL     1     -43.583 -47.610   8.159  1.00  0.00     0.007 C 
ENDBRANCH   5   6
BRANCH   5   8
HETATM    8  C   UNL     1     -42.122 -45.482  11.197  1.00  0.00    -0.019 C 
HETATM    9  C   UNL     1     -40.592 -45.234  11.027  1.00  0.00     0.016 C 
HETATM   10  C   UNL     1     -40.134 -43.987  11.798  1.00  0.00    -0.013 C 
HETATM   11  C   UNL     1     -40.452 -44.174  13.288  1.00  0.00     0.009 C 
HETATM   12  C   UNL     1     -40.877 -42.758  11.262  1.00  0.00     0.009 C 
HETATM   13  C   UNL     1     -41.967 -44.357  13.482  1.00  0.00    -0.013 C 
HETATM   14  C   UNL     1     -42.700 -43.125  12.936  1.00  0.00     0.009 C 
HETATM   15  C   UNL     1     -42.428 -45.610  12.715  1.00  0.00     0.016 C 
HETATM   16  C   UNL     1     -42.390 -42.949  11.441  1.00  0.00    -0.013 C 
HETATM   17  C   UNL     1     -42.848 -44.206  10.673  1.00  0.00     0.016 C 
ENDBRANCH   5   8
ENDBRANCH   1   5
BRANCH   2  18
HETATM   18  C   UNL     1     -40.324 -49.848  10.908  1.00  0.00     0.235 C 
BRANCH  18  19
HETATM   19  N   UNL     1     -39.449 -49.924  12.076  1.00  0.00    -0.301 N 
HETATM   20  C   UNL     1     -38.714 -48.816  12.447  1.00  0.00     0.102 C 
HETATM   21  C   UNL     1     -37.852 -48.849  13.467  1.00  0.00     0.092 C 
HETATM   22  C   UNL     1     -37.704 -50.101  14.226  1.00  0.00     0.250 C 
HETATM   23  O   UNL     1     -36.879 -50.204  15.125  1.00  0.00    -0.268 OA
HETATM   24  N   UNL     1     -38.530 -51.123  13.855  1.00  0.00    -0.275 N 
HETATM   25  C   UNL     1     -39.337 -51.133  12.748  1.00  0.00     0.329 C 
HETATM   26  H   UNL     1     -38.428 -51.993  14.350  1.00  0.00     0.173 HD
HETATM   27  O   UNL     1     -39.903 -52.167  12.396  1.00  0.00    -0.246 OA
ENDBRANCH  18  19
ENDBRANCH   2  18
TORSDOF 5
ENDMDL
MODEL 8
REMARK VINA RESULT:      -6.1      2.792      3.933
REMARK  5 active torsions:
REMARK  status: ('A' for Active; 'I' for Inactive)
REMARK    1  A    between atoms: C_2  and  C_3 
REMARK    2  A    between atoms: C_3  and  N_4 
REMARK    3  A    between atoms: C_3  and  C_16 
REMARK       I    between atoms: N_4  and  C_5 
REMARK    4  A    between atoms: C_5  and  C_7 
REMARK    5  A    between atoms: C_7  and  N_8 
ROOT
HETATM    1  N   UNL     1     -42.170 -50.323  14.409  1.00  0.00    -0.354 N 
HETATM    2  C   UNL     1     -41.892 -48.976  14.521  1.00  0.00     0.236 C 
HETATM    3  O   UNL     1     -42.365 -48.257  15.402  1.00  0.00    -0.272 OA
HETATM    4  H   UNL     1     -41.734 -50.847  13.658  1.00  0.00     0.162 HD
ENDROOT
BRANCH   1   5
HETATM    5  C   UNL     1     -42.949 -51.046  15.421  1.00  0.00     0.092 C 
BRANCH   5   6
HETATM    6  C   UNL     1     -42.032 -52.021  16.205  1.00  0.00     0.021 C 
HETATM    7  C   UNL     1     -40.872 -51.363  16.940  1.00  0.00     0.007 C 
ENDBRANCH   5   6
BRANCH   5   8
HETATM    8  C   UNL     1     -44.209 -51.756  14.797  1.00  0.00    -0.019 C 
HETATM    9  C   UNL     1     -43.954 -52.075  13.292  1.00  0.00     0.016 C 
HETATM   10  C   UNL     1     -45.159 -52.782  12.653  1.00  0.00    -0.013 C 
HETATM   11  C   UNL     1     -46.393 -51.877  12.776  1.00  0.00     0.009 C 
HETATM   12  C   UNL     1     -45.415 -54.105  13.382  1.00  0.00     0.009 C 
HETATM   13  C   UNL     1     -46.698 -51.602  14.257  1.00  0.00    -0.013 C 
HETATM   14  C   UNL     1     -46.946 -52.934  14.978  1.00  0.00     0.009 C 
HETATM   15  C   UNL     1     -45.494 -50.889  14.899  1.00  0.00     0.016 C 
HETATM   16  C   UNL     1     -45.703 -53.832  14.866  1.00  0.00    -0.013 C 
HETATM   17  C   UNL     1     -44.496 -53.116  15.505  1.00  0.00     0.016 C 
ENDBRANCH   5   8
ENDBRANCH   1   5
BRANCH   2  18
HETATM   18  C   UNL     1     -41.012 -48.395  13.414  1.00  0.00     0.235 C 
BRANCH  18  19
HETATM   19  N   UNL     1     -39.899 -49.291  13.108  1.00  0.00    -0.301 N 
HETATM   20  C   UNL     1     -38.913 -49.496  14.052  1.00  0.00     0.102 C 
HETATM   21  C   UNL     1     -37.842 -50.254  13.803  1.00  0.00     0.092 C 
HETATM   22  C   UNL     1     -37.727 -50.902  12.486  1.00  0.00     0.250 C 
HETATM   23  O   UNL     1     -36.733 -51.549  12.183  1.00  0.00    -0.268 OA
HETATM   24  N   UNL     1     -38.784 -50.723  11.641  1.00  0.00    -0.275 N 
HETATM   25  C   UNL     1     -39.833 -49.865  11.847  1.00  0.00     0.329 C 
HETATM   26  H   UNL     1     -38.712 -51.142  10.728  1.00  0.00     0.173 HD
HETATM   27  O   UNL     1     -40.639 -49.635  10.947  1.00  0.00    -0.246 OA
ENDBRANCH  18  19
ENDBRANCH   2  18
TORSDOF 5
ENDMDL
MODEL 9
REMARK VINA RESULT:      -6.0      3.012      6.695
REMARK  5 active torsions:
REMARK  status: ('A' for Active; 'I' for Inactive)
REMARK    1  A    between atoms: C_2  and  C_3 
REMARK    2  A    between atoms: C_3  and  N_4 
REMARK    3  A    between atoms: C_3  and  C_16 
REMARK       I    between atoms: N_4  and  C_5 
REMARK    4  A    between atoms: C_5  and  C_7 
REMARK    5  A    between atoms: C_7  and  N_8 
ROOT
HETATM    1  N   UNL     1     -40.082 -49.835  13.770  1.00  0.00    -0.354 N 
HETATM    2  C   UNL     1     -39.824 -51.151  13.444  1.00  0.00     0.236 C 
HETATM    3  O   UNL     1     -39.134 -51.487  12.481  1.00  0.00    -0.272 OA
HETATM    4  H   UNL     1     -40.655 -49.641  14.585  1.00  0.00     0.162 HD
ENDROOT
BRANCH   1   5
HETATM    5  C   UNL     1     -39.437 -48.716  13.073  1.00  0.00     0.092 C 
BRANCH   5   6
HETATM    6  C   UNL     1     -38.396 -48.037  14.000  1.00  0.00     0.021 C 
HETATM    7  C   UNL     1     -38.729 -48.085  15.485  1.00  0.00     0.007 C 
ENDBRANCH   5   6
BRANCH   5   8
HETATM    8  C   UNL     1     -40.491 -47.702  12.488  1.00  0.00    -0.019 C 
HETATM    9  C   UNL     1     -40.887 -48.118  11.038  1.00  0.00     0.016 C 
HETATM   10  C   UNL     1     -41.926 -47.157  10.439  1.00  0.00    -0.013 C 
HETATM   11  C   UNL     1     -41.340 -45.738  10.415  1.00  0.00     0.009 C 
HETATM   12  C   UNL     1     -43.192 -47.178  11.302  1.00  0.00     0.009 C 
HETATM   13  C   UNL     1     -41.001 -45.286  11.845  1.00  0.00    -0.013 C 
HETATM   14  C   UNL     1     -42.274 -45.317  12.701  1.00  0.00     0.009 C 
HETATM   15  C   UNL     1     -39.957 -46.244  12.446  1.00  0.00     0.016 C 
HETATM   16  C   UNL     1     -42.850 -46.742  12.734  1.00  0.00    -0.013 C 
HETATM   17  C   UNL     1     -41.802 -47.703  13.332  1.00  0.00     0.016 C 
ENDBRANCH   5   8
ENDBRANCH   1   5
BRANCH   2  18
HETATM   18  C   UNL     1     -40.528 -52.191  14.315  1.00  0.00     0.235 C 
BRANCH  18  19
HETATM   19  N   UNL     1     -41.835 -52.539  13.761  1.00  0.00    -0.301 N 
HETATM   20  C   UNL     1     -42.938 -51.780  14.095  1.00  0.00     0.102 C 
HETATM   21  C   UNL     1     -44.165 -52.089  13.668  1.00  0.00     0.092 C 
HETATM   22  C   UNL     1     -44.334 -53.265  12.799  1.00  0.00     0.250 C 
HETATM   23  O   UNL     1     -45.445 -53.631  12.438  1.00  0.00    -0.268 OA
HETATM   24  N   UNL     1     -43.186 -53.910  12.442  1.00  0.00    -0.275 N 
HETATM   25  C   UNL     1     -41.940 -53.665  12.957  1.00  0.00     0.329 C 
HETATM   26  H   UNL     1     -43.285 -54.729  11.864  1.00  0.00     0.173 HD
HETATM   27  O   UNL     1     -41.001 -54.421  12.710  1.00  0.00    -0.246 OA
ENDBRANCH  18  19
ENDBRANCH   2  18
TORSDOF 5
ENDMDL
