MODEL 1
REMARK VINA RESULT:      -6.8      0.000      0.000
REMARK  4 active torsions:
REMARK  status: ('A' for Active; 'I' for Inactive)
REMARK    1  A    between atoms: C_2  and  N_4 
REMARK       I    between atoms: N_4  and  C_5 
REMARK    2  A    between atoms: C_5  and  C_7 
REMARK    3  A    between atoms: C_11  and  N_13 
REMARK       I    between atoms: N_13  and  C_14 
REMARK       I    between atoms: C_14  and  N_16 
REMARK    4  A    between atoms: N_16  and  C_17 
ROOT
HETATM    1  C   UNL     1     -41.056 -54.013  13.071  1.00  0.00     0.080 C 
HETATM    2  C   UNL     1     -39.806 -53.914  13.961  1.00  0.00     0.014 C 
HETATM    3  C   UNL     1     -39.535 -52.492  14.442  1.00  0.00     0.003 C 
HETATM    4  C   UNL     1     -39.461 -51.514  13.277  1.00  0.00     0.025 C 
HETATM    5  C   UNL     1     -40.716 -51.591  12.397  1.00  0.00     0.087 C 
HETATM    6  C   UNL     1     -40.923 -53.026  11.886  1.00  0.00     0.039 C 
ENDROOT
BRANCH   5   7
HETATM    7  N   UNL     1     -40.625 -50.602  11.326  1.00  0.00    -0.338 N 
HETATM    8  C   UNL     1     -41.566 -49.588  11.308  1.00  0.00     0.321 C 
HETATM    9  O   UNL     1     -42.446 -49.501  12.155  1.00  0.00    -0.247 OA
HETATM   10  N   UNL     1     -41.356 -48.700  10.279  1.00  0.00    -0.308 N 
HETATM   11  H   UNL     1     -40.412 -48.653   9.927  1.00  0.00     0.170 HD
HETATM   12  H   UNL     1     -40.254 -50.893  10.433  1.00  0.00     0.164 HD
BRANCH  10  13
HETATM   13  C   UNL     1     -42.231 -47.632   9.962  1.00  0.00     0.051 A 
HETATM   14  C   UNL     1     -43.185 -47.700   8.945  1.00  0.00     0.032 A 
HETATM   15  C   UNL     1     -44.023 -46.616   8.695  1.00  0.00     0.019 A 
HETATM   16  C   UNL     1     -43.873 -45.480   9.469  1.00  0.00     0.088 A 
HETATM   17  N   UNL     1     -42.953 -45.359  10.450  1.00  0.00    -0.373 N 
HETATM   18  C   UNL     1     -42.155 -46.436  10.670  1.00  0.00     0.117 A 
ATOM     19  HN  UNL     1     -42.863 -44.503  10.998  1.00  0.00     0.164 HD
ENDBRANCH  10  13
ENDBRANCH   5   7
BRANCH   1  20
HETATM   20  C   UNL     1     -42.400 -53.792  13.794  1.00  0.00     0.222 C 
HETATM   21  N   UNL     1     -43.529 -53.813  13.008  1.00  0.00    -0.357 N 
HETATM   22  H   UNL     1     -43.434 -53.780  12.003  1.00  0.00     0.162 HD
HETATM   23  O   UNL     1     -42.450 -53.548  14.998  1.00  0.00    -0.273 OA
BRANCH  21  24
HETATM   24  C   UNL     1     -44.860 -53.586  13.559  1.00  0.00     0.076 C 
HETATM   25  C   UNL     1     -45.693 -52.734  12.605  1.00  0.00     0.032 C 
HETATM   26  C   UNL     1     -45.549 -54.919  13.838  1.00  0.00     0.032 C 
ENDBRANCH  21  24
ENDBRANCH   1  20
TORSDOF 4
ENDMDL
MODEL 2
REMARK VINA RESULT:      -6.2      2.570      4.032
REMARK  4 active torsions:
REMARK  status: ('A' for Active; 'I' for Inactive)
REMARK    1  A    between atoms: C_2  and  N_4 
REMARK       I    between atoms: N_4  and  C_5 
REMARK    2  A    between atoms: C_5  and  C_7 
REMARK    3  A    between atoms: C_11  and  N_13 
REMARK       I    between atoms: N_13  and  C_14 
REMARK       I    between atoms: C_14  and  N_16 
REMARK    4  A    between atoms: N_16  and  C_17 
ROOT
HETATM    1  C   UNL     1     -45.928 -53.632  13.608  1.00  0.00     0.080 C 
HETATM    2  C   UNL     1     -45.311 -54.953  14.096  1.00  0.00     0.014 C 
HETATM    3  C   UNL     1     -43.875 -54.789  14.585  1.00  0.00     0.003 C 
HETATM    4  C   UNL     1     -42.999 -54.129  13.529  1.00  0.00     0.025 C 
HETATM    5  C   UNL     1     -43.597 -52.798  13.052  1.00  0.00     0.087 C 
HETATM    6  C   UNL     1     -45.021 -53.013  12.515  1.00  0.00     0.039 C 
ENDROOT
BRANCH   5   7
HETATM    7  N   UNL     1     -42.700 -52.177  12.081  1.00  0.00    -0.338 N 
HETATM    8  C   UNL     1     -42.327 -50.863  12.302  1.00  0.00     0.321 C 
HETATM    9  O   UNL     1     -42.717 -50.229  13.274  1.00  0.00    -0.247 OA
HETATM   10  N   UNL     1     -41.453 -50.401  11.345  1.00  0.00    -0.308 N 
HETATM   11  H   UNL     1     -40.918 -51.107  10.863  1.00  0.00     0.170 HD
HETATM   12  H   UNL     1     -42.749 -52.479  11.119  1.00  0.00     0.164 HD
BRANCH  10  13
HETATM   13  C   UNL     1     -40.998 -49.062  11.266  1.00  0.00     0.051 A 
HETATM   14  C   UNL     1     -39.948 -48.564  12.039  1.00  0.00     0.032 A 
HETATM   15  C   UNL     1     -39.542 -47.239  11.901  1.00  0.00     0.019 A 
HETATM   16  C   UNL     1     -40.213 -46.439  10.995  1.00  0.00     0.088 A 
HETATM   17  N   UNL     1     -41.246 -46.869  10.240  1.00  0.00    -0.373 N 
HETATM   18  C   UNL     1     -41.614 -48.167  10.395  1.00  0.00     0.117 A 
ATOM     19  HN  UNL     1     -41.726 -46.250   9.586  1.00  0.00     0.164 HD
ENDBRANCH  10  13
ENDBRANCH   5   7
BRANCH   1  20
HETATM   20  C   UNL     1     -46.214 -52.590  14.708  1.00  0.00     0.222 C 
HETATM   21  N   UNL     1     -45.977 -52.988  16.004  1.00  0.00    -0.357 N 
HETATM   22  H   UNL     1     -45.816 -53.965  16.201  1.00  0.00     0.162 HD
HETATM   23  O   UNL     1     -46.688 -51.487  14.442  1.00  0.00    -0.273 OA
BRANCH  21  24
HETATM   24  C   UNL     1     -46.237 -52.112  17.142  1.00  0.00     0.076 C 
HETATM   25  C   UNL     1     -46.608 -52.935  18.372  1.00  0.00     0.032 C 
HETATM   26  C   UNL     1     -45.017 -51.238  17.422  1.00  0.00     0.032 C 
ENDBRANCH  21  24
ENDBRANCH   1  20
TORSDOF 4
ENDMDL
MODEL 3
REMARK VINA RESULT:      -6.1      2.032      2.919
REMARK  4 active torsions:
REMARK  status: ('A' for Active; 'I' for Inactive)
REMARK    1  A    between atoms: C_2  and  N_4 
REMARK       I    between atoms: N_4  and  C_5 
REMARK    2  A    between atoms: C_5  and  C_7 
REMARK    3  A    between atoms: C_11  and  N_13 
REMARK       I    between atoms: N_13  and  C_14 
REMARK       I    between atoms: C_14  and  N_16 
REMARK    4  A    between atoms: N_16  and  C_17 
ROOT
HETATM    1  C   UNL     1     -43.490 -54.804  14.133  1.00  0.00     0.080 C 
HETATM    2  C   UNL     1     -42.933 -55.294  15.480  1.00  0.00     0.014 C 
HETATM    3  C   UNL     1     -42.710 -54.158  16.475  1.00  0.00     0.003 C 
HETATM    4  C   UNL     1     -41.833 -53.063  15.883  1.00  0.00     0.025 C 
HETATM    5  C   UNL     1     -42.394 -52.553  14.548  1.00  0.00     0.087 C 
HETATM    6  C   UNL     1     -42.552 -53.716  13.555  1.00  0.00     0.039 C 
ENDROOT
BRANCH   5   7
HETATM    7  N   UNL     1     -41.553 -51.471  14.044  1.00  0.00    -0.338 N 
HETATM    8  C   UNL     1     -42.172 -50.453  13.340  1.00  0.00     0.321 C 
HETATM    9  O   UNL     1     -43.380 -50.437  13.143  1.00  0.00    -0.247 OA
HETATM   10  N   UNL     1     -41.286 -49.475  12.950  1.00  0.00    -0.308 N 
HETATM   11  H   UNL     1     -40.444 -49.403  13.501  1.00  0.00     0.170 HD
HETATM   12  H   UNL     1     -40.598 -51.681  13.793  1.00  0.00     0.164 HD
BRANCH  10  13
HETATM   13  C   UNL     1     -41.629 -48.377  12.125  1.00  0.00     0.051 A 
HETATM   14  C   UNL     1     -42.191 -47.197  12.615  1.00  0.00     0.032 A 
HETATM   15  C   UNL     1     -42.492 -46.150  11.747  1.00  0.00     0.019 A 
HETATM   16  C   UNL     1     -42.231 -46.319  10.400  1.00  0.00     0.088 A 
HETATM   17  N   UNL     1     -41.707 -47.448   9.875  1.00  0.00    -0.373 N 
HETATM   18  C   UNL     1     -41.422 -48.448  10.749  1.00  0.00     0.117 A 
ATOM     19  HN  UNL     1     -41.535 -47.544   8.875  1.00  0.00     0.164 HD
ENDBRANCH  10  13
ENDBRANCH   5   7
BRANCH   1  20
HETATM   20  C   UNL     1     -44.942 -54.286  14.167  1.00  0.00     0.222 C 
HETATM   21  N   UNL     1     -45.186 -53.103  13.507  1.00  0.00    -0.357 N 
HETATM   22  H   UNL     1     -44.408 -52.537  13.199  1.00  0.00     0.162 HD
HETATM   23  O   UNL     1     -45.817 -54.868  14.805  1.00  0.00    -0.273 OA
BRANCH  21  24
HETATM   24  C   UNL     1     -46.508 -52.486  13.489  1.00  0.00     0.076 C 
HETATM   25  C   UNL     1     -46.627 -51.451  14.604  1.00  0.00     0.032 C 
HETATM   26  C   UNL     1     -46.772 -51.849  12.128  1.00  0.00     0.032 C 
ENDBRANCH  21  24
ENDBRANCH   1  20
TORSDOF 4
ENDMDL
MODEL 4
REMARK VINA RESULT:      -6.0      1.918      2.872
REMARK  4 active torsions:
REMARK  status: ('A' for Active; 'I' for Inactive)
REMARK    1  A    between atoms: C_2  and  N_4 
REMARK       I    between atoms: N_4  and  C_5 
REMARK    2  A    between atoms: C_5  and  C_7 
REMARK    3  A    between atoms: C_11  and  N_13 
REMARK       I    between atoms: N_13  and  C_14 
REMARK       I    between atoms: C_14  and  N_16 
REMARK    4  A    between atoms: N_16  and  C_17 
ROOT
HETATM    1  C   UNL     1     -38.847 -51.058  12.751  1.00  0.00     0.080 C 
HETATM    2  C   UNL     1     -37.933 -50.051  13.467  1.00  0.00     0.014 C 
HETATM    3  C   UNL     1     -38.625 -48.721  13.749  1.00  0.00     0.003 C 
HETATM    4  C   UNL     1     -39.219 -48.121  12.482  1.00  0.00     0.025 C 
HETATM    5  C   UNL     1     -40.150 -49.114  11.772  1.00  0.00     0.087 C 
HETATM    6  C   UNL     1     -39.401 -50.418  11.454  1.00  0.00     0.039 C 
ENDROOT
BRANCH   5   7
HETATM    7  N   UNL     1     -40.736 -48.480  10.594  1.00  0.00    -0.338 N 
HETATM    8  C   UNL     1     -42.066 -48.105  10.661  1.00  0.00     0.321 C 
HETATM    9  O   UNL     1     -42.743 -48.282  11.666  1.00  0.00    -0.247 OA
HETATM   10  N   UNL     1     -42.493 -47.486   9.509  1.00  0.00    -0.308 N 
HETATM   11  H   UNL     1     -41.772 -47.055   8.952  1.00  0.00     0.170 HD
HETATM   12  H   UNL     1     -40.382 -48.737   9.683  1.00  0.00     0.164 HD
BRANCH  10  13
HETATM   13  C   UNL     1     -43.834 -47.100   9.266  1.00  0.00     0.051 A 
HETATM   14  C   UNL     1     -44.894 -48.006   9.216  1.00  0.00     0.032 A 
HETATM   15  C   UNL     1     -46.192 -47.555   8.986  1.00  0.00     0.019 A 
HETATM   16  C   UNL     1     -46.391 -46.200   8.797  1.00  0.00     0.088 A 
HETATM   17  N   UNL     1     -45.396 -45.288   8.816  1.00  0.00    -0.373 N 
HETATM   18  C   UNL     1     -44.144 -45.760   9.048  1.00  0.00     0.117 A 
ATOM     19  HN  UNL     1     -45.575 -44.295   8.664  1.00  0.00     0.164 HD
ENDBRANCH  10  13
ENDBRANCH   5   7
BRANCH   1  20
HETATM   20  C   UNL     1     -40.006 -51.618  13.600  1.00  0.00     0.222 C 
HETATM   21  N   UNL     1     -40.981 -52.313  12.922  1.00  0.00    -0.357 N 
HETATM   22  H   UNL     1     -41.010 -52.271  11.913  1.00  0.00     0.162 HD
HETATM   23  O   UNL     1     -40.082 -51.399  14.808  1.00  0.00    -0.273 OA
BRANCH  21  24
HETATM   24  C   UNL     1     -42.148 -52.868  13.600  1.00  0.00     0.076 C 
HETATM   25  C   UNL     1     -43.356 -52.866  12.667  1.00  0.00     0.032 C 
HETATM   26  C   UNL     1     -41.848 -54.279  14.095  1.00  0.00     0.032 C 
ENDBRANCH  21  24
ENDBRANCH   1  20
TORSDOF 4
ENDMDL
MODEL 5
REMARK VINA RESULT:      -6.0      1.777      2.085
REMARK  4 active torsions:
REMARK  status: ('A' for Active; 'I' for Inactive)
REMARK    1  A    between atoms: C_2  and  N_4 
REMARK       I    between atoms: N_4  and  C_5 
REMARK    2  A    between atoms: C_5  and  C_7 
REMARK    3  A    between atoms: C_11  and  N_13 
REMARK       I    between atoms: N_13  and  C_14 
REMARK       I    between atoms: C_14  and  N_16 
REMARK    4  A    between atoms: N_16  and  C_17 
ROOT
HETATM    1  C   UNL     1     -42.910 -54.393  14.280  1.00  0.00     0.080 C 
HETATM    2  C   UNL     1     -41.544 -54.800  14.857  1.00  0.00     0.014 C 
HETATM    3  C   UNL     1     -40.605 -53.613  15.046  1.00  0.00     0.003 C 
HETATM    4  C   UNL     1     -40.444 -52.818  13.757  1.00  0.00     0.025 C 
HETATM    5  C   UNL     1     -41.803 -52.389  13.187  1.00  0.00     0.087 C 
HETATM    6  C   UNL     1     -42.699 -53.617  12.957  1.00  0.00     0.039 C 
ENDROOT
BRANCH   5   7
HETATM    7  N   UNL     1     -41.598 -51.588  11.984  1.00  0.00    -0.338 N 
HETATM    8  C   UNL     1     -41.797 -50.222  12.081  1.00  0.00     0.321 C 
HETATM    9  O   UNL     1     -42.125 -49.684  13.131  1.00  0.00    -0.247 OA
HETATM   10  N   UNL     1     -41.539 -49.571  10.896  1.00  0.00    -0.308 N 
HETATM   11  H   UNL     1     -40.913 -50.046  10.264  1.00  0.00     0.170 HD
HETATM   12  H   UNL     1     -41.786 -52.011  11.086  1.00  0.00     0.164 HD
BRANCH  10  13
HETATM   13  C   UNL     1     -41.766 -48.189  10.684  1.00  0.00     0.051 A 
HETATM   14  C   UNL     1     -42.941 -47.684  10.127  1.00  0.00     0.032 A 
HETATM   15  C   UNL     1     -43.104 -46.311   9.958  1.00  0.00     0.019 A 
HETATM   16  C   UNL     1     -42.072 -45.476  10.346  1.00  0.00     0.088 A 
HETATM   17  N   UNL     1     -40.909 -45.918  10.871  1.00  0.00    -0.373 N 
HETATM   18  C   UNL     1     -40.785 -47.262  11.025  1.00  0.00     0.117 A 
ATOM     19  HN  UNL     1     -40.163 -45.276  11.138  1.00  0.00     0.164 HD
ENDBRANCH  10  13
ENDBRANCH   5   7
BRANCH   1  20
HETATM   20  C   UNL     1     -43.812 -53.581  15.231  1.00  0.00     0.222 C 
HETATM   21  N   UNL     1     -44.612 -52.625  14.648  1.00  0.00    -0.357 N 
HETATM   22  H   UNL     1     -44.451 -52.363  13.686  1.00  0.00     0.162 HD
HETATM   23  O   UNL     1     -43.769 -53.738  16.450  1.00  0.00    -0.273 OA
BRANCH  21  24
HETATM   24  C   UNL     1     -45.489 -51.765  15.436  1.00  0.00     0.076 C 
HETATM   25  C   UNL     1     -44.755 -50.492  15.848  1.00  0.00     0.032 C 
HETATM   26  C   UNL     1     -46.749 -51.431  14.643  1.00  0.00     0.032 C 
ENDBRANCH  21  24
ENDBRANCH   1  20
TORSDOF 4
ENDMDL
MODEL 6
REMARK VINA RESULT:      -5.9      3.267      5.541
REMARK  4 active torsions:
REMARK  status: ('A' for Active; 'I' for Inactive)
REMARK    1  A    between atoms: C_2  and  N_4 
REMARK       I    between atoms: N_4  and  C_5 
REMARK    2  A    between atoms: C_5  and  C_7 
REMARK    3  A    between atoms: C_11  and  N_13 
REMARK       I    between atoms: N_13  and  C_14 
REMARK       I    between atoms: C_14  and  N_16 
REMARK    4  A    between atoms: N_16  and  C_17 
ROOT
HETATM    1  C   UNL     1     -46.816 -51.764  14.468  1.00  0.00     0.080 C 
HETATM    2  C   UNL     1     -47.244 -53.240  14.504  1.00  0.00     0.014 C 
HETATM    3  C   UNL     1     -46.062 -54.195  14.629  1.00  0.00     0.003 C 
HETATM    4  C   UNL     1     -45.027 -53.948  13.540  1.00  0.00     0.025 C 
HETATM    5  C   UNL     1     -44.578 -52.481  13.512  1.00  0.00     0.087 C 
HETATM    6  C   UNL     1     -45.790 -51.553  13.328  1.00  0.00     0.039 C 
ENDROOT
BRANCH   5   7
HETATM    7  N   UNL     1     -43.551 -52.302  12.490  1.00  0.00    -0.338 N 
HETATM    8  C   UNL     1     -42.411 -51.602  12.842  1.00  0.00     0.321 C 
HETATM    9  O   UNL     1     -42.246 -51.147  13.967  1.00  0.00    -0.247 OA
HETATM   10  N   UNL     1     -41.502 -51.531  11.811  1.00  0.00    -0.308 N 
HETATM   11  H   UNL     1     -41.573 -52.257  11.115  1.00  0.00     0.170 HD
HETATM   12  H   UNL     1     -43.838 -52.244  11.523  1.00  0.00     0.164 HD
BRANCH  10  13
HETATM   13  C   UNL     1     -40.301 -50.782  11.862  1.00  0.00     0.051 A 
HETATM   14  C   UNL     1     -39.158 -51.214  12.536  1.00  0.00     0.032 A 
HETATM   15  C   UNL     1     -38.005 -50.433  12.535  1.00  0.00     0.019 A 
HETATM   16  C   UNL     1     -38.032 -49.226  11.863  1.00  0.00     0.088 A 
HETATM   17  N   UNL     1     -39.119 -48.755  11.213  1.00  0.00    -0.373 N 
HETATM   18  C   UNL     1     -40.225 -49.543  11.231  1.00  0.00     0.117 A 
ATOM     19  HN  UNL     1     -39.109 -47.855  10.734  1.00  0.00     0.164 HD
ENDBRANCH  10  13
ENDBRANCH   5   7
BRANCH   1  20
HETATM   20  C   UNL     1     -46.255 -51.207  15.792  1.00  0.00     0.222 C 
HETATM   21  N   UNL     1     -47.045 -51.368  16.907  1.00  0.00    -0.357 N 
HETATM   22  H   UNL     1     -48.006 -51.658  16.797  1.00  0.00     0.162 HD
HETATM   23  O   UNL     1     -45.189 -50.596  15.833  1.00  0.00    -0.273 OA
BRANCH  21  24
HETATM   24  C   UNL     1     -46.649 -50.859  18.216  1.00  0.00     0.076 C 
HETATM   25  C   UNL     1     -47.473 -49.627  18.579  1.00  0.00     0.032 C 
HETATM   26  C   UNL     1     -46.807 -51.948  19.274  1.00  0.00     0.032 C 
ENDBRANCH  21  24
ENDBRANCH   1  20
TORSDOF 4
ENDMDL
MODEL 7
REMARK VINA RESULT:      -5.8      2.639      7.341
REMARK  4 active torsions:
REMARK  status: ('A' for Active; 'I' for Inactive)
REMARK    1  A    between atoms: C_2  and  N_4 
REMARK       I    between atoms: N_4  and  C_5 
REMARK    2  A    between atoms: C_5  and  C_7 
REMARK    3  A    between atoms: C_11  and  N_13 
REMARK       I    between atoms: N_13  and  C_14 
REMARK       I    between atoms: C_14  and  N_16 
REMARK    4  A    between atoms: N_16  and  C_17 
ROOT
HETATM    1  C   UNL     1     -39.658 -47.241  12.395  1.00  0.00     0.080 C 
HETATM    2  C   UNL     1     -40.021 -46.448  11.128  1.00  0.00     0.014 C 
HETATM    3  C   UNL     1     -41.435 -46.742  10.633  1.00  0.00     0.003 C 
HETATM    4  C   UNL     1     -41.656 -48.235  10.432  1.00  0.00     0.025 C 
HETATM    5  C   UNL     1     -41.316 -49.030  11.699  1.00  0.00     0.087 C 
HETATM    6  C   UNL     1     -39.868 -48.752  12.134  1.00  0.00     0.039 C 
ENDROOT
BRANCH   5   7
HETATM    7  N   UNL     1     -41.592 -50.447  11.478  1.00  0.00    -0.338 N 
HETATM    8  C   UNL     1     -42.485 -51.068  12.334  1.00  0.00     0.321 C 
HETATM    9  O   UNL     1     -43.040 -50.467  13.245  1.00  0.00    -0.247 OA
HETATM   10  N   UNL     1     -42.693 -52.387  12.004  1.00  0.00    -0.308 N 
HETATM   11  H   UNL     1     -42.509 -52.632  11.043  1.00  0.00     0.170 HD
HETATM   12  H   UNL     1     -40.862 -51.025  11.087  1.00  0.00     0.164 HD
BRANCH  10  13
HETATM   13  C   UNL     1     -43.471 -53.285  12.774  1.00  0.00     0.051 A 
HETATM   14  C   UNL     1     -42.928 -54.137  13.738  1.00  0.00     0.032 A 
HETATM   15  C   UNL     1     -43.755 -54.985  14.470  1.00  0.00     0.019 A 
HETATM   16  C   UNL     1     -45.112 -54.967  14.206  1.00  0.00     0.088 A 
HETATM   17  N   UNL     1     -45.682 -54.176  13.271  1.00  0.00    -0.373 N 
HETATM   18  C   UNL     1     -44.848 -53.358  12.579  1.00  0.00     0.117 A 
ATOM     19  HN  UNL     1     -46.686 -54.193  13.095  1.00  0.00     0.164 HD
ENDBRANCH  10  13
ENDBRANCH   5   7
BRANCH   1  20
HETATM   20  C   UNL     1     -40.405 -46.817  13.676  1.00  0.00     0.222 C 
HETATM   21  N   UNL     1     -40.876 -45.524  13.710  1.00  0.00    -0.357 N 
HETATM   22  H   UNL     1     -40.565 -44.864  13.012  1.00  0.00     0.162 HD
HETATM   23  O   UNL     1     -40.516 -47.576  14.636  1.00  0.00    -0.273 OA
BRANCH  21  24
HETATM   24  C   UNL     1     -41.571 -44.985  14.874  1.00  0.00     0.076 C 
HETATM   25  C   UNL     1     -41.127 -43.549  15.141  1.00  0.00     0.032 C 
HETATM   26  C   UNL     1     -43.081 -45.055  14.665  1.00  0.00     0.032 C 
ENDBRANCH  21  24
ENDBRANCH   1  20
TORSDOF 4
ENDMDL
MODEL 8
REMARK VINA RESULT:      -5.8      2.851      4.975
REMARK  4 active torsions:
REMARK  status: ('A' for Active; 'I' for Inactive)
REMARK    1  A    between atoms: C_2  and  N_4 
REMARK       I    between atoms: N_4  and  C_5 
REMARK    2  A    between atoms: C_5  and  C_7 
REMARK    3  A    between atoms: C_11  and  N_13 
REMARK       I    between atoms: N_13  and  C_14 
REMARK       I    between atoms: C_14  and  N_16 
REMARK    4  A    between atoms: N_16  and  C_17 
ROOT
HETATM    1  C   UNL     1     -38.880 -47.633  13.312  1.00  0.00     0.080 C 
HETATM    2  C   UNL     1     -38.553 -46.422  14.201  1.00  0.00     0.014 C 
HETATM    3  C   UNL     1     -39.801 -45.676  14.664  1.00  0.00     0.003 C 
HETATM    4  C   UNL     1     -40.679 -45.274  13.486  1.00  0.00     0.025 C 
HETATM    5  C   UNL     1     -41.027 -46.482  12.605  1.00  0.00     0.087 C 
HETATM    6  C   UNL     1     -39.745 -47.173  12.113  1.00  0.00     0.039 C 
ENDROOT
BRANCH   5   7
HETATM    7  N   UNL     1     -41.910 -46.060  11.522  1.00  0.00    -0.338 N 
HETATM    8  C   UNL     1     -42.771 -47.004  10.991  1.00  0.00     0.321 C 
HETATM    9  O   UNL     1     -42.812 -48.155  11.406  1.00  0.00    -0.247 OA
HETATM   10  N   UNL     1     -43.577 -46.481  10.006  1.00  0.00    -0.308 N 
HETATM   11  H   UNL     1     -43.725 -45.484  10.046  1.00  0.00     0.170 HD
HETATM   12  H   UNL     1     -41.591 -45.334  10.896  1.00  0.00     0.164 HD
BRANCH  10  13
HETATM   13  C   UNL     1     -44.471 -47.249   9.221  1.00  0.00     0.051 A 
HETATM   14  C   UNL     1     -45.786 -47.519   9.602  1.00  0.00     0.032 A 
HETATM   15  C   UNL     1     -46.616 -48.271   8.774  1.00  0.00     0.019 A 
HETATM   16  C   UNL     1     -46.098 -48.746   7.584  1.00  0.00     0.088 A 
HETATM   17  N   UNL     1     -44.828 -48.530   7.181  1.00  0.00    -0.373 N 
HETATM   18  C   UNL     1     -44.047 -47.789   8.010  1.00  0.00     0.117 A 
ATOM     19  HN  UNL     1     -44.473 -48.902   6.300  1.00  0.00     0.164 HD
ENDBRANCH  10  13
ENDBRANCH   5   7
BRANCH   1  20
HETATM   20  C   UNL     1     -39.559 -48.817  14.030  1.00  0.00     0.222 C 
HETATM   21  N   UNL     1     -39.962 -49.865  13.236  1.00  0.00    -0.357 N 
HETATM   22  H   UNL     1     -39.976 -49.751  12.232  1.00  0.00     0.162 HD
HETATM   23  O   UNL     1     -39.784 -48.791  15.239  1.00  0.00    -0.273 OA
BRANCH  21  24
HETATM   24  C   UNL     1     -40.646 -51.032  13.783  1.00  0.00     0.076 C 
HETATM   25  C   UNL     1     -42.061 -51.131  13.220  1.00  0.00     0.032 C 
HETATM   26  C   UNL     1     -39.852 -52.299  13.479  1.00  0.00     0.032 C 
ENDBRANCH  21  24
ENDBRANCH   1  20
TORSDOF 4
ENDMDL
MODEL 9
REMARK VINA RESULT:      -5.7      3.119      6.722
REMARK  4 active torsions:
REMARK  status: ('A' for Active; 'I' for Inactive)
REMARK    1  A    between atoms: C_2  and  N_4 
REMARK       I    between atoms: N_4  and  C_5 
REMARK    2  A    between atoms: C_5  and  C_7 
REMARK    3  A    between atoms: C_11  and  N_13 
REMARK       I    between atoms: N_13  and  C_14 
REMARK       I    between atoms: C_14  and  N_16 
REMARK    4  A    between atoms: N_16  and  C_17 
ROOT
HETATM    1  C   UNL     1     -38.361 -50.767  13.435  1.00  0.00     0.080 C 
HETATM    2  C   UNL     1     -37.742 -49.995  12.258  1.00  0.00     0.014 C 
HETATM    3  C   UNL     1     -38.705 -48.985  11.642  1.00  0.00     0.003 C 
HETATM    4  C   UNL     1     -40.019 -49.640  11.240  1.00  0.00     0.025 C 
HETATM    5  C   UNL     1     -40.655 -50.395  12.416  1.00  0.00     0.087 C 
HETATM    6  C   UNL     1     -39.676 -51.442  12.972  1.00  0.00     0.039 C 
ENDROOT
BRANCH   5   7
HETATM    7  N   UNL     1     -41.935 -50.962  12.000  1.00  0.00    -0.338 N 
HETATM    8  C   UNL     1     -42.852 -51.270  12.990  1.00  0.00     0.321 C 
HETATM    9  O   UNL     1     -42.621 -51.074  14.176  1.00  0.00    -0.247 OA
HETATM   10  N   UNL     1     -44.030 -51.760  12.475  1.00  0.00    -0.308 N 
HETATM   11  H   UNL     1     -44.235 -51.496  11.524  1.00  0.00     0.170 HD
HETATM   12  H   UNL     1     -41.961 -51.529  11.165  1.00  0.00     0.164 HD
BRANCH  10  13
HETATM   13  C   UNL     1     -45.095 -52.255  13.266  1.00  0.00     0.051 A 
HETATM   14  C   UNL     1     -45.972 -51.431  13.972  1.00  0.00     0.032 A 
HETATM   15  C   UNL     1     -47.008 -51.985  14.720  1.00  0.00     0.019 A 
HETATM   16  C   UNL     1     -47.131 -53.362  14.750  1.00  0.00     0.088 A 
HETATM   17  N   UNL     1     -46.296 -54.202  14.101  1.00  0.00    -0.373 N 
HETATM   18  C   UNL     1     -45.300 -53.628  13.378  1.00  0.00     0.117 A 
ATOM     19  HN  UNL     1     -46.409 -55.214  14.151  1.00  0.00     0.164 HD
ENDBRANCH  10  13
ENDBRANCH   5   7
BRANCH   1  20
HETATM   20  C   UNL     1     -38.614 -49.937  14.710  1.00  0.00     0.222 C 
HETATM   21  N   UNL     1     -37.681 -48.970  15.004  1.00  0.00    -0.357 N 
HETATM   22  H   UNL     1     -36.801 -48.961  14.509  1.00  0.00     0.162 HD
HETATM   23  O   UNL     1     -39.564 -50.174  15.453  1.00  0.00    -0.273 OA
BRANCH  21  24
HETATM   24  C   UNL     1     -37.782 -48.136  16.197  1.00  0.00     0.076 C 
HETATM   25  C   UNL     1     -36.411 -47.969  16.847  1.00  0.00     0.032 C 
HETATM   26  C   UNL     1     -38.381 -46.778  15.842  1.00  0.00     0.032 C 
ENDBRANCH  21  24
ENDBRANCH   1  20
TORSDOF 4
ENDMDL
