MODEL 1
REMARK VINA RESULT:      -7.1      0.000      0.000
REMARK  7 active torsions:
REMARK  status: ('A' for Active; 'I' for Inactive)
REMARK    1  A    between atoms: C_7  and  O_8 
REMARK    2  A    between atoms: O_8  and  C_9 
REMARK    3  A    between atoms: C_9  and  C_10 
REMARK    4  A    between atoms: C_10  and  O_11 
REMARK    5  A    between atoms: C_10  and  C_12 
REMARK    6  A    between atoms: C_12  and  N_13 
REMARK    7  A    between atoms: C_16  and  C_21 
ROOT
HETATM    1  C   UNL     1     -40.468 -50.504  11.707  1.00  0.00     0.162 C 
ENDROOT
BRANCH   1   2
HETATM    2  C   UNL     1     -41.280 -51.788  11.910  1.00  0.00     0.209 C 
BRANCH   2   3
HETATM    3  O   UNL     1     -41.749 -51.880  13.247  1.00  0.00    -0.347 OA
BRANCH   3   4
HETATM    4  C   UNL     1     -42.367 -53.017  13.707  1.00  0.00     0.081 A 
HETATM    5  C   UNL     1     -41.537 -53.706  14.636  1.00  0.00    -0.028 A 
HETATM    6  C   UNL     1     -41.992 -54.859  15.285  1.00  0.00     0.010 A 
HETATM    7  C   UNL     1     -40.149 -53.209  14.966  1.00  0.00     0.051 C 
HETATM    8  C   UNL     1     -43.263 -55.344  15.031  1.00  0.00     0.008 A 
HETATM    9  C   UNL     1     -44.096 -54.701  14.110  1.00  0.00    -0.053 A 
HETATM   10  C   UNL     1     -45.479 -55.274  13.898  1.00  0.00     0.049 C 
HETATM   11  C   UNL     1     -43.646 -53.543  13.398  1.00  0.00    -0.022 A 
HETATM   12  C   UNL     1     -44.633 -53.008  12.388  1.00  0.00     0.052 C 
ENDBRANCH   3   4
ENDBRANCH   2   3
ENDBRANCH   1   2
BRANCH   1  13
HETATM   13  O   UNL     1     -40.384 -50.188  10.310  1.00  0.00    -0.392 OA
HETATM   14  H   UNL     1     -40.233 -49.225  10.257  1.00  0.00     0.210 HD
ENDBRANCH   1  13
BRANCH   1  15
HETATM   15  C   UNL     1     -41.052 -49.307  12.475  1.00  0.00     0.186 C 
BRANCH  15  16
HETATM   16  N   UNL     1     -41.207 -48.093  11.670  1.00  0.00    -0.255 N 
HETATM   17  N   UNL     1     -42.293 -48.078  10.827  1.00  0.00    -0.299 N 
HETATM   18  C   UNL     1     -42.527 -47.016  10.122  1.00  0.00     0.034 A 
ATOM     19  HN  UNL     1     -42.906 -48.891  10.758  1.00  0.00     0.187 HD
HETATM   20  C   UNL     1     -41.651 -45.817  10.159  1.00  0.00     0.033 A 
HETATM   21  C   UNL     1     -40.628 -45.831  11.014  1.00  0.00     0.078 A 
HETATM   22  C   UNL     1     -40.362 -47.010  11.860  1.00  0.00     0.262 A 
HETATM   23  O   UNL     1     -39.448 -46.962  12.678  1.00  0.00    -0.267 OA
BRANCH  18  24
HETATM   24  C   UNL     1     -43.784 -46.982   9.217  1.00  0.00    -0.007 C 
HETATM   25  C   UNL     1     -43.516 -47.724   7.891  1.00  0.00     0.021 C 
HETATM   26  C   UNL     1     -44.949 -47.685   9.932  1.00  0.00     0.021 C 
HETATM   27  C   UNL     1     -44.163 -45.531   8.887  1.00  0.00     0.021 C 
ENDBRANCH  18  24
ENDBRANCH  15  16
ENDBRANCH   1  15
TORSDOF 7
ENDMDL
MODEL 2
REMARK VINA RESULT:      -6.9      2.641      4.179
REMARK  7 active torsions:
REMARK  status: ('A' for Active; 'I' for Inactive)
REMARK    1  A    between atoms: C_7  and  O_8 
REMARK    2  A    between atoms: O_8  and  C_9 
REMARK    3  A    between atoms: C_9  and  C_10 
REMARK    4  A    between atoms: C_10  and  O_11 
REMARK    5  A    between atoms: C_10  and  C_12 
REMARK    6  A    between atoms: C_12  and  N_13 
REMARK    7  A    between atoms: C_16  and  C_21 
ROOT
HETATM    1  C   UNL     1     -41.454 -53.139  12.419  1.00  0.00     0.162 C 
ENDROOT
BRANCH   1   2
HETATM    2  C   UNL     1     -42.908 -53.216  12.901  1.00  0.00     0.209 C 
BRANCH   2   3
HETATM    3  O   UNL     1     -43.507 -51.930  12.903  1.00  0.00    -0.347 OA
BRANCH   3   4
HETATM    4  C   UNL     1     -44.355 -51.541  13.910  1.00  0.00     0.081 A 
HETATM    5  C   UNL     1     -45.713 -51.762  13.545  1.00  0.00    -0.028 A 
HETATM    6  C   UNL     1     -46.749 -51.499  14.447  1.00  0.00     0.010 A 
HETATM    7  C   UNL     1     -46.081 -52.301  12.183  1.00  0.00     0.051 C 
HETATM    8  C   UNL     1     -46.464 -51.021  15.715  1.00  0.00     0.008 A 
HETATM    9  C   UNL     1     -45.141 -50.776  16.098  1.00  0.00    -0.053 A 
HETATM   10  C   UNL     1     -44.902 -50.276  17.504  1.00  0.00     0.049 C 
HETATM   11  C   UNL     1     -44.061 -50.995  15.185  1.00  0.00    -0.022 A 
HETATM   12  C   UNL     1     -42.701 -50.616  15.723  1.00  0.00     0.052 C 
ENDBRANCH   3   4
ENDBRANCH   2   3
ENDBRANCH   1   2
BRANCH   1  13
HETATM   13  O   UNL     1     -41.402 -52.608  11.087  1.00  0.00    -0.392 OA
HETATM   14  H   UNL     1     -40.829 -51.820  11.131  1.00  0.00     0.210 HD
ENDBRANCH   1  13
BRANCH   1  15
HETATM   15  C   UNL     1     -40.568 -52.294  13.349  1.00  0.00     0.186 C 
BRANCH  15  16
HETATM   16  N   UNL     1     -40.073 -51.055  12.746  1.00  0.00    -0.255 N 
HETATM   17  N   UNL     1     -41.028 -50.101  12.487  1.00  0.00    -0.299 N 
HETATM   18  C   UNL     1     -40.659 -48.956  12.003  1.00  0.00     0.034 A 
ATOM     19  HN  UNL     1     -42.013 -50.291  12.673  1.00  0.00     0.187 HD
HETATM   20  C   UNL     1     -39.244 -48.637  11.683  1.00  0.00     0.033 A 
HETATM   21  C   UNL     1     -38.325 -49.556  11.982  1.00  0.00     0.078 A 
HETATM   22  C   UNL     1     -38.712 -50.852  12.573  1.00  0.00     0.262 A 
HETATM   23  O   UNL     1     -37.832 -51.648  12.890  1.00  0.00    -0.267 OA
BRANCH  18  24
HETATM   24  C   UNL     1     -41.732 -47.865  11.766  1.00  0.00    -0.007 C 
HETATM   25  C   UNL     1     -41.190 -46.477  12.165  1.00  0.00     0.021 C 
HETATM   26  C   UNL     1     -42.100 -47.824  10.274  1.00  0.00     0.021 C 
HETATM   27  C   UNL     1     -42.981 -48.155  12.611  1.00  0.00     0.021 C 
ENDBRANCH  18  24
ENDBRANCH  15  16
ENDBRANCH   1  15
TORSDOF 7
ENDMDL
MODEL 3
REMARK VINA RESULT:      -6.7      2.808      3.969
REMARK  7 active torsions:
REMARK  status: ('A' for Active; 'I' for Inactive)
REMARK    1  A    between atoms: C_7  and  O_8 
REMARK    2  A    between atoms: O_8  and  C_9 
REMARK    3  A    between atoms: C_9  and  C_10 
REMARK    4  A    between atoms: C_10  and  O_11 
REMARK    5  A    between atoms: C_10  and  C_12 
REMARK    6  A    between atoms: C_12  and  N_13 
REMARK    7  A    between atoms: C_16  and  C_21 
ROOT
HETATM    1  C   UNL     1     -40.046 -53.518  13.467  1.00  0.00     0.162 C 
ENDROOT
BRANCH   1   2
HETATM    2  C   UNL     1     -41.335 -53.543  14.296  1.00  0.00     0.209 C 
BRANCH   2   3
HETATM    3  O   UNL     1     -41.837 -52.229  14.484  1.00  0.00    -0.347 OA
BRANCH   3   4
HETATM    4  C   UNL     1     -43.186 -51.972  14.457  1.00  0.00     0.081 A 
HETATM    5  C   UNL     1     -43.593 -51.266  15.625  1.00  0.00    -0.028 A 
HETATM    6  C   UNL     1     -44.917 -50.840  15.779  1.00  0.00     0.010 A 
HETATM    7  C   UNL     1     -42.611 -50.938  16.724  1.00  0.00     0.051 C 
HETATM    8  C   UNL     1     -45.851 -51.100  14.791  1.00  0.00     0.008 A 
HETATM    9  C   UNL     1     -45.487 -51.807  13.640  1.00  0.00    -0.053 A 
HETATM   10  C   UNL     1     -46.554 -52.036  12.593  1.00  0.00     0.049 C 
HETATM   11  C   UNL     1     -44.152 -52.293  13.470  1.00  0.00    -0.022 A 
HETATM   12  C   UNL     1     -43.936 -53.099  12.211  1.00  0.00     0.052 C 
ENDBRANCH   3   4
ENDBRANCH   2   3
ENDBRANCH   1   2
BRANCH   1  13
HETATM   13  O   UNL     1     -40.351 -53.264  12.088  1.00  0.00    -0.392 OA
HETATM   14  H   UNL     1     -41.309 -53.085  12.050  1.00  0.00     0.210 HD
ENDBRANCH   1  13
BRANCH   1  15
HETATM   15  C   UNL     1     -39.035 -52.478  13.975  1.00  0.00     0.186 C 
BRANCH  15  16
HETATM   16  N   UNL     1     -38.985 -51.249  13.181  1.00  0.00    -0.255 N 
HETATM   17  N   UNL     1     -40.084 -50.431  13.288  1.00  0.00    -0.299 N 
HETATM   18  C   UNL     1     -40.090 -49.299  12.656  1.00  0.00     0.034 A 
ATOM     19  HN  UNL     1     -40.884 -50.710  13.857  1.00  0.00     0.187 HD
HETATM   20  C   UNL     1     -38.968 -48.857  11.789  1.00  0.00     0.033 A 
HETATM   21  C   UNL     1     -37.892 -49.641  11.731  1.00  0.00     0.078 A 
HETATM   22  C   UNL     1     -37.840 -50.915  12.474  1.00  0.00     0.262 A 
HETATM   23  O   UNL     1     -36.808 -51.580  12.444  1.00  0.00    -0.267 OA
BRANCH  18  24
HETATM   24  C   UNL     1     -41.307 -48.355  12.825  1.00  0.00    -0.007 C 
HETATM   25  C   UNL     1     -42.553 -48.951  12.138  1.00  0.00     0.021 C 
HETATM   26  C   UNL     1     -41.620 -48.186  14.321  1.00  0.00     0.021 C 
HETATM   27  C   UNL     1     -41.013 -46.989  12.188  1.00  0.00     0.021 C 
ENDBRANCH  18  24
ENDBRANCH  15  16
ENDBRANCH   1  15
TORSDOF 7
ENDMDL
MODEL 4
REMARK VINA RESULT:      -6.7      2.773      4.711
REMARK  7 active torsions:
REMARK  status: ('A' for Active; 'I' for Inactive)
REMARK    1  A    between atoms: C_7  and  O_8 
REMARK    2  A    between atoms: O_8  and  C_9 
REMARK    3  A    between atoms: C_9  and  C_10 
REMARK    4  A    between atoms: C_10  and  O_11 
REMARK    5  A    between atoms: C_10  and  C_12 
REMARK    6  A    between atoms: C_12  and  N_13 
REMARK    7  A    between atoms: C_16  and  C_21 
ROOT
HETATM    1  C   UNL     1     -40.861 -50.332  11.607  1.00  0.00     0.162 C 
ENDROOT
BRANCH   1   2
HETATM    2  C   UNL     1     -41.105 -51.842  11.706  1.00  0.00     0.209 C 
BRANCH   2   3
HETATM    3  O   UNL     1     -40.059 -52.475  12.426  1.00  0.00    -0.347 OA
BRANCH   3   4
HETATM    4  C   UNL     1     -40.129 -52.638  13.788  1.00  0.00     0.081 A 
HETATM    5  C   UNL     1     -39.063 -51.953  14.437  1.00  0.00    -0.028 A 
HETATM    6  C   UNL     1     -38.974 -51.928  15.833  1.00  0.00     0.010 A 
HETATM    7  C   UNL     1     -38.006 -51.220  13.647  1.00  0.00     0.051 C 
HETATM    8  C   UNL     1     -39.929 -52.569  16.603  1.00  0.00     0.008 A 
HETATM    9  C   UNL     1     -40.978 -53.266  15.995  1.00  0.00    -0.053 A 
HETATM   10  C   UNL     1     -41.997 -53.925  16.898  1.00  0.00     0.049 C 
HETATM   11  C   UNL     1     -41.076 -53.347  14.569  1.00  0.00    -0.022 A 
HETATM   12  C   UNL     1     -42.222 -54.194  14.068  1.00  0.00     0.052 C 
ENDBRANCH   3   4
ENDBRANCH   2   3
ENDBRANCH   1   2
BRANCH   1  13
HETATM   13  O   UNL     1     -40.401 -49.990  10.292  1.00  0.00    -0.392 OA
HETATM   14  H   UNL     1     -40.252 -49.026  10.298  1.00  0.00     0.210 HD
ENDBRANCH   1  13
BRANCH   1  15
HETATM   15  C   UNL     1     -42.112 -49.507  11.949  1.00  0.00     0.186 C 
BRANCH  15  16
HETATM   16  N   UNL     1     -42.781 -49.913  13.188  1.00  0.00    -0.255 N 
HETATM   17  N   UNL     1     -43.965 -50.593  13.025  1.00  0.00    -0.299 N 
HETATM   18  C   UNL     1     -44.587 -51.032  14.073  1.00  0.00     0.034 A 
ATOM     19  HN  UNL     1     -44.348 -50.749  12.092  1.00  0.00     0.187 HD
HETATM   20  C   UNL     1     -44.093 -50.805  15.455  1.00  0.00     0.033 A 
HETATM   21  C   UNL     1     -42.922 -50.184  15.594  1.00  0.00     0.078 A 
HETATM   22  C   UNL     1     -42.170 -49.710  14.416  1.00  0.00     0.262 A 
HETATM   23  O   UNL     1     -41.067 -49.197  14.580  1.00  0.00    -0.267 OA
BRANCH  18  24
HETATM   24  C   UNL     1     -45.891 -51.846  13.881  1.00  0.00    -0.007 C 
HETATM   25  C   UNL     1     -46.939 -51.448  14.942  1.00  0.00     0.021 C 
HETATM   26  C   UNL     1     -46.480 -51.549  12.493  1.00  0.00     0.021 C 
HETATM   27  C   UNL     1     -45.607 -53.348  14.025  1.00  0.00     0.021 C 
ENDBRANCH  18  24
ENDBRANCH  15  16
ENDBRANCH   1  15
TORSDOF 7
ENDMDL
MODEL 5
REMARK VINA RESULT:      -6.7      2.406      3.645
REMARK  7 active torsions:
REMARK  status: ('A' for Active; 'I' for Inactive)
REMARK    1  A    between atoms: C_7  and  O_8 
REMARK    2  A    between atoms: O_8  and  C_9 
REMARK    3  A    between atoms: C_9  and  C_10 
REMARK    4  A    between atoms: C_10  and  O_11 
REMARK    5  A    between atoms: C_10  and  C_12 
REMARK    6  A    between atoms: C_12  and  N_13 
REMARK    7  A    between atoms: C_16  and  C_21 
ROOT
HETATM    1  C   UNL     1     -41.645 -52.814  12.399  1.00  0.00     0.162 C 
ENDROOT
BRANCH   1   2
HETATM    2  C   UNL     1     -43.113 -52.394  12.542  1.00  0.00     0.209 C 
BRANCH   2   3
HETATM    3  O   UNL     1     -43.889 -53.454  13.078  1.00  0.00    -0.347 OA
BRANCH   3   4
HETATM    4  C   UNL     1     -44.644 -53.281  14.213  1.00  0.00     0.081 A 
HETATM    5  C   UNL     1     -44.171 -54.110  15.269  1.00  0.00    -0.028 A 
HETATM    6  C   UNL     1     -44.751 -54.050  16.541  1.00  0.00     0.010 A 
HETATM    7  C   UNL     1     -43.022 -55.068  15.060  1.00  0.00     0.051 C 
HETATM    8  C   UNL     1     -45.795 -53.175  16.789  1.00  0.00     0.008 A 
HETATM    9  C   UNL     1     -46.294 -52.360  15.767  1.00  0.00    -0.053 A 
HETATM   10  C   UNL     1     -47.420 -51.413  16.116  1.00  0.00     0.049 C 
HETATM   11  C   UNL     1     -45.751 -52.427  14.445  1.00  0.00    -0.022 A 
HETATM   12  C   UNL     1     -46.445 -51.538  13.439  1.00  0.00     0.052 C 
ENDBRANCH   3   4
ENDBRANCH   2   3
ENDBRANCH   1   2
BRANCH   1  13
HETATM   13  O   UNL     1     -41.201 -52.607  11.051  1.00  0.00    -0.392 OA
HETATM   14  H   UNL     1     -41.687 -53.253  10.503  1.00  0.00     0.210 HD
ENDBRANCH   1  13
BRANCH   1  15
HETATM   15  C   UNL     1     -40.719 -52.065  13.371  1.00  0.00     0.186 C 
BRANCH  15  16
HETATM   16  N   UNL     1     -39.976 -50.960  12.763  1.00  0.00    -0.255 N 
HETATM   17  N   UNL     1     -40.737 -49.891  12.352  1.00  0.00    -0.299 N 
HETATM   18  C   UNL     1     -40.145 -48.852  11.853  1.00  0.00     0.034 A 
ATOM     19  HN  UNL     1     -41.753 -49.916  12.438  1.00  0.00     0.187 HD
HETATM   20  C   UNL     1     -38.672 -48.774  11.673  1.00  0.00     0.033 A 
HETATM   21  C   UNL     1     -37.945 -49.800  12.118  1.00  0.00     0.078 A 
HETATM   22  C   UNL     1     -38.590 -50.978  12.729  1.00  0.00     0.262 A 
HETATM   23  O   UNL     1     -37.883 -51.875  13.181  1.00  0.00    -0.267 OA
BRANCH  18  24
HETATM   24  C   UNL     1     -41.002 -47.629  11.443  1.00  0.00    -0.007 C 
HETATM   25  C   UNL     1     -41.898 -47.178  12.616  1.00  0.00     0.021 C 
HETATM   26  C   UNL     1     -40.079 -46.458  11.069  1.00  0.00     0.021 C 
HETATM   27  C   UNL     1     -41.908 -47.988  10.256  1.00  0.00     0.021 C 
ENDBRANCH  18  24
ENDBRANCH  15  16
ENDBRANCH   1  15
TORSDOF 7
ENDMDL
MODEL 6
REMARK VINA RESULT:      -6.3      2.808      7.211
REMARK  7 active torsions:
REMARK  status: ('A' for Active; 'I' for Inactive)
REMARK    1  A    between atoms: C_7  and  O_8 
REMARK    2  A    between atoms: O_8  and  C_9 
REMARK    3  A    between atoms: C_9  and  C_10 
REMARK    4  A    between atoms: C_10  and  O_11 
REMARK    5  A    between atoms: C_10  and  C_12 
REMARK    6  A    between atoms: C_12  and  N_13 
REMARK    7  A    between atoms: C_16  and  C_21 
ROOT
HETATM    1  C   UNL     1     -41.822 -52.193  12.113  1.00  0.00     0.162 C 
ENDROOT
BRANCH   1   2
HETATM    2  C   UNL     1     -41.562 -50.685  12.205  1.00  0.00     0.209 C 
BRANCH   2   3
HETATM    3  O   UNL     1     -42.747 -49.991  12.561  1.00  0.00    -0.347 OA
BRANCH   3   4
HETATM    4  C   UNL     1     -42.771 -48.620  12.644  1.00  0.00     0.081 A 
HETATM    5  C   UNL     1     -42.943 -48.196  13.992  1.00  0.00    -0.028 A 
HETATM    6  C   UNL     1     -42.930 -46.836  14.321  1.00  0.00     0.010 A 
HETATM    7  C   UNL     1     -43.125 -49.193  15.111  1.00  0.00     0.051 C 
HETATM    8  C   UNL     1     -42.747 -45.882  13.334  1.00  0.00     0.008 A 
HETATM    9  C   UNL     1     -42.595 -46.267  11.998  1.00  0.00    -0.053 A 
HETATM   10  C   UNL     1     -42.378 -45.173  10.977  1.00  0.00     0.049 C 
HETATM   11  C   UNL     1     -42.644 -47.646  11.621  1.00  0.00    -0.022 A 
HETATM   12  C   UNL     1     -42.536 -47.893  10.135  1.00  0.00     0.052 C 
ENDBRANCH   3   4
ENDBRANCH   2   3
ENDBRANCH   1   2
BRANCH   1  13
HETATM   13  O   UNL     1     -41.211 -52.729  10.931  1.00  0.00    -0.392 OA
HETATM   14  H   UNL     1     -40.528 -52.085  10.662  1.00  0.00     0.210 HD
ENDBRANCH   1  13
BRANCH   1  15
HETATM   15  C   UNL     1     -41.319 -52.957  13.349  1.00  0.00     0.186 C 
BRANCH  15  16
HETATM   16  N   UNL     1     -42.361 -53.262  14.332  1.00  0.00    -0.255 N 
HETATM   17  N   UNL     1     -43.560 -52.617  14.143  1.00  0.00    -0.299 N 
HETATM   18  C   UNL     1     -44.547 -52.878  14.941  1.00  0.00     0.034 A 
ATOM     19  HN  UNL     1     -43.671 -51.944  13.384  1.00  0.00     0.187 HD
HETATM   20  C   UNL     1     -44.432 -53.823  16.081  1.00  0.00     0.033 A 
HETATM   21  C   UNL     1     -43.276 -54.473  16.224  1.00  0.00     0.078 A 
HETATM   22  C   UNL     1     -42.149 -54.228  15.304  1.00  0.00     0.262 A 
HETATM   23  O   UNL     1     -41.122 -54.890  15.431  1.00  0.00    -0.267 OA
BRANCH  18  24
HETATM   24  C   UNL     1     -45.913 -52.191  14.689  1.00  0.00    -0.007 C 
HETATM   25  C   UNL     1     -46.229 -51.185  15.815  1.00  0.00     0.021 C 
HETATM   26  C   UNL     1     -45.862 -51.422  13.360  1.00  0.00     0.021 C 
HETATM   27  C   UNL     1     -47.036 -53.239  14.651  1.00  0.00     0.021 C 
ENDBRANCH  18  24
ENDBRANCH  15  16
ENDBRANCH   1  15
TORSDOF 7
ENDMDL
MODEL 7
REMARK VINA RESULT:      -6.3      2.841      7.181
REMARK  7 active torsions:
REMARK  status: ('A' for Active; 'I' for Inactive)
REMARK    1  A    between atoms: C_7  and  O_8 
REMARK    2  A    between atoms: O_8  and  C_9 
REMARK    3  A    between atoms: C_9  and  C_10 
REMARK    4  A    between atoms: C_10  and  O_11 
REMARK    5  A    between atoms: C_10  and  C_12 
REMARK    6  A    between atoms: C_12  and  N_13 
REMARK    7  A    between atoms: C_16  and  C_21 
ROOT
HETATM    1  C   UNL     1     -40.844 -51.004  12.351  1.00  0.00     0.162 C 
ENDROOT
BRANCH   1   2
HETATM    2  C   UNL     1     -40.501 -49.942  11.300  1.00  0.00     0.209 C 
BRANCH   2   3
HETATM    3  O   UNL     1     -39.179 -49.459  11.486  1.00  0.00    -0.347 OA
BRANCH   3   4
HETATM    4  C   UNL     1     -38.863 -48.640  12.543  1.00  0.00     0.081 A 
HETATM    5  C   UNL     1     -37.880 -49.245  13.377  1.00  0.00    -0.028 A 
HETATM    6  C   UNL     1     -37.359 -48.560  14.480  1.00  0.00     0.010 A 
HETATM    7  C   UNL     1     -37.356 -50.632  13.093  1.00  0.00     0.051 C 
HETATM    8  C   UNL     1     -37.793 -47.278  14.773  1.00  0.00     0.008 A 
HETATM    9  C   UNL     1     -38.770 -46.664  13.983  1.00  0.00    -0.053 A 
HETATM   10  C   UNL     1     -39.181 -45.256  14.348  1.00  0.00     0.049 C 
HETATM   11  C   UNL     1     -39.355 -47.352  12.872  1.00  0.00    -0.022 A 
HETATM   12  C   UNL     1     -40.445 -46.583  12.165  1.00  0.00     0.052 C 
ENDBRANCH   3   4
ENDBRANCH   2   3
ENDBRANCH   1   2
BRANCH   1  13
HETATM   13  O   UNL     1     -41.523 -50.399  13.461  1.00  0.00    -0.392 OA
HETATM   14  H   UNL     1     -40.864 -49.834  13.907  1.00  0.00     0.210 HD
ENDBRANCH   1  13
BRANCH   1  15
HETATM   15  C   UNL     1     -41.699 -52.146  11.779  1.00  0.00     0.186 C 
BRANCH  15  16
HETATM   16  N   UNL     1     -42.529 -52.832  12.772  1.00  0.00    -0.255 N 
HETATM   17  N   UNL     1     -43.778 -52.293  12.972  1.00  0.00    -0.299 N 
HETATM   18  C   UNL     1     -44.591 -52.876  13.796  1.00  0.00     0.034 A 
ATOM     19  HN  UNL     1     -44.062 -51.446  12.478  1.00  0.00     0.187 HD
HETATM   20  C   UNL     1     -44.220 -54.091  14.566  1.00  0.00     0.033 A 
HETATM   21  C   UNL     1     -43.022 -54.626  14.328  1.00  0.00     0.078 A 
HETATM   22  C   UNL     1     -42.093 -54.007  13.363  1.00  0.00     0.262 A 
HETATM   23  O   UNL     1     -41.023 -54.563  13.126  1.00  0.00    -0.267 OA
BRANCH  18  24
HETATM   24  C   UNL     1     -46.017 -52.298  13.974  1.00  0.00    -0.007 C 
HETATM   25  C   UNL     1     -46.003 -51.124  14.976  1.00  0.00     0.021 C 
HETATM   26  C   UNL     1     -46.528 -51.770  12.625  1.00  0.00     0.021 C 
HETATM   27  C   UNL     1     -46.965 -53.379  14.513  1.00  0.00     0.021 C 
ENDBRANCH  18  24
ENDBRANCH  15  16
ENDBRANCH   1  15
TORSDOF 7
ENDMDL
MODEL 8
REMARK VINA RESULT:      -6.2      3.815      6.797
REMARK  7 active torsions:
REMARK  status: ('A' for Active; 'I' for Inactive)
REMARK    1  A    between atoms: C_7  and  O_8 
REMARK    2  A    between atoms: O_8  and  C_9 
REMARK    3  A    between atoms: C_9  and  C_10 
REMARK    4  A    between atoms: C_10  and  O_11 
REMARK    5  A    between atoms: C_10  and  C_12 
REMARK    6  A    between atoms: C_12  and  N_13 
REMARK    7  A    between atoms: C_16  and  C_21 
ROOT
HETATM    1  C   UNL     1     -41.501 -49.637  14.403  1.00  0.00     0.162 C 
ENDROOT
BRANCH   1   2
HETATM    2  C   UNL     1     -43.016 -49.422  14.312  1.00  0.00     0.209 C 
BRANCH   2   3
HETATM    3  O   UNL     1     -43.707 -50.656  14.433  1.00  0.00    -0.347 OA
BRANCH   3   4
HETATM    4  C   UNL     1     -44.847 -50.762  15.191  1.00  0.00     0.081 A 
HETATM    5  C   UNL     1     -45.905 -51.348  14.440  1.00  0.00    -0.028 A 
HETATM    6  C   UNL     1     -47.143 -51.614  15.034  1.00  0.00     0.010 A 
HETATM    7  C   UNL     1     -45.723 -51.719  12.987  1.00  0.00     0.051 C 
HETATM    8  C   UNL     1     -47.355 -51.310  16.368  1.00  0.00     0.008 A 
HETATM    9  C   UNL     1     -46.341 -50.717  17.128  1.00  0.00    -0.053 A 
HETATM   10  C   UNL     1     -46.635 -50.433  18.584  1.00  0.00     0.049 C 
HETATM   11  C   UNL     1     -45.077 -50.394  16.541  1.00  0.00    -0.022 A 
HETATM   12  C   UNL     1     -44.116 -49.692  17.472  1.00  0.00     0.052 C 
ENDBRANCH   3   4
ENDBRANCH   2   3
ENDBRANCH   1   2
BRANCH   1  13
HETATM   13  O   UNL     1     -41.137 -50.039  15.731  1.00  0.00    -0.392 OA
HETATM   14  H   UNL     1     -40.211 -50.341  15.679  1.00  0.00     0.210 HD
ENDBRANCH   1  13
BRANCH   1  15
HETATM   15  C   UNL     1     -40.989 -50.672  13.388  1.00  0.00     0.186 C 
BRANCH  15  16
HETATM   16  N   UNL     1     -40.673 -51.978  13.969  1.00  0.00    -0.255 N 
HETATM   17  N   UNL     1     -41.727 -52.633  14.560  1.00  0.00    -0.299 N 
HETATM   18  C   UNL     1     -41.538 -53.819  15.049  1.00  0.00     0.034 A 
ATOM     19  HN  UNL     1     -42.646 -52.192  14.613  1.00  0.00     0.187 HD
HETATM   20  C   UNL     1     -40.215 -54.494  15.030  1.00  0.00     0.033 A 
HETATM   21  C   UNL     1     -39.214 -53.864  14.414  1.00  0.00     0.078 A 
HETATM   22  C   UNL     1     -39.412 -52.533  13.811  1.00  0.00     0.262 A 
HETATM   23  O   UNL     1     -38.482 -52.011  13.200  1.00  0.00    -0.267 OA
BRANCH  18  24
HETATM   24  C   UNL     1     -42.743 -54.575  15.662  1.00  0.00    -0.007 C 
HETATM   25  C   UNL     1     -43.804 -54.870  14.582  1.00  0.00     0.021 C 
HETATM   26  C   UNL     1     -42.264 -55.915  16.242  1.00  0.00     0.021 C 
HETATM   27  C   UNL     1     -43.399 -53.727  16.762  1.00  0.00     0.021 C 
ENDBRANCH  18  24
ENDBRANCH  15  16
ENDBRANCH   1  15
TORSDOF 7
ENDMDL
MODEL 9
REMARK VINA RESULT:      -6.2      3.541      5.111
REMARK  7 active torsions:
REMARK  status: ('A' for Active; 'I' for Inactive)
REMARK    1  A    between atoms: C_7  and  O_8 
REMARK    2  A    between atoms: O_8  and  C_9 
REMARK    3  A    between atoms: C_9  and  C_10 
REMARK    4  A    between atoms: C_10  and  O_11 
REMARK    5  A    between atoms: C_10  and  C_12 
REMARK    6  A    between atoms: C_12  and  N_13 
REMARK    7  A    between atoms: C_16  and  C_21 
ROOT
HETATM    1  C   UNL     1     -41.182 -53.837  12.549  1.00  0.00     0.162 C 
ENDROOT
BRANCH   1   2
HETATM    2  C   UNL     1     -42.439 -52.994  12.790  1.00  0.00     0.209 C 
BRANCH   2   3
HETATM    3  O   UNL     1     -43.551 -53.824  13.089  1.00  0.00    -0.347 OA
BRANCH   3   4
HETATM    4  C   UNL     1     -44.415 -53.516  14.111  1.00  0.00     0.081 A 
HETATM    5  C   UNL     1     -44.166 -54.331  15.251  1.00  0.00    -0.028 A 
HETATM    6  C   UNL     1     -44.886 -54.144  16.436  1.00  0.00     0.010 A 
HETATM    7  C   UNL     1     -43.108 -55.408  15.228  1.00  0.00     0.051 C 
HETATM    8  C   UNL     1     -45.854 -53.157  16.514  1.00  0.00     0.008 A 
HETATM    9  C   UNL     1     -46.136 -52.353  15.405  1.00  0.00    -0.053 A 
HETATM   10  C   UNL     1     -47.190 -51.281  15.569  1.00  0.00     0.049 C 
HETATM   11  C   UNL     1     -45.446 -52.544  14.166  1.00  0.00    -0.022 A 
HETATM   12  C   UNL     1     -45.914 -51.646  13.045  1.00  0.00     0.052 C 
ENDBRANCH   3   4
ENDBRANCH   2   3
ENDBRANCH   1   2
BRANCH   1  13
HETATM   13  O   UNL     1     -40.487 -53.367  11.385  1.00  0.00    -0.392 OA
HETATM   14  H   UNL     1     -41.115 -53.448  10.643  1.00  0.00     0.210 HD
ENDBRANCH   1  13
BRANCH   1  15
HETATM   15  C   UNL     1     -40.230 -53.838  13.756  1.00  0.00     0.186 C 
BRANCH  15  16
HETATM   16  N   UNL     1     -39.959 -52.510  14.310  1.00  0.00    -0.255 N 
HETATM   17  N   UNL     1     -39.337 -51.630  13.456  1.00  0.00    -0.299 N 
HETATM   18  C   UNL     1     -39.112 -50.418  13.857  1.00  0.00     0.034 A 
ATOM     19  HN  UNL     1     -39.057 -51.927  12.521  1.00  0.00     0.187 HD
HETATM   20  C   UNL     1     -39.468 -49.942  15.218  1.00  0.00     0.033 A 
HETATM   21  C   UNL     1     -40.110 -50.794  16.017  1.00  0.00     0.078 A 
HETATM   22  C   UNL     1     -40.417 -52.167  15.572  1.00  0.00     0.262 A 
HETATM   23  O   UNL     1     -41.063 -52.903  16.314  1.00  0.00    -0.267 OA
BRANCH  18  24
HETATM   24  C   UNL     1     -38.462 -49.414  12.871  1.00  0.00    -0.007 C 
HETATM   25  C   UNL     1     -37.591 -48.394  13.634  1.00  0.00     0.021 C 
HETATM   26  C   UNL     1     -37.559 -50.174  11.887  1.00  0.00     0.021 C 
HETATM   27  C   UNL     1     -39.548 -48.643  12.106  1.00  0.00     0.021 C 
ENDBRANCH  18  24
ENDBRANCH  15  16
ENDBRANCH   1  15
TORSDOF 7
ENDMDL
