MODEL 1
REMARK VINA RESULT:      -6.3      0.000      0.000
REMARK  3 active torsions:
REMARK  status: ('A' for Active; 'I' for Inactive)
REMARK    1  A    between atoms: C_8  and  N_9 
REMARK       I    between atoms: N_9  and  C_10 
REMARK       I    between atoms: C_10  and  N_12 
REMARK    2  A    between atoms: N_12  and  C_13 
REMARK    3  A    between atoms: C_17  and  C_19 
ROOT
HETATM    1  N   UNL     1     -44.016 -45.584   9.222  1.00  0.00    -0.140 N 
HETATM    2  C   UNL     1     -42.947 -45.649  10.082  1.00  0.00     0.334 C 
HETATM    3  O   UNL     1     -42.204 -44.684  10.206  1.00  0.00    -0.246 OA
HETATM    4  N   UNL     1     -42.901 -46.767  10.861  1.00  0.00    -0.338 N 
HETATM    5  H   UNL     1     -44.170 -44.676   8.809  1.00  0.00     0.189 HD
HETATM    6  H   UNL     1     -43.344 -47.577  10.436  1.00  0.00     0.164 HD
ENDROOT
BRANCH   1   7
HETATM    7  C   UNL     1     -44.914 -46.612   9.045  1.00  0.00     0.703 A 
HETATM    8  N   UNL     1     -44.658 -47.766   8.351  1.00  0.00    -0.127 N 
HETATM    9  C   UNL     1     -43.548 -48.049   7.477  1.00  0.00     0.197 C 
HETATM   10  N   UNL     1     -45.733 -48.579   8.359  1.00  0.00    -0.280 N 
HETATM   11  C   UNL     1     -46.617 -47.856   9.040  1.00  0.00     0.215 A 
ATOM     12  HN  UNL     1     -45.841 -49.507   7.950  1.00  0.00     0.188 HD
HETATM   13  N   UNL     1     -46.166 -46.641   9.461  1.00  0.00    -0.185 N 
ATOM     14  HN  UNL     1     -46.675 -45.924   9.976  1.00  0.00     0.185 HD
ENDBRANCH   1   7
BRANCH   4  15
HETATM   15  C   UNL     1     -42.102 -46.985  12.058  1.00  0.00     0.090 C 
HETATM   16  C   UNL     1     -40.791 -47.680  11.653  1.00  0.00     0.051 C 
HETATM   17  C   UNL     1     -41.041 -49.132  11.243  1.00  0.00     0.170 C 
HETATM   18  O   UNL     1     -41.726 -49.849  12.272  1.00  0.00    -0.385 OA
HETATM   19  C   UNL     1     -43.010 -49.273  12.547  1.00  0.00     0.127 C 
HETATM   20  C   UNL     1     -42.813 -47.857  13.095  1.00  0.00     0.057 C 
BRANCH  19  21
HETATM   21  C   UNL     1     -43.801 -50.122  13.506  1.00  0.00     0.015 A 
HETATM   22  C   UNL     1     -43.645 -51.622  13.554  1.00  0.00     0.007 A 
HETATM   23  C   UNL     1     -44.932 -51.018  13.062  1.00  0.00     0.007 A 
ENDBRANCH  19  21
ENDBRANCH   4  15
TORSDOF 3
ENDMDL
MODEL 2
REMARK VINA RESULT:      -6.0      1.570      1.998
REMARK  3 active torsions:
REMARK  status: ('A' for Active; 'I' for Inactive)
REMARK    1  A    between atoms: C_8  and  N_9 
REMARK       I    between atoms: N_9  and  C_10 
REMARK       I    between atoms: C_10  and  N_12 
REMARK    2  A    between atoms: N_12  and  C_13 
REMARK    3  A    between atoms: C_17  and  C_19 
ROOT
HETATM    1  N   UNL     1     -42.265 -47.034   9.834  1.00  0.00    -0.140 N 
HETATM    2  C   UNL     1     -41.593 -47.653  10.859  1.00  0.00     0.334 C 
HETATM    3  O   UNL     1     -40.435 -47.343  11.105  1.00  0.00    -0.246 OA
HETATM    4  N   UNL     1     -42.356 -48.474  11.635  1.00  0.00    -0.338 N 
HETATM    5  H   UNL     1     -41.764 -46.272   9.401  1.00  0.00     0.189 HD
HETATM    6  H   UNL     1     -43.149 -48.878  11.142  1.00  0.00     0.164 HD
ENDROOT
BRANCH   1   7
HETATM    7  C   UNL     1     -43.576 -47.302   9.510  1.00  0.00     0.703 A 
HETATM    8  N   UNL     1     -43.988 -47.931   8.364  1.00  0.00    -0.127 N 
HETATM    9  C   UNL     1     -43.217 -48.211   7.180  1.00  0.00     0.197 C 
HETATM   10  N   UNL     1     -45.330 -48.051   8.339  1.00  0.00    -0.280 N 
HETATM   11  C   UNL     1     -45.679 -47.451   9.473  1.00  0.00     0.215 A 
ATOM     12  HN  UNL     1     -45.923 -48.488   7.634  1.00  0.00     0.188 HD
HETATM   13  N   UNL     1     -44.643 -46.963  10.210  1.00  0.00    -0.185 N 
ATOM     14  HN  UNL     1     -44.682 -46.455  11.093  1.00  0.00     0.185 HD
ENDBRANCH   1   7
BRANCH   4  15
HETATM   15  C   UNL     1     -42.032 -49.012  12.947  1.00  0.00     0.090 C 
HETATM   16  C   UNL     1     -41.068 -50.198  12.768  1.00  0.00     0.051 C 
HETATM   17  C   UNL     1     -41.788 -51.406  12.165  1.00  0.00     0.170 C 
HETATM   18  O   UNL     1     -42.933 -51.765  12.941  1.00  0.00    -0.385 OA
HETATM   19  C   UNL     1     -43.890 -50.699  12.989  1.00  0.00     0.127 C 
HETATM   20  C   UNL     1     -43.266 -49.502  13.710  1.00  0.00     0.057 C 
BRANCH  19  21
HETATM   21  C   UNL     1     -45.165 -51.134  13.660  1.00  0.00     0.015 A 
HETATM   22  C   UNL     1     -45.624 -52.571  13.642  1.00  0.00     0.007 A 
HETATM   23  C   UNL     1     -46.402 -51.527  12.888  1.00  0.00     0.007 A 
ENDBRANCH  19  21
ENDBRANCH   4  15
TORSDOF 3
ENDMDL
MODEL 3
REMARK VINA RESULT:      -5.8      2.195      3.540
REMARK  3 active torsions:
REMARK  status: ('A' for Active; 'I' for Inactive)
REMARK    1  A    between atoms: C_8  and  N_9 
REMARK       I    between atoms: N_9  and  C_10 
REMARK       I    between atoms: C_10  and  N_12 
REMARK    2  A    between atoms: N_12  and  C_13 
REMARK    3  A    between atoms: C_17  and  C_19 
ROOT
HETATM    1  N   UNL     1     -40.709 -47.936  10.585  1.00  0.00    -0.140 N 
HETATM    2  C   UNL     1     -40.401 -48.917  11.496  1.00  0.00     0.334 C 
HETATM    3  O   UNL     1     -39.231 -49.141  11.780  1.00  0.00    -0.246 OA
HETATM    4  N   UNL     1     -41.472 -49.465  12.138  1.00  0.00    -0.338 N 
HETATM    5  H   UNL     1     -39.922 -47.387  10.275  1.00  0.00     0.189 HD
HETATM    6  H   UNL     1     -42.330 -49.439  11.592  1.00  0.00     0.164 HD
ENDROOT
BRANCH   1   7
HETATM    7  C   UNL     1     -41.997 -47.603  10.232  1.00  0.00     0.703 A 
HETATM    8  N   UNL     1     -42.777 -46.687  10.887  1.00  0.00    -0.127 N 
HETATM    9  C   UNL     1     -42.545 -46.081  12.173  1.00  0.00     0.197 C 
HETATM   10  N   UNL     1     -43.986 -46.578  10.300  1.00  0.00    -0.280 N 
HETATM   11  C   UNL     1     -43.894 -47.472   9.320  1.00  0.00     0.215 A 
ATOM     12  HN  UNL     1     -44.767 -45.969  10.543  1.00  0.00     0.188 HD
HETATM   13  N   UNL     1     -42.705 -48.134   9.253  1.00  0.00    -0.185 N 
ATOM     14  HN  UNL     1     -42.428 -48.867   8.600  1.00  0.00     0.185 HD
ENDBRANCH   1   7
BRANCH   4  15
HETATM   15  C   UNL     1     -41.466 -50.275  13.346  1.00  0.00     0.090 C 
HETATM   16  C   UNL     1     -40.961 -51.684  12.992  1.00  0.00     0.051 C 
HETATM   17  C   UNL     1     -42.001 -52.452  12.173  1.00  0.00     0.170 C 
HETATM   18  O   UNL     1     -43.260 -52.493  12.847  1.00  0.00    -0.385 OA
HETATM   19  C   UNL     1     -43.790 -51.177  13.052  1.00  0.00     0.127 C 
HETATM   20  C   UNL     1     -42.852 -50.403  13.982  1.00  0.00     0.057 C 
BRANCH  19  21
HETATM   21  C   UNL     1     -45.188 -51.225  13.606  1.00  0.00     0.015 A 
HETATM   22  C   UNL     1     -45.939 -52.525  13.759  1.00  0.00     0.007 A 
HETATM   23  C   UNL     1     -46.398 -51.510  12.748  1.00  0.00     0.007 A 
ENDBRANCH  19  21
ENDBRANCH   4  15
TORSDOF 3
ENDMDL
MODEL 4
REMARK VINA RESULT:      -5.6      3.603      5.695
REMARK  3 active torsions:
REMARK  status: ('A' for Active; 'I' for Inactive)
REMARK    1  A    between atoms: C_8  and  N_9 
REMARK       I    between atoms: N_9  and  C_10 
REMARK       I    between atoms: C_10  and  N_12 
REMARK    2  A    between atoms: N_12  and  C_13 
REMARK    3  A    between atoms: C_17  and  C_19 
ROOT
HETATM    1  N   UNL     1     -41.292 -49.279  10.858  1.00  0.00    -0.140 N 
HETATM    2  C   UNL     1     -41.707 -48.086  10.319  1.00  0.00     0.334 C 
HETATM    3  O   UNL     1     -42.837 -47.985   9.858  1.00  0.00    -0.246 OA
HETATM    4  N   UNL     1     -40.846 -47.044  10.492  1.00  0.00    -0.338 N 
HETATM    5  H   UNL     1     -42.010 -49.985  10.923  1.00  0.00     0.189 HD
HETATM    6  H   UNL     1     -39.873 -47.330  10.571  1.00  0.00     0.164 HD
ENDROOT
BRANCH   1   7
HETATM    7  C   UNL     1     -40.050 -49.469  11.421  1.00  0.00     0.703 A 
HETATM    8  N   UNL     1     -39.751 -49.270  12.744  1.00  0.00    -0.127 N 
HETATM    9  C   UNL     1     -40.549 -48.610  13.745  1.00  0.00     0.197 C 
HETATM   10  N   UNL     1     -38.453 -49.544  12.989  1.00  0.00    -0.280 N 
HETATM   11  C   UNL     1     -38.011 -49.868  11.777  1.00  0.00     0.215 A 
ATOM     12  HN  UNL     1     -37.945 -49.510  13.871  1.00  0.00     0.188 HD
HETATM   13  N   UNL     1     -38.946 -49.818  10.789  1.00  0.00    -0.185 N 
ATOM     14  HN  UNL     1     -38.822 -50.006   9.794  1.00  0.00     0.185 HD
ENDBRANCH   1   7
BRANCH   4  15
HETATM   15  C   UNL     1     -41.121 -45.625  10.325  1.00  0.00     0.090 C 
HETATM   16  C   UNL     1     -39.830 -44.837  10.606  1.00  0.00     0.051 C 
HETATM   17  C   UNL     1     -39.484 -44.859  12.096  1.00  0.00     0.170 C 
HETATM   18  O   UNL     1     -40.577 -44.386  12.886  1.00  0.00    -0.385 OA
HETATM   19  C   UNL     1     -41.738 -45.209  12.723  1.00  0.00     0.127 C 
HETATM   20  C   UNL     1     -42.213 -45.117  11.271  1.00  0.00     0.057 C 
BRANCH  19  21
HETATM   21  C   UNL     1     -42.832 -44.815  13.678  1.00  0.00     0.015 A 
HETATM   22  C   UNL     1     -42.571 -44.627  15.153  1.00  0.00     0.007 A 
HETATM   23  C   UNL     1     -43.424 -45.775  14.684  1.00  0.00     0.007 A 
ENDBRANCH  19  21
ENDBRANCH   4  15
TORSDOF 3
ENDMDL
MODEL 5
REMARK VINA RESULT:      -5.5      2.237      3.259
REMARK  3 active torsions:
REMARK  status: ('A' for Active; 'I' for Inactive)
REMARK    1  A    between atoms: C_8  and  N_9 
REMARK       I    between atoms: N_9  and  C_10 
REMARK       I    between atoms: C_10  and  N_12 
REMARK    2  A    between atoms: N_12  and  C_13 
REMARK    3  A    between atoms: C_17  and  C_19 
ROOT
HETATM    1  N   UNL     1     -43.238 -46.325  12.578  1.00  0.00    -0.140 N 
HETATM    2  C   UNL     1     -42.876 -47.076  13.669  1.00  0.00     0.334 C 
HETATM    3  O   UNL     1     -42.981 -46.608  14.796  1.00  0.00    -0.246 OA
HETATM    4  N   UNL     1     -42.568 -48.376  13.397  1.00  0.00    -0.338 N 
HETATM    5  H   UNL     1     -43.670 -45.440  12.801  1.00  0.00     0.189 HD
HETATM    6  H   UNL     1     -42.208 -48.520  12.457  1.00  0.00     0.164 HD
ENDROOT
BRANCH   1   7
HETATM    7  C   UNL     1     -43.177 -46.785  11.283  1.00  0.00     0.703 A 
HETATM    8  N   UNL     1     -42.041 -46.824  10.517  1.00  0.00    -0.127 N 
HETATM    9  C   UNL     1     -40.772 -46.194  10.778  1.00  0.00     0.197 C 
HETATM   10  N   UNL     1     -42.303 -47.330   9.295  1.00  0.00    -0.280 N 
HETATM   11  C   UNL     1     -43.614 -47.547   9.365  1.00  0.00     0.215 A 
ATOM     12  HN  UNL     1     -41.664 -47.502   8.520  1.00  0.00     0.188 HD
HETATM   13  N   UNL     1     -44.191 -47.211  10.552  1.00  0.00    -0.185 N 
ATOM     14  HN  UNL     1     -45.174 -47.274  10.815  1.00  0.00     0.185 HD
ENDBRANCH   1   7
BRANCH   4  15
HETATM   15  C   UNL     1     -42.457 -49.480  14.338  1.00  0.00     0.090 C 
HETATM   16  C   UNL     1     -41.473 -50.516  13.768  1.00  0.00     0.051 C 
HETATM   17  C   UNL     1     -42.082 -51.255  12.575  1.00  0.00     0.170 C 
HETATM   18  O   UNL     1     -43.336 -51.848  12.920  1.00  0.00    -0.385 OA
HETATM   19  C   UNL     1     -44.292 -50.858  13.320  1.00  0.00     0.127 C 
HETATM   20  C   UNL     1     -43.796 -50.176  14.597  1.00  0.00     0.057 C 
BRANCH  19  21
HETATM   21  C   UNL     1     -45.658 -51.459  13.520  1.00  0.00     0.015 A 
HETATM   22  C   UNL     1     -46.018 -52.816  12.967  1.00  0.00     0.007 A 
HETATM   23  C   UNL     1     -46.668 -51.581  12.404  1.00  0.00     0.007 A 
ENDBRANCH  19  21
ENDBRANCH   4  15
TORSDOF 3
ENDMDL
MODEL 6
REMARK VINA RESULT:      -5.5      3.985      5.676
REMARK  3 active torsions:
REMARK  status: ('A' for Active; 'I' for Inactive)
REMARK    1  A    between atoms: C_8  and  N_9 
REMARK       I    between atoms: N_9  and  C_10 
REMARK       I    between atoms: C_10  and  N_12 
REMARK    2  A    between atoms: N_12  and  C_13 
REMARK    3  A    between atoms: C_17  and  C_19 
ROOT
HETATM    1  N   UNL     1     -39.316 -50.702  11.998  1.00  0.00    -0.140 N 
HETATM    2  C   UNL     1     -39.787 -51.671  12.850  1.00  0.00     0.334 C 
HETATM    3  O   UNL     1     -39.042 -52.566  13.229  1.00  0.00    -0.246 OA
HETATM    4  N   UNL     1     -41.042 -51.451  13.336  1.00  0.00    -0.338 N 
HETATM    5  H   UNL     1     -38.325 -50.750  11.814  1.00  0.00     0.189 HD
HETATM    6  H   UNL     1     -41.628 -50.901  12.713  1.00  0.00     0.164 HD
ENDROOT
BRANCH   1   7
HETATM    7  C   UNL     1     -40.077 -49.648  11.548  1.00  0.00     0.703 A 
HETATM    8  N   UNL     1     -40.087 -48.396  12.104  1.00  0.00    -0.127 N 
HETATM    9  C   UNL     1     -39.535 -47.981  13.369  1.00  0.00     0.197 C 
HETATM   10  N   UNL     1     -40.931 -47.581  11.438  1.00  0.00    -0.280 N 
HETATM   11  C   UNL     1     -41.427 -48.399  10.515  1.00  0.00     0.215 A 
ATOM     12  HN  UNL     1     -41.136 -46.596  11.601  1.00  0.00     0.188 HD
HETATM   13  N   UNL     1     -40.948 -49.674  10.557  1.00  0.00    -0.185 N 
ATOM     14  HN  UNL     1     -41.202 -50.463   9.962  1.00  0.00     0.185 HD
ENDBRANCH   1   7
BRANCH   4  15
HETATM   15  C   UNL     1     -41.684 -52.100  14.468  1.00  0.00     0.090 C 
HETATM   16  C   UNL     1     -41.810 -53.603  14.166  1.00  0.00     0.051 C 
HETATM   17  C   UNL     1     -42.865 -53.862  13.089  1.00  0.00     0.170 C 
HETATM   18  O   UNL     1     -44.122 -53.285  13.448  1.00  0.00    -0.385 OA
HETATM   19  C   UNL     1     -44.025 -51.863  13.594  1.00  0.00     0.127 C 
HETATM   20  C   UNL     1     -43.082 -51.545  14.756  1.00  0.00     0.057 C 
BRANCH  19  21
HETATM   21  C   UNL     1     -45.377 -51.236  13.805  1.00  0.00     0.015 A 
HETATM   22  C   UNL     1     -46.555 -52.036  14.307  1.00  0.00     0.007 A 
HETATM   23  C   UNL     1     -46.554 -51.509  12.898  1.00  0.00     0.007 A 
ENDBRANCH  19  21
ENDBRANCH   4  15
TORSDOF 3
ENDMDL
MODEL 7
REMARK VINA RESULT:      -5.4      4.468      6.584
REMARK  3 active torsions:
REMARK  status: ('A' for Active; 'I' for Inactive)
REMARK    1  A    between atoms: C_8  and  N_9 
REMARK       I    between atoms: N_9  and  C_10 
REMARK       I    between atoms: C_10  and  N_12 
REMARK    2  A    between atoms: N_12  and  C_13 
REMARK    3  A    between atoms: C_17  and  C_19 
ROOT
HETATM    1  N   UNL     1     -40.682 -51.312  11.838  1.00  0.00    -0.140 N 
HETATM    2  C   UNL     1     -41.694 -50.446  12.172  1.00  0.00     0.334 C 
HETATM    3  O   UNL     1     -41.903 -49.457  11.482  1.00  0.00    -0.246 OA
HETATM    4  N   UNL     1     -42.500 -50.865  13.188  1.00  0.00    -0.338 N 
HETATM    5  H   UNL     1     -40.227 -51.111  10.960  1.00  0.00     0.189 HD
HETATM    6  H   UNL     1     -42.034 -51.484  13.847  1.00  0.00     0.164 HD
ENDROOT
BRANCH   1   7
HETATM    7  C   UNL     1     -40.399 -52.460  12.543  1.00  0.00     0.703 A 
HETATM    8  N   UNL     1     -39.543 -52.534  13.611  1.00  0.00    -0.127 N 
HETATM    9  C   UNL     1     -38.598 -51.544  14.060  1.00  0.00     0.197 C 
HETATM   10  N   UNL     1     -39.480 -53.793  14.089  1.00  0.00    -0.280 N 
HETATM   11  C   UNL     1     -40.287 -54.442  13.255  1.00  0.00     0.215 A 
ATOM     12  HN  UNL     1     -38.950 -54.153  14.883  1.00  0.00     0.188 HD
HETATM   13  N   UNL     1     -40.854 -53.672  12.285  1.00  0.00    -0.185 N 
ATOM     14  HN  UNL     1     -41.483 -53.963  11.537  1.00  0.00     0.185 HD
ENDBRANCH   1   7
BRANCH   4  15
HETATM   15  C   UNL     1     -43.808 -50.347  13.558  1.00  0.00     0.090 C 
HETATM   16  C   UNL     1     -43.805 -50.034  15.064  1.00  0.00     0.051 C 
HETATM   17  C   UNL     1     -43.794 -51.319  15.894  1.00  0.00     0.170 C 
HETATM   18  O   UNL     1     -44.878 -52.176  15.532  1.00  0.00    -0.385 OA
HETATM   19  C   UNL     1     -44.797 -52.575  14.158  1.00  0.00     0.127 C 
HETATM   20  C   UNL     1     -44.941 -51.335  13.272  1.00  0.00     0.057 C 
BRANCH  19  21
HETATM   21  C   UNL     1     -45.838 -53.608  13.821  1.00  0.00     0.015 A 
HETATM   22  C   UNL     1     -46.369 -54.569  14.857  1.00  0.00     0.007 A 
HETATM   23  C   UNL     1     -45.523 -55.082  13.723  1.00  0.00     0.007 A 
ENDBRANCH  19  21
ENDBRANCH   4  15
TORSDOF 3
ENDMDL
MODEL 8
REMARK VINA RESULT:      -5.4      5.172      7.651
REMARK  3 active torsions:
REMARK  status: ('A' for Active; 'I' for Inactive)
REMARK    1  A    between atoms: C_8  and  N_9 
REMARK       I    between atoms: N_9  and  C_10 
REMARK       I    between atoms: C_10  and  N_12 
REMARK    2  A    between atoms: N_12  and  C_13 
REMARK    3  A    between atoms: C_17  and  C_19 
ROOT
HETATM    1  N   UNL     1     -43.471 -53.091  11.944  1.00  0.00    -0.140 N 
HETATM    2  C   UNL     1     -44.085 -53.788  12.955  1.00  0.00     0.334 C 
HETATM    3  O   UNL     1     -45.076 -54.466  12.716  1.00  0.00    -0.246 OA
HETATM    4  N   UNL     1     -43.419 -53.784  14.145  1.00  0.00    -0.338 N 
HETATM    5  H   UNL     1     -43.842 -53.271  11.022  1.00  0.00     0.189 HD
HETATM    6  H   UNL     1     -42.843 -52.958  14.285  1.00  0.00     0.164 HD
ENDROOT
BRANCH   1   7
HETATM    7  C   UNL     1     -42.339 -52.329  12.122  1.00  0.00     0.703 A 
HETATM    8  N   UNL     1     -42.308 -51.101  12.729  1.00  0.00    -0.127 N 
HETATM    9  C   UNL     1     -43.420 -50.252  13.072  1.00  0.00     0.197 C 
HETATM   10  N   UNL     1     -41.053 -50.610  12.755  1.00  0.00    -0.280 N 
HETATM   11  C   UNL     1     -40.374 -51.563  12.123  1.00  0.00     0.215 A 
ATOM     12  HN  UNL     1     -40.712 -49.736  13.154  1.00  0.00     0.188 HD
HETATM   13  N   UNL     1     -41.122 -52.621  11.703  1.00  0.00    -0.185 N 
ATOM     14  HN  UNL     1     -40.814 -53.445  11.187  1.00  0.00     0.185 HD
ENDBRANCH   1   7
BRANCH   4  15
HETATM   15  C   UNL     1     -43.631 -54.661  15.286  1.00  0.00     0.090 C 
HETATM   16  C   UNL     1     -43.908 -53.794  16.527  1.00  0.00     0.051 C 
HETATM   17  C   UNL     1     -42.640 -53.073  16.988  1.00  0.00     0.170 C 
HETATM   18  O   UNL     1     -41.574 -53.997  17.214  1.00  0.00    -0.385 OA
HETATM   19  C   UNL     1     -41.230 -54.704  16.015  1.00  0.00     0.127 C 
HETATM   20  C   UNL     1     -42.425 -55.556  15.581  1.00  0.00     0.057 C 
BRANCH  19  21
HETATM   21  C   UNL     1     -40.001 -55.551  16.208  1.00  0.00     0.015 A 
HETATM   22  C   UNL     1     -38.840 -55.086  17.054  1.00  0.00     0.007 A 
HETATM   23  C   UNL     1     -38.674 -55.223  15.565  1.00  0.00     0.007 A 
ENDBRANCH  19  21
ENDBRANCH   4  15
TORSDOF 3
ENDMDL
MODEL 9
REMARK VINA RESULT:      -5.3      3.512      5.825
REMARK  3 active torsions:
REMARK  status: ('A' for Active; 'I' for Inactive)
REMARK    1  A    between atoms: C_8  and  N_9 
REMARK       I    between atoms: N_9  and  C_10 
REMARK       I    between atoms: C_10  and  N_12 
REMARK    2  A    between atoms: N_12  and  C_13 
REMARK    3  A    between atoms: C_17  and  C_19 
ROOT
HETATM    1  N   UNL     1     -43.385 -52.921  12.126  1.00  0.00    -0.140 N 
HETATM    2  C   UNL     1     -42.201 -52.229  12.197  1.00  0.00     0.334 C 
HETATM    3  O   UNL     1     -41.220 -52.632  11.585  1.00  0.00    -0.246 OA
HETATM    4  N   UNL     1     -42.272 -51.030  12.842  1.00  0.00    -0.338 N 
HETATM    5  H   UNL     1     -43.385 -53.690  11.472  1.00  0.00     0.189 HD
HETATM    6  H   UNL     1     -43.003 -50.991  13.548  1.00  0.00     0.164 HD
ENDROOT
BRANCH   1   7
HETATM    7  C   UNL     1     -44.540 -52.522  12.759  1.00  0.00     0.703 A 
HETATM    8  N   UNL     1     -44.852 -52.795  14.065  1.00  0.00    -0.127 N 
HETATM    9  C   UNL     1     -44.208 -53.726  14.956  1.00  0.00     0.197 C 
HETATM   10  N   UNL     1     -46.049 -52.266  14.393  1.00  0.00    -0.280 N 
HETATM   11  C   UNL     1     -46.428 -51.717  13.243  1.00  0.00     0.215 A 
ATOM     12  HN  UNL     1     -46.535 -52.284  15.289  1.00  0.00     0.188 HD
HETATM   13  N   UNL     1     -45.547 -51.865  12.215  1.00  0.00    -0.185 N 
ATOM     14  HN  UNL     1     -45.643 -51.544  11.252  1.00  0.00     0.185 HD
ENDBRANCH   1   7
BRANCH   4  15
HETATM   15  C   UNL     1     -41.303 -49.945  12.814  1.00  0.00     0.090 C 
HETATM   16  C   UNL     1     -41.618 -48.974  13.964  1.00  0.00     0.051 C 
HETATM   17  C   UNL     1     -42.897 -48.183  13.682  1.00  0.00     0.170 C 
HETATM   18  O   UNL     1     -42.820 -47.509  12.424  1.00  0.00    -0.385 OA
HETATM   19  C   UNL     1     -42.664 -48.435  11.341  1.00  0.00     0.127 C 
HETATM   20  C   UNL     1     -41.326 -49.162  11.499  1.00  0.00     0.057 C 
BRANCH  19  21
HETATM   21  C   UNL     1     -42.753 -47.744  10.007  1.00  0.00     0.015 A 
HETATM   22  C   UNL     1     -43.204 -46.309   9.884  1.00  0.00     0.007 A 
HETATM   23  C   UNL     1     -44.069 -47.416   9.343  1.00  0.00     0.007 A 
ENDBRANCH  19  21
ENDBRANCH   4  15
TORSDOF 3
ENDMDL
