MODEL 1
REMARK VINA RESULT:      -5.4      0.000      0.000
REMARK  4 active torsions:
REMARK  status: ('A' for Active; 'I' for Inactive)
REMARK       I    between atoms: C_2  and  N_3 
REMARK    1  A    between atoms: C_2  and  C_12 
REMARK    2  A    between atoms: N_3  and  C_4 
REMARK    3  A    between atoms: C_4  and  C_5 
REMARK    4  A    between atoms: C_5  and  N_6 
ROOT
HETATM    1  O   UNL     1     -42.339 -49.593  14.584  1.00  0.00    -0.273 OA
HETATM    2  C   UNL     1     -43.193 -50.104  13.867  1.00  0.00     0.222 C 
HETATM    3  N   UNL     1     -43.315 -49.777  12.531  1.00  0.00    -0.359 N 
HETATM    4  H   UNL     1     -44.158 -50.055  12.044  1.00  0.00     0.162 HD
ENDROOT
BRANCH   3   5
HETATM    5  C   UNL     1     -42.488 -48.732  11.945  1.00  0.00     0.143 C 
BRANCH   5   6
HETATM    6  C   UNL     1     -43.276 -47.497  11.499  1.00  0.00     0.148 C 
BRANCH   6   7
HETATM    7  N   UNL     1     -43.678 -47.573  10.113  1.00  0.00    -0.350 N 
HETATM    8  C   UNL     1     -42.852 -47.696   9.034  1.00  0.00     0.108 A 
HETATM    9  C   UNL     1     -43.687 -47.672   7.943  1.00  0.00     0.106 A 
HETATM   10  N   UNL     1     -44.998 -47.544   8.340  1.00  0.00    -0.361 N 
HETATM   11  C   UNL     1     -44.957 -47.474   9.648  1.00  0.00     0.182 A 
ATOM     12  HN  UNL     1     -45.825 -47.512   7.744  1.00  0.00     0.166 HD
ENDBRANCH   6   7
ENDBRANCH   5   6
ENDBRANCH   3   5
BRANCH   2  13
HETATM   13  C   UNL     1     -44.243 -51.080  14.389  1.00  0.00     0.081 C 
HETATM   14  C   UNL     1     -45.330 -51.211  13.312  1.00  0.00     0.018 C 
HETATM   15  C   UNL     1     -46.709 -51.673  13.784  1.00  0.00     0.027 C 
HETATM   16  C   UNL     1     -46.990 -51.526  15.243  1.00  0.00    -0.031 C 
HETATM   17  C   UNL     1     -46.109 -51.045  16.131  1.00  0.00    -0.030 C 
HETATM   18  C   UNL     1     -44.739 -50.594  15.761  1.00  0.00     0.041 C 
ENDBRANCH   2  13
TORSDOF 4
ENDMDL
MODEL 2
REMARK VINA RESULT:      -5.3      4.156      5.066
REMARK  4 active torsions:
REMARK  status: ('A' for Active; 'I' for Inactive)
REMARK       I    between atoms: C_2  and  N_3 
REMARK    1  A    between atoms: C_2  and  C_12 
REMARK    2  A    between atoms: N_3  and  C_4 
REMARK    3  A    between atoms: C_4  and  C_5 
REMARK    4  A    between atoms: C_5  and  N_6 
ROOT
HETATM    1  O   UNL     1     -43.964 -55.716  14.872  1.00  0.00    -0.273 OA
HETATM    2  C   UNL     1     -44.078 -54.561  14.476  1.00  0.00     0.222 C 
HETATM    3  N   UNL     1     -42.978 -53.773  14.198  1.00  0.00    -0.359 N 
HETATM    4  H   UNL     1     -43.117 -52.777  14.087  1.00  0.00     0.162 HD
ENDROOT
BRANCH   3   5
HETATM    5  C   UNL     1     -41.631 -54.260  14.461  1.00  0.00     0.143 C 
BRANCH   5   6
HETATM    6  C   UNL     1     -40.708 -54.218  13.240  1.00  0.00     0.148 C 
BRANCH   6   7
HETATM    7  N   UNL     1     -40.545 -52.879  12.722  1.00  0.00    -0.350 N 
HETATM    8  C   UNL     1     -39.800 -51.879  13.276  1.00  0.00     0.108 A 
HETATM    9  C   UNL     1     -39.999 -50.793  12.459  1.00  0.00     0.106 A 
HETATM   10  N   UNL     1     -40.841 -51.116  11.420  1.00  0.00    -0.361 N 
HETATM   11  C   UNL     1     -41.162 -52.372  11.615  1.00  0.00     0.182 A 
ATOM     12  HN  UNL     1     -41.150 -50.509  10.661  1.00  0.00     0.166 HD
ENDBRANCH   6   7
ENDBRANCH   5   6
ENDBRANCH   3   5
BRANCH   2  13
HETATM   13  C   UNL     1     -45.424 -53.860  14.327  1.00  0.00     0.081 C 
HETATM   14  C   UNL     1     -45.370 -53.020  13.042  1.00  0.00     0.018 C 
HETATM   15  C   UNL     1     -46.340 -51.840  12.954  1.00  0.00     0.027 C 
HETATM   16  C   UNL     1     -46.909 -51.358  14.248  1.00  0.00    -0.031 C 
HETATM   17  C   UNL     1     -46.636 -51.907  15.439  1.00  0.00    -0.030 C 
HETATM   18  C   UNL     1     -45.722 -53.070  15.612  1.00  0.00     0.041 C 
ENDBRANCH   2  13
TORSDOF 4
ENDMDL
MODEL 3
REMARK VINA RESULT:      -5.2      3.952      5.003
REMARK  4 active torsions:
REMARK  status: ('A' for Active; 'I' for Inactive)
REMARK       I    between atoms: C_2  and  N_3 
REMARK    1  A    between atoms: C_2  and  C_12 
REMARK    2  A    between atoms: N_3  and  C_4 
REMARK    3  A    between atoms: C_4  and  C_5 
REMARK    4  A    between atoms: C_5  and  N_6 
ROOT
HETATM    1  O   UNL     1     -42.397 -54.139  13.504  1.00  0.00    -0.273 OA
HETATM    2  C   UNL     1     -43.165 -53.494  12.798  1.00  0.00     0.222 C 
HETATM    3  N   UNL     1     -42.708 -52.596  11.853  1.00  0.00    -0.359 N 
HETATM    4  H   UNL     1     -43.368 -51.940  11.456  1.00  0.00     0.162 HD
ENDROOT
BRANCH   3   5
HETATM    5  C   UNL     1     -41.286 -52.311  11.728  1.00  0.00     0.143 C 
BRANCH   5   6
HETATM    6  C   UNL     1     -40.904 -50.883  12.129  1.00  0.00     0.148 C 
BRANCH   6   7
HETATM    7  N   UNL     1     -39.477 -50.718  12.281  1.00  0.00    -0.350 N 
HETATM    8  C   UNL     1     -38.683 -51.326  13.209  1.00  0.00     0.108 A 
HETATM    9  C   UNL     1     -37.426 -50.817  12.991  1.00  0.00     0.106 A 
HETATM   10  N   UNL     1     -37.441 -49.921  11.947  1.00  0.00    -0.361 N 
HETATM   11  C   UNL     1     -38.690 -49.874  11.551  1.00  0.00     0.182 A 
ATOM     12  HN  UNL     1     -36.650 -49.405  11.563  1.00  0.00     0.166 HD
ENDBRANCH   6   7
ENDBRANCH   5   6
ENDBRANCH   3   5
BRANCH   2  13
HETATM   13  C   UNL     1     -44.682 -53.558  12.943  1.00  0.00     0.081 C 
HETATM   14  C   UNL     1     -45.176 -52.142  13.274  1.00  0.00     0.018 C 
HETATM   15  C   UNL     1     -46.527 -52.036  13.984  1.00  0.00     0.027 C 
HETATM   16  C   UNL     1     -47.010 -53.273  14.667  1.00  0.00    -0.031 C 
HETATM   17  C   UNL     1     -46.348 -54.438  14.666  1.00  0.00    -0.030 C 
HETATM   18  C   UNL     1     -45.040 -54.634  13.982  1.00  0.00     0.041 C 
ENDBRANCH   2  13
TORSDOF 4
ENDMDL
MODEL 4
REMARK VINA RESULT:      -5.2      3.249      3.969
REMARK  4 active torsions:
REMARK  status: ('A' for Active; 'I' for Inactive)
REMARK       I    between atoms: C_2  and  N_3 
REMARK    1  A    between atoms: C_2  and  C_12 
REMARK    2  A    between atoms: N_3  and  C_4 
REMARK    3  A    between atoms: C_4  and  C_5 
REMARK    4  A    between atoms: C_5  and  N_6 
ROOT
HETATM    1  O   UNL     1     -42.558 -54.303  13.328  1.00  0.00    -0.273 OA
HETATM    2  C   UNL     1     -43.282 -53.521  12.721  1.00  0.00     0.222 C 
HETATM    3  N   UNL     1     -42.768 -52.567  11.865  1.00  0.00    -0.359 N 
HETATM    4  H   UNL     1     -43.376 -51.816  11.562  1.00  0.00     0.162 HD
ENDROOT
BRANCH   3   5
HETATM    5  C   UNL     1     -41.329 -52.392  11.726  1.00  0.00     0.143 C 
BRANCH   5   6
HETATM    6  C   UNL     1     -40.733 -51.373  12.702  1.00  0.00     0.148 C 
BRANCH   6   7
HETATM    7  N   UNL     1     -40.566 -50.070  12.101  1.00  0.00    -0.350 N 
HETATM    8  C   UNL     1     -41.561 -49.207  11.743  1.00  0.00     0.108 A 
HETATM    9  C   UNL     1     -40.915 -48.138  11.170  1.00  0.00     0.106 A 
HETATM   10  N   UNL     1     -39.553 -48.333  11.181  1.00  0.00    -0.361 N 
HETATM   11  C   UNL     1     -39.377 -49.509  11.734  1.00  0.00     0.182 A 
ATOM     12  HN  UNL     1     -38.834 -47.699  10.834  1.00  0.00     0.166 HD
ENDBRANCH   6   7
ENDBRANCH   5   6
ENDBRANCH   3   5
BRANCH   2  13
HETATM   13  C   UNL     1     -44.795 -53.470  12.907  1.00  0.00     0.081 C 
HETATM   14  C   UNL     1     -45.178 -52.010  13.191  1.00  0.00     0.018 C 
HETATM   15  C   UNL     1     -46.498 -51.780  13.929  1.00  0.00     0.027 C 
HETATM   16  C   UNL     1     -47.048 -52.952  14.674  1.00  0.00    -0.031 C 
HETATM   17  C   UNL     1     -46.470 -54.160  14.706  1.00  0.00    -0.030 C 
HETATM   18  C   UNL     1     -45.199 -54.476  13.997  1.00  0.00     0.041 C 
ENDBRANCH   2  13
TORSDOF 4
ENDMDL
MODEL 5
REMARK VINA RESULT:      -5.2      3.210      3.759
REMARK  4 active torsions:
REMARK  status: ('A' for Active; 'I' for Inactive)
REMARK       I    between atoms: C_2  and  N_3 
REMARK    1  A    between atoms: C_2  and  C_12 
REMARK    2  A    between atoms: N_3  and  C_4 
REMARK    3  A    between atoms: C_4  and  C_5 
REMARK    4  A    between atoms: C_5  and  N_6 
ROOT
HETATM    1  O   UNL     1     -39.814 -52.775  13.059  1.00  0.00    -0.273 OA
HETATM    2  C   UNL     1     -40.933 -52.778  12.555  1.00  0.00     0.222 C 
HETATM    3  N   UNL     1     -41.377 -51.740  11.760  1.00  0.00    -0.359 N 
HETATM    4  H   UNL     1     -42.366 -51.685  11.551  1.00  0.00     0.162 HD
ENDROOT
BRANCH   3   5
HETATM    5  C   UNL     1     -40.560 -50.550  11.568  1.00  0.00     0.143 C 
BRANCH   5   6
HETATM    6  C   UNL     1     -41.064 -49.325  12.336  1.00  0.00     0.148 C 
BRANCH   6   7
HETATM    7  N   UNL     1     -41.109 -48.140  11.511  1.00  0.00    -0.350 N 
HETATM    8  C   UNL     1     -40.414 -46.983  11.712  1.00  0.00     0.108 A 
HETATM    9  C   UNL     1     -40.826 -46.142  10.707  1.00  0.00     0.106 A 
HETATM   10  N   UNL     1     -41.748 -46.766   9.901  1.00  0.00    -0.361 N 
HETATM   11  C   UNL     1     -41.907 -47.960  10.418  1.00  0.00     0.182 A 
ATOM     12  HN  UNL     1     -42.210 -46.383   9.076  1.00  0.00     0.166 HD
ENDBRANCH   6   7
ENDBRANCH   5   6
ENDBRANCH   3   5
BRANCH   2  13
HETATM   13  C   UNL     1     -41.961 -53.874  12.816  1.00  0.00     0.081 C 
HETATM   14  C   UNL     1     -43.339 -53.318  12.430  1.00  0.00     0.018 C 
HETATM   15  C   UNL     1     -44.553 -53.981  13.083  1.00  0.00     0.027 C 
HETATM   16  C   UNL     1     -44.285 -54.769  14.323  1.00  0.00    -0.031 C 
HETATM   17  C   UNL     1     -43.068 -54.935  14.858  1.00  0.00    -0.030 C 
HETATM   18  C   UNL     1     -41.832 -54.344  14.274  1.00  0.00     0.041 C 
ENDBRANCH   2  13
TORSDOF 4
ENDMDL
MODEL 6
REMARK VINA RESULT:      -5.2      1.388      1.990
REMARK  4 active torsions:
REMARK  status: ('A' for Active; 'I' for Inactive)
REMARK       I    between atoms: C_2  and  N_3 
REMARK    1  A    between atoms: C_2  and  C_12 
REMARK    2  A    between atoms: N_3  and  C_4 
REMARK    3  A    between atoms: C_4  and  C_5 
REMARK    4  A    between atoms: C_5  and  N_6 
ROOT
HETATM    1  O   UNL     1     -43.925 -49.986  14.710  1.00  0.00    -0.273 OA
HETATM    2  C   UNL     1     -44.120 -50.532  13.629  1.00  0.00     0.222 C 
HETATM    3  N   UNL     1     -43.440 -50.155  12.488  1.00  0.00    -0.359 N 
HETATM    4  H   UNL     1     -43.786 -50.479  11.593  1.00  0.00     0.162 HD
ENDROOT
BRANCH   3   5
HETATM    5  C   UNL     1     -42.530 -49.018  12.509  1.00  0.00     0.143 C 
BRANCH   5   6
HETATM    6  C   UNL     1     -43.166 -47.708  12.035  1.00  0.00     0.148 C 
BRANCH   6   7
HETATM    7  N   UNL     1     -43.349 -47.672  10.603  1.00  0.00    -0.350 N 
HETATM    8  C   UNL     1     -44.514 -47.418   9.939  1.00  0.00     0.108 A 
HETATM    9  C   UNL     1     -44.200 -47.548   8.608  1.00  0.00     0.106 A 
HETATM   10  N   UNL     1     -42.871 -47.867   8.453  1.00  0.00    -0.361 N 
HETATM   11  C   UNL     1     -42.391 -47.948   9.670  1.00  0.00     0.182 A 
ATOM     12  HN  UNL     1     -42.366 -48.010   7.578  1.00  0.00     0.166 HD
ENDBRANCH   6   7
ENDBRANCH   5   6
ENDBRANCH   3   5
BRANCH   2  13
HETATM   13  C   UNL     1     -45.173 -51.615  13.421  1.00  0.00     0.081 C 
HETATM   14  C   UNL     1     -46.188 -51.501  14.569  1.00  0.00     0.018 C 
HETATM   15  C   UNL     1     -46.997 -52.757  14.895  1.00  0.00     0.027 C 
HETATM   16  C   UNL     1     -46.437 -54.049  14.398  1.00  0.00    -0.031 C 
HETATM   17  C   UNL     1     -45.308 -54.152  13.683  1.00  0.00    -0.030 C 
HETATM   18  C   UNL     1     -44.473 -52.979  13.303  1.00  0.00     0.041 C 
ENDBRANCH   2  13
TORSDOF 4
ENDMDL
MODEL 7
REMARK VINA RESULT:      -5.0      4.724      5.511
REMARK  4 active torsions:
REMARK  status: ('A' for Active; 'I' for Inactive)
REMARK       I    between atoms: C_2  and  N_3 
REMARK    1  A    between atoms: C_2  and  C_12 
REMARK    2  A    between atoms: N_3  and  C_4 
REMARK    3  A    between atoms: C_4  and  C_5 
REMARK    4  A    between atoms: C_5  and  N_6 
ROOT
HETATM    1  O   UNL     1     -41.111 -54.090  15.713  1.00  0.00    -0.273 OA
HETATM    2  C   UNL     1     -41.195 -54.048  14.490  1.00  0.00     0.222 C 
HETATM    3  N   UNL     1     -40.172 -53.554  13.705  1.00  0.00    -0.359 N 
HETATM    4  H   UNL     1     -40.370 -53.340  12.736  1.00  0.00     0.162 HD
ENDROOT
BRANCH   3   5
HETATM    5  C   UNL     1     -38.985 -52.972  14.314  1.00  0.00     0.143 C 
BRANCH   5   6
HETATM    6  C   UNL     1     -38.966 -51.441  14.294  1.00  0.00     0.148 C 
BRANCH   6   7
HETATM    7  N   UNL     1     -38.586 -50.913  13.004  1.00  0.00    -0.350 N 
HETATM    8  C   UNL     1     -37.318 -50.812  12.510  1.00  0.00     0.108 A 
HETATM    9  C   UNL     1     -37.460 -50.206  11.285  1.00  0.00     0.106 A 
HETATM   10  N   UNL     1     -38.786 -49.945  11.026  1.00  0.00    -0.361 N 
HETATM   11  C   UNL     1     -39.434 -50.369  12.084  1.00  0.00     0.182 A 
ATOM     12  HN  UNL     1     -39.180 -49.514  10.190  1.00  0.00     0.166 HD
ENDBRANCH   6   7
ENDBRANCH   5   6
ENDBRANCH   3   5
BRANCH   2  13
HETATM   13  C   UNL     1     -42.451 -54.456  13.727  1.00  0.00     0.081 C 
HETATM   14  C   UNL     1     -42.876 -53.261  12.860  1.00  0.00     0.018 C 
HETATM   15  C   UNL     1     -44.346 -53.209  12.439  1.00  0.00     0.027 C 
HETATM   16  C   UNL     1     -45.291 -54.039  13.244  1.00  0.00    -0.031 C 
HETATM   17  C   UNL     1     -44.919 -54.818  14.269  1.00  0.00    -0.030 C 
HETATM   18  C   UNL     1     -43.509 -54.945  14.730  1.00  0.00     0.041 C 
ENDBRANCH   2  13
TORSDOF 4
ENDMDL
MODEL 8
REMARK VINA RESULT:      -5.0      3.980      4.658
REMARK  4 active torsions:
REMARK  status: ('A' for Active; 'I' for Inactive)
REMARK       I    between atoms: C_2  and  N_3 
REMARK    1  A    between atoms: C_2  and  C_12 
REMARK    2  A    between atoms: N_3  and  C_4 
REMARK    3  A    between atoms: C_4  and  C_5 
REMARK    4  A    between atoms: C_5  and  N_6 
ROOT
HETATM    1  O   UNL     1     -42.358 -52.056  12.147  1.00  0.00    -0.273 OA
HETATM    2  C   UNL     1     -42.567 -52.360  13.317  1.00  0.00     0.222 C 
HETATM    3  N   UNL     1     -41.538 -52.638  14.194  1.00  0.00    -0.359 N 
HETATM    4  H   UNL     1     -41.764 -53.088  15.072  1.00  0.00     0.162 HD
ENDROOT
BRANCH   3   5
HETATM    5  C   UNL     1     -40.158 -52.676  13.730  1.00  0.00     0.143 C 
BRANCH   5   6
HETATM    6  C   UNL     1     -39.373 -51.393  14.019  1.00  0.00     0.148 C 
BRANCH   6   7
HETATM    7  N   UNL     1     -38.784 -50.830  12.826  1.00  0.00    -0.350 N 
HETATM    8  C   UNL     1     -37.459 -50.829  12.498  1.00  0.00     0.108 A 
HETATM    9  C   UNL     1     -37.388 -50.139  11.312  1.00  0.00     0.106 A 
HETATM   10  N   UNL     1     -38.639 -49.730  10.913  1.00  0.00    -0.361 N 
HETATM   11  C   UNL     1     -39.454 -50.149  11.851  1.00  0.00     0.182 A 
ATOM     12  HN  UNL     1     -38.882 -49.212  10.069  1.00  0.00     0.166 HD
ENDBRANCH   6   7
ENDBRANCH   5   6
ENDBRANCH   3   5
BRANCH   2  13
HETATM   13  C   UNL     1     -43.969 -52.535  13.893  1.00  0.00     0.081 C 
HETATM   14  C   UNL     1     -44.945 -52.645  12.712  1.00  0.00     0.018 C 
HETATM   15  C   UNL     1     -46.405 -52.286  12.995  1.00  0.00     0.027 C 
HETATM   16  C   UNL     1     -46.656 -51.464  14.216  1.00  0.00    -0.031 C 
HETATM   17  C   UNL     1     -45.696 -51.059  15.059  1.00  0.00    -0.030 C 
HETATM   18  C   UNL     1     -44.255 -51.384  14.871  1.00  0.00     0.041 C 
ENDBRANCH   2  13
TORSDOF 4
ENDMDL
MODEL 9
REMARK VINA RESULT:      -4.7      3.372      4.854
REMARK  4 active torsions:
REMARK  status: ('A' for Active; 'I' for Inactive)
REMARK       I    between atoms: C_2  and  N_3 
REMARK    1  A    between atoms: C_2  and  C_12 
REMARK    2  A    between atoms: N_3  and  C_4 
REMARK    3  A    between atoms: C_4  and  C_5 
REMARK    4  A    between atoms: C_5  and  N_6 
ROOT
HETATM    1  O   UNL     1     -41.014 -52.123  11.847  1.00  0.00    -0.273 OA
HETATM    2  C   UNL     1     -41.951 -51.413  12.195  1.00  0.00     0.222 C 
HETATM    3  N   UNL     1     -42.033 -50.083  11.832  1.00  0.00    -0.359 N 
HETATM    4  H   UNL     1     -42.699 -49.493  12.315  1.00  0.00     0.162 HD
ENDROOT
BRANCH   3   5
HETATM    5  C   UNL     1     -40.948 -49.447  11.098  1.00  0.00     0.143 C 
BRANCH   5   6
HETATM    6  C   UNL     1     -39.949 -48.706  11.991  1.00  0.00     0.148 C 
BRANCH   6   7
HETATM    7  N   UNL     1     -38.902 -49.573  12.481  1.00  0.00    -0.350 N 
HETATM    8  C   UNL     1     -37.957 -50.209  11.730  1.00  0.00     0.108 A 
HETATM    9  C   UNL     1     -37.229 -50.950  12.629  1.00  0.00     0.106 A 
HETATM   10  N   UNL     1     -37.709 -50.771  13.906  1.00  0.00    -0.361 N 
HETATM   11  C   UNL     1     -38.723 -49.949  13.781  1.00  0.00     0.182 A 
ATOM     12  HN  UNL     1     -37.353 -51.188  14.766  1.00  0.00     0.166 HD
ENDBRANCH   6   7
ENDBRANCH   5   6
ENDBRANCH   3   5
BRANCH   2  13
HETATM   13  C   UNL     1     -43.067 -51.898  13.114  1.00  0.00     0.081 C 
HETATM   14  C   UNL     1     -43.659 -53.173  12.493  1.00  0.00     0.018 C 
HETATM   15  C   UNL     1     -45.088 -53.534  12.902  1.00  0.00     0.027 C 
HETATM   16  C   UNL     1     -45.905 -52.429  13.485  1.00  0.00    -0.031 C 
HETATM   17  C   UNL     1     -45.452 -51.183  13.681  1.00  0.00    -0.030 C 
HETATM   18  C   UNL     1     -44.069 -50.753  13.333  1.00  0.00     0.041 C 
ENDBRANCH   2  13
TORSDOF 4
ENDMDL
