MODEL 1
REMARK VINA RESULT:      -6.9      0.000      0.000
REMARK  4 active torsions:
REMARK  status: ('A' for Active; 'I' for Inactive)
REMARK       I    between atoms: C_2  and  N_3 
REMARK       I    between atoms: C_2  and  N_13 
REMARK    1  A    between atoms: N_3  and  C_4 
REMARK    2  A    between atoms: C_4  and  C_5 
REMARK    3  A    between atoms: C_5  and  C_6 
REMARK    4  A    between atoms: C_17  and  C_19 
REMARK       I    between atoms: C_19  and  N_21 
ROOT
HETATM    1  O   UNL     1     -38.841 -50.859  12.233  1.00  0.00    -0.247 OA
HETATM    2  C   UNL     1     -40.018 -51.054  12.522  1.00  0.00     0.318 C 
HETATM    3  N   UNL     1     -41.048 -50.340  11.954  1.00  0.00    -0.343 N 
HETATM    4  N   UNL     1     -40.441 -52.047  13.391  1.00  0.00    -0.333 N 
HETATM    5  C   UNL     1     -39.462 -53.006  13.894  1.00  0.00     0.127 C 
HETATM    6  C   UNL     1     -40.081 -54.402  13.949  1.00  0.00     0.021 C 
HETATM    7  C   UNL     1     -41.399 -54.421  14.738  1.00  0.00     0.017 C 
HETATM    8  C   UNL     1     -42.369 -53.343  14.233  1.00  0.00     0.096 C 
HETATM    9  C   UNL     1     -41.670 -51.976  14.184  1.00  0.00     0.141 C 
HETATM   10  H   UNL     1     -41.860 -50.917  11.792  1.00  0.00     0.164 HD
ENDROOT
BRANCH   3  11
HETATM   11  C   UNL     1     -40.762 -49.362  10.911  1.00  0.00     0.130 C 
BRANCH  11  12
HETATM   12  C   UNL     1     -41.515 -48.061  11.166  1.00  0.00     0.076 C 
BRANCH  12  13
HETATM   13  C   UNL     1     -42.670 -47.857  10.223  1.00  0.00     0.010 A 
HETATM   14  C   UNL     1     -43.943 -47.578  10.714  1.00  0.00     0.025 A 
HETATM   15  C   UNL     1     -45.000 -47.459   9.813  1.00  0.00     0.003 A 
HETATM   16  C   UNL     1     -44.757 -47.609   8.454  1.00  0.00     0.017 A 
HETATM   17  C   UNL     1     -43.457 -47.866   8.049  1.00  0.00     0.088 A 
HETATM   18  N   UNL     1     -42.414 -47.992   8.900  1.00  0.00    -0.369 N 
ATOM     19  HN  UNL     1     -41.472 -48.181   8.558  1.00  0.00     0.165 HD
ENDBRANCH  12  13
ENDBRANCH  11  12
ENDBRANCH   3  11
BRANCH   8  20
HETATM   20  C   UNL     1     -43.594 -53.206  15.133  1.00  0.00     0.225 C 
HETATM   21  O   UNL     1     -43.447 -52.988  16.339  1.00  0.00    -0.273 OA
HETATM   22  N   UNL     1     -44.858 -53.314  14.582  1.00  0.00    -0.348 N 
HETATM   23  C   UNL     1     -45.194 -53.564  13.178  1.00  0.00     0.152 C 
HETATM   24  C   UNL     1     -46.001 -52.798  15.346  1.00  0.00     0.152 C 
HETATM   25  C   UNL     1     -45.762 -52.286  12.545  1.00  0.00     0.187 C 
HETATM   26  O   UNL     1     -46.893 -51.803  13.289  1.00  0.00    -0.388 OA
HETATM   27  C   UNL     1     -46.544 -51.536  14.660  1.00  0.00     0.187 C 
ENDBRANCH   8  20
TORSDOF 4
ENDMDL
MODEL 2
REMARK VINA RESULT:      -6.7      2.278      6.431
REMARK  4 active torsions:
REMARK  status: ('A' for Active; 'I' for Inactive)
REMARK       I    between atoms: C_2  and  N_3 
REMARK       I    between atoms: C_2  and  N_13 
REMARK    1  A    between atoms: N_3  and  C_4 
REMARK    2  A    between atoms: C_4  and  C_5 
REMARK    3  A    between atoms: C_5  and  C_6 
REMARK    4  A    between atoms: C_17  and  C_19 
REMARK       I    between atoms: C_19  and  N_21 
ROOT
HETATM    1  O   UNL     1     -44.366 -54.444  12.570  1.00  0.00    -0.247 OA
HETATM    2  C   UNL     1     -43.889 -53.314  12.536  1.00  0.00     0.318 C 
HETATM    3  N   UNL     1     -44.665 -52.186  12.394  1.00  0.00    -0.343 N 
HETATM    4  N   UNL     1     -42.540 -53.045  12.704  1.00  0.00    -0.333 N 
HETATM    5  C   UNL     1     -41.645 -54.136  13.074  1.00  0.00     0.127 C 
HETATM    6  C   UNL     1     -40.612 -53.644  14.087  1.00  0.00     0.021 C 
HETATM    7  C   UNL     1     -39.864 -52.397  13.592  1.00  0.00     0.017 C 
HETATM    8  C   UNL     1     -40.840 -51.303  13.134  1.00  0.00     0.096 C 
HETATM    9  C   UNL     1     -41.858 -51.878  12.139  1.00  0.00     0.141 C 
HETATM   10  H   UNL     1     -44.312 -51.416  12.941  1.00  0.00     0.164 HD
ENDROOT
BRANCH   3  11
HETATM   11  C   UNL     1     -46.117 -52.308  12.354  1.00  0.00     0.130 C 
BRANCH  11  12
HETATM   12  C   UNL     1     -46.761 -51.495  13.471  1.00  0.00     0.076 C 
BRANCH  12  13
HETATM   13  C   UNL     1     -46.538 -52.091  14.835  1.00  0.00     0.010 A 
HETATM   14  C   UNL     1     -46.475 -51.275  15.962  1.00  0.00     0.025 A 
HETATM   15  C   UNL     1     -46.203 -51.856  17.198  1.00  0.00     0.003 A 
HETATM   16  C   UNL     1     -46.013 -53.230  17.278  1.00  0.00     0.017 A 
HETATM   17  C   UNL     1     -46.113 -53.970  16.112  1.00  0.00     0.088 A 
HETATM   18  N   UNL     1     -46.370 -53.433  14.899  1.00  0.00    -0.369 N 
ATOM     19  HN  UNL     1     -46.436 -54.016  14.064  1.00  0.00     0.165 HD
ENDBRANCH  12  13
ENDBRANCH  11  12
ENDBRANCH   3  11
BRANCH   8  20
HETATM   20  C   UNL     1     -40.123 -50.144  12.447  1.00  0.00     0.225 C 
HETATM   21  O   UNL     1     -39.123 -50.365  11.758  1.00  0.00    -0.273 OA
HETATM   22  N   UNL     1     -40.613 -48.859  12.594  1.00  0.00    -0.348 N 
HETATM   23  C   UNL     1     -41.784 -48.440  13.369  1.00  0.00     0.152 C 
HETATM   24  C   UNL     1     -40.178 -47.831  11.639  1.00  0.00     0.152 C 
HETATM   25  C   UNL     1     -42.920 -48.042  12.417  1.00  0.00     0.187 C 
HETATM   26  O   UNL     1     -42.490 -47.020  11.501  1.00  0.00    -0.388 OA
HETATM   27  C   UNL     1     -41.355 -47.453  10.728  1.00  0.00     0.187 C 
ENDBRANCH   8  20
TORSDOF 4
ENDMDL
MODEL 3
REMARK VINA RESULT:      -6.7      2.599      6.235
REMARK  4 active torsions:
REMARK  status: ('A' for Active; 'I' for Inactive)
REMARK       I    between atoms: C_2  and  N_3 
REMARK       I    between atoms: C_2  and  N_13 
REMARK    1  A    between atoms: N_3  and  C_4 
REMARK    2  A    between atoms: C_4  and  C_5 
REMARK    3  A    between atoms: C_5  and  C_6 
REMARK    4  A    between atoms: C_17  and  C_19 
REMARK       I    between atoms: C_19  and  N_21 
ROOT
HETATM    1  O   UNL     1     -39.057 -51.958  12.712  1.00  0.00    -0.247 OA
HETATM    2  C   UNL     1     -39.788 -51.012  12.432  1.00  0.00     0.318 C 
HETATM    3  N   UNL     1     -41.092 -51.181  12.024  1.00  0.00    -0.343 N 
HETATM    4  N   UNL     1     -39.410 -49.686  12.557  1.00  0.00    -0.333 N 
HETATM    5  C   UNL     1     -38.128 -49.375  13.181  1.00  0.00     0.127 C 
HETATM    6  C   UNL     1     -38.266 -48.142  14.074  1.00  0.00     0.021 C 
HETATM    7  C   UNL     1     -38.873 -46.948  13.322  1.00  0.00     0.017 C 
HETATM    8  C   UNL     1     -40.178 -47.337  12.611  1.00  0.00     0.096 C 
HETATM    9  C   UNL     1     -39.965 -48.593  11.755  1.00  0.00     0.141 C 
HETATM   10  H   UNL     1     -41.695 -50.459  12.389  1.00  0.00     0.164 HD
ENDROOT
BRANCH   3  11
HETATM   11  C   UNL     1     -41.672 -52.518  11.987  1.00  0.00     0.130 C 
BRANCH  11  12
HETATM   12  C   UNL     1     -42.400 -52.830  13.289  1.00  0.00     0.076 C 
BRANCH  12  13
HETATM   13  C   UNL     1     -43.825 -52.346  13.297  1.00  0.00     0.010 A 
HETATM   14  C   UNL     1     -44.308 -51.584  14.359  1.00  0.00     0.025 A 
HETATM   15  C   UNL     1     -45.649 -51.209  14.361  1.00  0.00     0.003 A 
HETATM   16  C   UNL     1     -46.466 -51.592  13.305  1.00  0.00     0.017 A 
HETATM   17  C   UNL     1     -45.901 -52.331  12.280  1.00  0.00     0.088 A 
HETATM   18  N   UNL     1     -44.605 -52.714  12.253  1.00  0.00    -0.369 N 
ATOM     19  HN  UNL     1     -44.229 -53.259  11.477  1.00  0.00     0.165 HD
ENDBRANCH  12  13
ENDBRANCH  11  12
ENDBRANCH   3  11
BRANCH   8  20
HETATM   20  C   UNL     1     -40.684 -46.229  11.692  1.00  0.00     0.225 C 
HETATM   21  O   UNL     1     -39.878 -45.465  11.153  1.00  0.00    -0.273 OA
HETATM   22  N   UNL     1     -42.042 -46.104  11.463  1.00  0.00    -0.348 N 
HETATM   23  C   UNL     1     -43.115 -46.930  12.022  1.00  0.00     0.152 C 
HETATM   24  C   UNL     1     -42.486 -45.321  10.302  1.00  0.00     0.152 C 
HETATM   25  C   UNL     1     -43.697 -47.833  10.926  1.00  0.00     0.187 C 
HETATM   26  O   UNL     1     -44.149 -47.055   9.804  1.00  0.00    -0.388 OA
HETATM   27  C   UNL     1     -43.079 -46.267   9.248  1.00  0.00     0.187 C 
ENDBRANCH   8  20
TORSDOF 4
ENDMDL
MODEL 4
REMARK VINA RESULT:      -6.7      3.487      6.325
REMARK  4 active torsions:
REMARK  status: ('A' for Active; 'I' for Inactive)
REMARK       I    between atoms: C_2  and  N_3 
REMARK       I    between atoms: C_2  and  N_13 
REMARK    1  A    between atoms: N_3  and  C_4 
REMARK    2  A    between atoms: C_4  and  C_5 
REMARK    3  A    between atoms: C_5  and  C_6 
REMARK    4  A    between atoms: C_17  and  C_19 
REMARK       I    between atoms: C_19  and  N_21 
ROOT
HETATM    1  O   UNL     1     -44.979 -55.293  14.407  1.00  0.00    -0.247 OA
HETATM    2  C   UNL     1     -44.064 -54.517  14.144  1.00  0.00     0.318 C 
HETATM    3  N   UNL     1     -44.242 -53.402  13.358  1.00  0.00    -0.343 N 
HETATM    4  N   UNL     1     -42.784 -54.638  14.659  1.00  0.00    -0.333 N 
HETATM    5  C   UNL     1     -42.526 -55.656  15.672  1.00  0.00     0.127 C 
HETATM    6  C   UNL     1     -41.577 -55.105  16.736  1.00  0.00     0.021 C 
HETATM    7  C   UNL     1     -40.292 -54.529  16.124  1.00  0.00     0.017 C 
HETATM    8  C   UNL     1     -40.605 -53.524  15.005  1.00  0.00     0.096 C 
HETATM    9  C   UNL     1     -41.579 -54.141  13.991  1.00  0.00     0.141 C 
HETATM   10  H   UNL     1     -43.694 -52.621  13.685  1.00  0.00     0.164 HD
ENDROOT
BRANCH   3  11
HETATM   11  C   UNL     1     -45.573 -53.067  12.866  1.00  0.00     0.130 C 
BRANCH  11  12
HETATM   12  C   UNL     1     -45.909 -51.609  13.157  1.00  0.00     0.076 C 
BRANCH  12  13
HETATM   13  C   UNL     1     -46.026 -51.315  14.628  1.00  0.00     0.010 A 
HETATM   14  C   UNL     1     -47.205 -51.598  15.314  1.00  0.00     0.025 A 
HETATM   15  C   UNL     1     -47.298 -51.252  16.661  1.00  0.00     0.003 A 
HETATM   16  C   UNL     1     -46.215 -50.647  17.285  1.00  0.00     0.017 A 
HETATM   17  C   UNL     1     -45.074 -50.420  16.535  1.00  0.00     0.088 A 
HETATM   18  N   UNL     1     -44.956 -50.739  15.227  1.00  0.00    -0.369 N 
ATOM     19  HN  UNL     1     -44.096 -50.555  14.711  1.00  0.00     0.165 HD
ENDBRANCH  12  13
ENDBRANCH  11  12
ENDBRANCH   3  11
BRANCH   8  20
HETATM   20  C   UNL     1     -39.351 -53.099  14.246  1.00  0.00     0.225 C 
HETATM   21  O   UNL     1     -38.725 -53.931  13.585  1.00  0.00    -0.273 OA
HETATM   22  N   UNL     1     -38.940 -51.780  14.298  1.00  0.00    -0.348 N 
HETATM   23  C   UNL     1     -39.576 -50.681  15.030  1.00  0.00     0.152 C 
HETATM   24  C   UNL     1     -37.998 -51.300  13.278  1.00  0.00     0.152 C 
HETATM   25  C   UNL     1     -40.258 -49.726  14.040  1.00  0.00     0.187 C 
HETATM   26  O   UNL     1     -39.322 -49.246  13.060  1.00  0.00    -0.388 OA
HETATM   27  C   UNL     1     -38.723 -50.334  12.331  1.00  0.00     0.187 C 
ENDBRANCH   8  20
TORSDOF 4
ENDMDL
MODEL 5
REMARK VINA RESULT:      -6.5      2.855      7.122
REMARK  4 active torsions:
REMARK  status: ('A' for Active; 'I' for Inactive)
REMARK       I    between atoms: C_2  and  N_3 
REMARK       I    between atoms: C_2  and  N_13 
REMARK    1  A    between atoms: N_3  and  C_4 
REMARK    2  A    between atoms: C_4  and  C_5 
REMARK    3  A    between atoms: C_5  and  C_6 
REMARK    4  A    between atoms: C_17  and  C_19 
REMARK       I    between atoms: C_19  and  N_21 
ROOT
HETATM    1  O   UNL     1     -38.567 -51.879  12.891  1.00  0.00    -0.247 OA
HETATM    2  C   UNL     1     -39.342 -51.015  12.490  1.00  0.00     0.318 C 
HETATM    3  N   UNL     1     -40.539 -51.319  11.883  1.00  0.00    -0.343 N 
HETATM    4  N   UNL     1     -39.133 -49.657  12.662  1.00  0.00    -0.333 N 
HETATM    5  C   UNL     1     -38.006 -49.216  13.477  1.00  0.00     0.127 C 
HETATM    6  C   UNL     1     -38.414 -48.012  14.325  1.00  0.00     0.021 C 
HETATM    7  C   UNL     1     -39.018 -46.883  13.476  1.00  0.00     0.017 C 
HETATM    8  C   UNL     1     -40.145 -47.404  12.571  1.00  0.00     0.096 C 
HETATM    9  C   UNL     1     -39.666 -48.624  11.771  1.00  0.00     0.141 C 
HETATM   10  H   UNL     1     -41.266 -50.669  12.141  1.00  0.00     0.164 HD
ENDROOT
BRANCH   3  11
HETATM   11  C   UNL     1     -40.960 -52.710  11.767  1.00  0.00     0.130 C 
BRANCH  11  12
HETATM   12  C   UNL     1     -42.205 -52.972  12.605  1.00  0.00     0.076 C 
BRANCH  12  13
HETATM   13  C   UNL     1     -41.938 -53.853  13.796  1.00  0.00     0.010 A 
HETATM   14  C   UNL     1     -42.971 -54.575  14.389  1.00  0.00     0.025 A 
HETATM   15  C   UNL     1     -42.697 -55.328  15.529  1.00  0.00     0.003 A 
HETATM   16  C   UNL     1     -41.404 -55.351  16.036  1.00  0.00     0.017 A 
HETATM   17  C   UNL     1     -40.431 -54.621  15.373  1.00  0.00     0.088 A 
HETATM   18  N   UNL     1     -40.669 -53.877  14.270  1.00  0.00    -0.369 N 
ATOM     19  HN  UNL     1     -39.922 -53.355  13.812  1.00  0.00     0.165 HD
ENDBRANCH  12  13
ENDBRANCH  11  12
ENDBRANCH   3  11
BRANCH   8  20
HETATM   20  C   UNL     1     -40.615 -46.349  11.574  1.00  0.00     0.225 C 
HETATM   21  O   UNL     1     -39.784 -45.681  10.953  1.00  0.00    -0.273 OA
HETATM   22  N   UNL     1     -41.970 -46.165  11.367  1.00  0.00    -0.348 N 
HETATM   23  C   UNL     1     -43.071 -46.878  12.019  1.00  0.00     0.152 C 
HETATM   24  C   UNL     1     -42.403 -45.458  10.155  1.00  0.00     0.152 C 
HETATM   25  C   UNL     1     -43.734 -47.835  11.018  1.00  0.00     0.187 C 
HETATM   26  O   UNL     1     -44.173 -47.128   9.845  1.00  0.00    -0.388 OA
HETATM   27  C   UNL     1     -43.077 -46.453   9.199  1.00  0.00     0.187 C 
ENDBRANCH   8  20
TORSDOF 4
ENDMDL
MODEL 6
REMARK VINA RESULT:      -6.4      1.676      2.411
REMARK  4 active torsions:
REMARK  status: ('A' for Active; 'I' for Inactive)
REMARK       I    between atoms: C_2  and  N_3 
REMARK       I    between atoms: C_2  and  N_13 
REMARK    1  A    between atoms: N_3  and  C_4 
REMARK    2  A    between atoms: C_4  and  C_5 
REMARK    3  A    between atoms: C_5  and  C_6 
REMARK    4  A    between atoms: C_17  and  C_19 
REMARK       I    between atoms: C_19  and  N_21 
ROOT
HETATM    1  O   UNL     1     -38.475 -51.125  12.378  1.00  0.00    -0.247 OA
HETATM    2  C   UNL     1     -39.656 -51.310  12.657  1.00  0.00     0.318 C 
HETATM    3  N   UNL     1     -40.679 -50.627  12.040  1.00  0.00    -0.343 N 
HETATM    4  N   UNL     1     -40.090 -52.263  13.565  1.00  0.00    -0.333 N 
HETATM    5  C   UNL     1     -39.117 -53.195  14.126  1.00  0.00     0.127 C 
HETATM    6  C   UNL     1     -39.733 -54.589  14.236  1.00  0.00     0.021 C 
HETATM    7  C   UNL     1     -41.063 -54.576  15.004  1.00  0.00     0.017 C 
HETATM    8  C   UNL     1     -42.028 -53.526  14.434  1.00  0.00     0.096 C 
HETATM    9  C   UNL     1     -41.332 -52.161  14.333  1.00  0.00     0.141 C 
HETATM   10  H   UNL     1     -41.487 -51.213  11.892  1.00  0.00     0.164 HD
ENDROOT
BRANCH   3  11
HETATM   11  C   UNL     1     -40.379 -49.697  10.958  1.00  0.00     0.130 C 
BRANCH  11  12
HETATM   12  C   UNL     1     -41.354 -48.525  10.963  1.00  0.00     0.076 C 
BRANCH  12  13
HETATM   13  C   UNL     1     -40.686 -47.206  11.244  1.00  0.00     0.010 A 
HETATM   14  C   UNL     1     -40.287 -46.876  12.537  1.00  0.00     0.025 A 
HETATM   15  C   UNL     1     -39.732 -45.620  12.769  1.00  0.00     0.003 A 
HETATM   16  C   UNL     1     -39.578 -44.736  11.709  1.00  0.00     0.017 A 
HETATM   17  C   UNL     1     -39.982 -45.152  10.451  1.00  0.00     0.088 A 
HETATM   18  N   UNL     1     -40.529 -46.361  10.197  1.00  0.00    -0.369 N 
ATOM     19  HN  UNL     1     -40.813 -46.627   9.254  1.00  0.00     0.165 HD
ENDBRANCH  12  13
ENDBRANCH  11  12
ENDBRANCH   3  11
BRANCH   8  20
HETATM   20  C   UNL     1     -43.268 -53.352  15.307  1.00  0.00     0.225 C 
HETATM   21  O   UNL     1     -43.143 -53.021  16.489  1.00  0.00    -0.273 OA
HETATM   22  N   UNL     1     -44.520 -53.554  14.756  1.00  0.00    -0.348 N 
HETATM   23  C   UNL     1     -44.831 -53.942  13.378  1.00  0.00     0.152 C 
HETATM   24  C   UNL     1     -45.690 -53.012  15.461  1.00  0.00     0.152 C 
HETATM   25  C   UNL     1     -45.434 -52.746  12.627  1.00  0.00     0.187 C 
HETATM   26  O   UNL     1     -46.591 -52.238  13.314  1.00  0.00    -0.388 OA
HETATM   27  C   UNL     1     -46.268 -51.837  14.659  1.00  0.00     0.187 C 
ENDBRANCH   8  20
TORSDOF 4
ENDMDL
MODEL 7
REMARK VINA RESULT:      -6.4      1.822      2.394
REMARK  4 active torsions:
REMARK  status: ('A' for Active; 'I' for Inactive)
REMARK       I    between atoms: C_2  and  N_3 
REMARK       I    between atoms: C_2  and  N_13 
REMARK    1  A    between atoms: N_3  and  C_4 
REMARK    2  A    between atoms: C_4  and  C_5 
REMARK    3  A    between atoms: C_5  and  C_6 
REMARK    4  A    between atoms: C_17  and  C_19 
REMARK       I    between atoms: C_19  and  N_21 
ROOT
HETATM    1  O   UNL     1     -39.702 -50.117  11.876  1.00  0.00    -0.247 OA
HETATM    2  C   UNL     1     -40.816 -50.502  12.219  1.00  0.00     0.318 C 
HETATM    3  N   UNL     1     -41.973 -49.879  11.808  1.00  0.00    -0.343 N 
HETATM    4  N   UNL     1     -41.034 -51.630  12.992  1.00  0.00    -0.333 N 
HETATM    5  C   UNL     1     -39.902 -52.494  13.312  1.00  0.00     0.127 C 
HETATM    6  C   UNL     1     -40.329 -53.960  13.244  1.00  0.00     0.021 C 
HETATM    7  C   UNL     1     -41.564 -54.245  14.112  1.00  0.00     0.017 C 
HETATM    8  C   UNL     1     -42.704 -53.262  13.803  1.00  0.00     0.096 C 
HETATM    9  C   UNL     1     -42.193 -51.815  13.868  1.00  0.00     0.141 C 
HETATM   10  H   UNL     1     -42.714 -50.541  11.635  1.00  0.00     0.164 HD
ENDROOT
BRANCH   3  11
HETATM   11  C   UNL     1     -41.902 -48.765  10.871  1.00  0.00     0.130 C 
BRANCH  11  12
HETATM   12  C   UNL     1     -42.756 -47.597  11.350  1.00  0.00     0.076 C 
BRANCH  12  13
HETATM   13  C   UNL     1     -42.055 -46.271  11.236  1.00  0.00     0.010 A 
HETATM   14  C   UNL     1     -40.743 -46.201  10.773  1.00  0.00     0.025 A 
HETATM   15  C   UNL     1     -40.106 -44.962  10.743  1.00  0.00     0.003 A 
HETATM   16  C   UNL     1     -40.794 -43.832  11.164  1.00  0.00     0.017 A 
HETATM   17  C   UNL     1     -42.102 -43.986  11.591  1.00  0.00     0.088 A 
HETATM   18  N   UNL     1     -42.744 -45.175  11.636  1.00  0.00    -0.369 N 
ATOM     19  HN  UNL     1     -43.709 -45.244  11.958  1.00  0.00     0.165 HD
ENDBRANCH  12  13
ENDBRANCH  11  12
ENDBRANCH   3  11
BRANCH   8  20
HETATM   20  C   UNL     1     -43.858 -53.391  14.793  1.00  0.00     0.225 C 
HETATM   21  O   UNL     1     -43.622 -53.630  15.981  1.00  0.00    -0.273 OA
HETATM   22  N   UNL     1     -45.157 -53.225  14.348  1.00  0.00    -0.348 N 
HETATM   23  C   UNL     1     -45.595 -52.936  12.981  1.00  0.00     0.152 C 
HETATM   24  C   UNL     1     -46.207 -52.958  15.340  1.00  0.00     0.152 C 
HETATM   25  C   UNL     1     -46.094 -51.487  12.892  1.00  0.00     0.187 C 
HETATM   26  O   UNL     1     -47.137 -51.243  13.852  1.00  0.00    -0.388 OA
HETATM   27  C   UNL     1     -46.686 -51.506  15.194  1.00  0.00     0.187 C 
ENDBRANCH   8  20
TORSDOF 4
ENDMDL
MODEL 8
REMARK VINA RESULT:      -6.2      3.332      6.628
REMARK  4 active torsions:
REMARK  status: ('A' for Active; 'I' for Inactive)
REMARK       I    between atoms: C_2  and  N_3 
REMARK       I    between atoms: C_2  and  N_13 
REMARK    1  A    between atoms: N_3  and  C_4 
REMARK    2  A    between atoms: C_4  and  C_5 
REMARK    3  A    between atoms: C_5  and  C_6 
REMARK    4  A    between atoms: C_17  and  C_19 
REMARK       I    between atoms: C_19  and  N_21 
ROOT
HETATM    1  O   UNL     1     -39.310 -52.308  12.855  1.00  0.00    -0.247 OA
HETATM    2  C   UNL     1     -39.870 -51.233  12.662  1.00  0.00     0.318 C 
HETATM    3  N   UNL     1     -41.181 -51.144  12.254  1.00  0.00    -0.343 N 
HETATM    4  N   UNL     1     -39.274 -50.005  12.897  1.00  0.00    -0.333 N 
HETATM    5  C   UNL     1     -37.961 -49.969  13.533  1.00  0.00     0.127 C 
HETATM    6  C   UNL     1     -37.894 -48.811  14.528  1.00  0.00     0.021 C 
HETATM    7  C   UNL     1     -38.287 -47.472  13.887  1.00  0.00     0.017 C 
HETATM    8  C   UNL     1     -39.634 -47.574  13.157  1.00  0.00     0.096 C 
HETATM    9  C   UNL     1     -39.632 -48.770  12.195  1.00  0.00     0.141 C 
HETATM   10  H   UNL     1     -41.656 -50.365  12.684  1.00  0.00     0.164 HD
ENDROOT
BRANCH   3  11
HETATM   11  C   UNL     1     -41.978 -52.356  12.108  1.00  0.00     0.130 C 
BRANCH  11  12
HETATM   12  C   UNL     1     -42.692 -52.696  13.411  1.00  0.00     0.076 C 
BRANCH  12  13
HETATM   13  C   UNL     1     -44.137 -52.273  13.417  1.00  0.00     0.010 A 
HETATM   14  C   UNL     1     -44.671 -51.595  14.509  1.00  0.00     0.025 A 
HETATM   15  C   UNL     1     -46.027 -51.277  14.506  1.00  0.00     0.003 A 
HETATM   16  C   UNL     1     -46.808 -51.633  13.413  1.00  0.00     0.017 A 
HETATM   17  C   UNL     1     -46.193 -52.288  12.359  1.00  0.00     0.088 A 
HETATM   18  N   UNL     1     -44.881 -52.614  12.338  1.00  0.00    -0.369 N 
ATOM     19  HN  UNL     1     -44.468 -53.097  11.540  1.00  0.00     0.165 HD
ENDBRANCH  12  13
ENDBRANCH  11  12
ENDBRANCH   3  11
BRANCH   8  20
HETATM   20  C   UNL     1     -39.941 -46.322  12.340  1.00  0.00     0.225 C 
HETATM   21  O   UNL     1     -39.674 -46.295  11.136  1.00  0.00    -0.273 OA
HETATM   22  N   UNL     1     -40.530 -45.234  12.960  1.00  0.00    -0.348 N 
HETATM   23  C   UNL     1     -40.909 -45.114  14.370  1.00  0.00     0.152 C 
HETATM   24  C   UNL     1     -41.174 -44.215  12.120  1.00  0.00     0.152 C 
HETATM   25  C   UNL     1     -42.438 -45.163  14.501  1.00  0.00     0.187 C 
HETATM   26  O   UNL     1     -43.056 -44.147  13.692  1.00  0.00    -0.388 OA
HETATM   27  C   UNL     1     -42.696 -44.291  12.305  1.00  0.00     0.187 C 
ENDBRANCH   8  20
TORSDOF 4
ENDMDL
MODEL 9
REMARK VINA RESULT:      -6.1      2.370      6.114
REMARK  4 active torsions:
REMARK  status: ('A' for Active; 'I' for Inactive)
REMARK       I    between atoms: C_2  and  N_3 
REMARK       I    between atoms: C_2  and  N_13 
REMARK    1  A    between atoms: N_3  and  C_4 
REMARK    2  A    between atoms: C_4  and  C_5 
REMARK    3  A    between atoms: C_5  and  C_6 
REMARK    4  A    between atoms: C_17  and  C_19 
REMARK       I    between atoms: C_19  and  N_21 
ROOT
HETATM    1  O   UNL     1     -40.257 -54.207  14.889  1.00  0.00    -0.247 OA
HETATM    2  C   UNL     1     -40.539 -53.198  14.248  1.00  0.00     0.318 C 
HETATM    3  N   UNL     1     -41.698 -53.087  13.514  1.00  0.00    -0.343 N 
HETATM    4  N   UNL     1     -39.764 -52.050  14.244  1.00  0.00    -0.333 N 
HETATM    5  C   UNL     1     -38.623 -51.967  15.150  1.00  0.00     0.127 C 
HETATM    6  C   UNL     1     -38.520 -50.559  15.735  1.00  0.00     0.021 C 
HETATM    7  C   UNL     1     -38.499 -49.479  14.643  1.00  0.00     0.017 C 
HETATM    8  C   UNL     1     -39.669 -49.650  13.662  1.00  0.00     0.096 C 
HETATM    9  C   UNL     1     -39.719 -51.092  13.138  1.00  0.00     0.141 C 
HETATM   10  H   UNL     1     -42.080 -52.155  13.555  1.00  0.00     0.164 HD
ENDROOT
BRANCH   3  11
HETATM   11  C   UNL     1     -42.679 -54.165  13.543  1.00  0.00     0.130 C 
BRANCH  11  12
HETATM   12  C   UNL     1     -43.867 -53.842  12.644  1.00  0.00     0.076 C 
BRANCH  12  13
HETATM   13  C   UNL     1     -44.950 -53.075  13.354  1.00  0.00     0.010 A 
HETATM   14  C   UNL     1     -45.880 -52.332  12.631  1.00  0.00     0.025 A 
HETATM   15  C   UNL     1     -46.827 -51.583  13.326  1.00  0.00     0.003 A 
HETATM   16  C   UNL     1     -46.829 -51.605  14.714  1.00  0.00     0.017 A 
HETATM   17  C   UNL     1     -45.881 -52.386  15.354  1.00  0.00     0.088 A 
HETATM   18  N   UNL     1     -44.947 -53.118  14.708  1.00  0.00    -0.369 N 
ATOM     19  HN  UNL     1     -44.268 -53.681  15.219  1.00  0.00     0.165 HD
ENDBRANCH  12  13
ENDBRANCH  11  12
ENDBRANCH   3  11
BRANCH   8  20
HETATM   20  C   UNL     1     -39.548 -48.721  12.457  1.00  0.00     0.225 C 
HETATM   21  O   UNL     1     -38.683 -48.934  11.604  1.00  0.00    -0.273 OA
HETATM   22  N   UNL     1     -40.423 -47.657  12.330  1.00  0.00    -0.348 N 
HETATM   23  C   UNL     1     -41.498 -47.278  13.250  1.00  0.00     0.152 C 
HETATM   24  C   UNL     1     -40.565 -47.023  11.013  1.00  0.00     0.152 C 
HETATM   25  C   UNL     1     -42.859 -47.600  12.617  1.00  0.00     0.187 C 
HETATM   26  O   UNL     1     -42.996 -46.956  11.338  1.00  0.00    -0.388 OA
HETATM   27  C   UNL     1     -41.948 -47.356  10.435  1.00  0.00     0.187 C 
ENDBRANCH   8  20
TORSDOF 4
ENDMDL
