MODEL 1
REMARK VINA RESULT:      -6.7      0.000      0.000
REMARK  2 active torsions:
REMARK  status: ('A' for Active; 'I' for Inactive)
REMARK    1  A    between atoms: C_4  and  N_5 
REMARK       I    between atoms: N_5  and  C_6 
REMARK       I    between atoms: C_6  and  N_8 
REMARK    2  A    between atoms: N_8  and  C_9 
ROOT
HETATM    1  N   UNL     1     -41.495 -47.936  10.190  1.00  0.00    -0.293 N 
HETATM    2  C   UNL     1     -41.168 -48.815  11.178  1.00  0.00     0.322 C 
HETATM    3  O   UNL     1     -40.017 -48.848  11.610  1.00  0.00    -0.247 OA
HETATM    4  N   UNL     1     -42.134 -49.699  11.552  1.00  0.00    -0.330 N 
HETATM    5  H   UNL     1     -40.714 -47.404   9.836  1.00  0.00     0.172 HD
HETATM    6  H   UNL     1     -43.091 -49.368  11.466  1.00  0.00     0.165 HD
ENDROOT
BRANCH   1   7
HETATM    7  C   UNL     1     -42.710 -47.809   9.553  1.00  0.00     0.132 A 
HETATM    8  C   UNL     1     -43.903 -47.384  10.182  1.00  0.00     0.084 A 
HETATM    9  C   UNL     1     -44.836 -47.367   9.174  1.00  0.00     0.076 A 
HETATM   10  C   UNL     1     -46.253 -46.989   9.078  1.00  0.00     0.079 C 
HETATM   11  O   UNL     1     -44.255 -47.788   8.023  1.00  0.00    -0.241 OA
HETATM   12  N   UNL     1     -42.927 -48.058   8.254  1.00  0.00    -0.245 N 
ATOM     13  HN  UNL     1     -42.242 -48.384   7.572  1.00  0.00     0.196 HD
ENDBRANCH   1   7
BRANCH   4  14
HETATM   14  C   UNL     1     -41.862 -50.753  12.503  1.00  0.00     0.172 C 
HETATM   15  C   UNL     1     -41.577 -52.071  11.769  1.00  0.00     0.034 C 
HETATM   16  C   UNL     1     -40.707 -52.995  12.616  1.00  0.00     0.004 C 
HETATM   17  C   UNL     1     -41.409 -53.749  13.755  1.00  0.00     0.015 C 
HETATM   18  C   UNL     1     -42.719 -53.186  14.313  1.00  0.00     0.095 C 
HETATM   19  N   UNL     1     -42.683 -51.759  14.556  1.00  0.00    -0.261 NA
HETATM   20  C   UNL     1     -43.030 -50.966  13.470  1.00  0.00     0.220 C 
HETATM   21  H   UNL     1     -41.823 -51.470  15.005  1.00  0.00     0.130 HD
HETATM   22  O   UNL     1     -44.190 -50.631  13.240  1.00  0.00    -0.278 OA
ENDBRANCH   4  14
TORSDOF 2
ENDMDL
MODEL 2
REMARK VINA RESULT:      -6.4      4.113      6.528
REMARK  2 active torsions:
REMARK  status: ('A' for Active; 'I' for Inactive)
REMARK    1  A    between atoms: C_4  and  N_5 
REMARK       I    between atoms: N_5  and  C_6 
REMARK       I    between atoms: C_6  and  N_8 
REMARK    2  A    between atoms: N_8  and  C_9 
ROOT
HETATM    1  N   UNL     1     -41.538 -47.699  10.186  1.00  0.00    -0.293 N 
HETATM    2  C   UNL     1     -40.876 -46.626  10.701  1.00  0.00     0.322 C 
HETATM    3  O   UNL     1     -39.807 -46.790  11.287  1.00  0.00    -0.247 OA
HETATM    4  N   UNL     1     -41.513 -45.425  10.630  1.00  0.00    -0.330 N 
HETATM    5  H   UNL     1     -41.106 -48.588  10.392  1.00  0.00     0.172 HD
HETATM    6  H   UNL     1     -42.134 -45.302   9.835  1.00  0.00     0.165 HD
ENDROOT
BRANCH   1   7
HETATM    7  C   UNL     1     -42.764 -47.703   9.559  1.00  0.00     0.132 A 
HETATM    8  C   UNL     1     -43.998 -47.477  10.212  1.00  0.00     0.084 A 
HETATM    9  C   UNL     1     -44.934 -47.532   9.208  1.00  0.00     0.076 A 
HETATM   10  C   UNL     1     -46.390 -47.345   9.136  1.00  0.00     0.079 C 
HETATM   11  O   UNL     1     -44.312 -47.808   8.035  1.00  0.00    -0.241 OA
HETATM   12  N   UNL     1     -42.957 -47.908   8.249  1.00  0.00    -0.245 N 
ATOM     13  HN  UNL     1     -42.241 -48.101   7.549  1.00  0.00     0.196 HD
ENDBRANCH   1   7
BRANCH   4  14
HETATM   14  C   UNL     1     -40.960 -44.242  11.250  1.00  0.00     0.172 C 
HETATM   15  C   UNL     1     -41.052 -44.351  12.779  1.00  0.00     0.034 C 
HETATM   16  C   UNL     1     -39.980 -43.502  13.456  1.00  0.00     0.004 C 
HETATM   17  C   UNL     1     -40.238 -41.990  13.520  1.00  0.00     0.015 C 
HETATM   18  C   UNL     1     -41.203 -41.363  12.509  1.00  0.00     0.095 C 
HETATM   19  N   UNL     1     -40.994 -41.815  11.149  1.00  0.00    -0.261 NA
HETATM   20  C   UNL     1     -41.683 -42.969  10.798  1.00  0.00     0.220 C 
HETATM   21  H   UNL     1     -40.013 -41.843  10.902  1.00  0.00     0.130 HD
HETATM   22  O   UNL     1     -42.821 -42.946  10.337  1.00  0.00    -0.278 OA
ENDBRANCH   4  14
TORSDOF 2
ENDMDL
MODEL 3
REMARK VINA RESULT:      -6.3      1.954      2.457
REMARK  2 active torsions:
REMARK  status: ('A' for Active; 'I' for Inactive)
REMARK    1  A    between atoms: C_4  and  N_5 
REMARK       I    between atoms: N_5  and  C_6 
REMARK       I    between atoms: C_6  and  N_8 
REMARK    2  A    between atoms: N_8  and  C_9 
ROOT
HETATM    1  N   UNL     1     -42.024 -46.439   9.756  1.00  0.00    -0.293 N 
HETATM    2  C   UNL     1     -41.173 -46.952  10.687  1.00  0.00     0.322 C 
HETATM    3  O   UNL     1     -40.236 -46.271  11.101  1.00  0.00    -0.247 OA
HETATM    4  N   UNL     1     -41.353 -48.260  11.025  1.00  0.00    -0.330 N 
HETATM    5  H   UNL     1     -41.766 -45.523   9.422  1.00  0.00     0.172 HD
HETATM    6  H   UNL     1     -42.309 -48.600  10.971  1.00  0.00     0.165 HD
ENDROOT
BRANCH   1   7
HETATM    7  C   UNL     1     -43.079 -47.081   9.144  1.00  0.00     0.132 A 
HETATM    8  C   UNL     1     -44.371 -47.209   9.704  1.00  0.00     0.084 A 
HETATM    9  C   UNL     1     -45.097 -47.872   8.746  1.00  0.00     0.076 A 
HETATM   10  C   UNL     1     -46.497 -48.300   8.616  1.00  0.00     0.079 C 
HETATM   11  O   UNL     1     -44.289 -48.158   7.694  1.00  0.00    -0.241 OA
HETATM   12  N   UNL     1     -43.031 -47.659   7.937  1.00  0.00    -0.245 N 
ATOM     13  HN  UNL     1     -42.221 -47.718   7.319  1.00  0.00     0.196 HD
ENDBRANCH   1   7
BRANCH   4  14
HETATM   14  C   UNL     1     -40.437 -48.942  11.910  1.00  0.00     0.172 C 
HETATM   15  C   UNL     1     -39.293 -49.577  11.105  1.00  0.00     0.034 C 
HETATM   16  C   UNL     1     -38.042 -49.738  11.962  1.00  0.00     0.004 C 
HETATM   17  C   UNL     1     -38.032 -50.910  12.954  1.00  0.00     0.015 C 
HETATM   18  C   UNL     1     -39.370 -51.498  13.412  1.00  0.00     0.095 C 
HETATM   19  N   UNL     1     -40.352 -50.498  13.774  1.00  0.00    -0.261 NA
HETATM   20  C   UNL     1     -41.136 -50.034  12.725  1.00  0.00     0.220 C 
HETATM   21  H   UNL     1     -39.953 -49.756  14.334  1.00  0.00     0.130 HD
HETATM   22  O   UNL     1     -42.191 -50.572  12.400  1.00  0.00    -0.278 OA
ENDBRANCH   4  14
TORSDOF 2
ENDMDL
MODEL 4
REMARK VINA RESULT:      -6.3      4.294      6.243
REMARK  2 active torsions:
REMARK  status: ('A' for Active; 'I' for Inactive)
REMARK    1  A    between atoms: C_4  and  N_5 
REMARK       I    between atoms: N_5  and  C_6 
REMARK       I    between atoms: C_6  and  N_8 
REMARK    2  A    between atoms: N_8  and  C_9 
ROOT
HETATM    1  N   UNL     1     -43.368 -52.986  11.830  1.00  0.00    -0.293 N 
HETATM    2  C   UNL     1     -44.448 -53.064  12.655  1.00  0.00     0.322 C 
HETATM    3  O   UNL     1     -45.577 -53.169  12.178  1.00  0.00    -0.247 OA
HETATM    4  N   UNL     1     -44.212 -52.902  13.987  1.00  0.00    -0.330 N 
HETATM    5  H   UNL     1     -43.600 -52.958  10.848  1.00  0.00     0.172 HD
HETATM    6  H   UNL     1     -43.302 -53.215  14.314  1.00  0.00     0.165 HD
ENDROOT
BRANCH   1   7
HETATM    7  C   UNL     1     -42.051 -52.805  12.192  1.00  0.00     0.132 A 
HETATM    8  C   UNL     1     -41.435 -51.545  12.371  1.00  0.00     0.084 A 
HETATM    9  C   UNL     1     -40.153 -51.841  12.762  1.00  0.00     0.076 A 
HETATM   10  C   UNL     1     -38.981 -51.048  13.162  1.00  0.00     0.079 C 
HETATM   11  O   UNL     1     -39.993 -53.188  12.781  1.00  0.00    -0.241 OA
HETATM   12  N   UNL     1     -41.177 -53.793  12.433  1.00  0.00    -0.245 N 
ATOM     13  HN  UNL     1     -41.356 -54.795  12.370  1.00  0.00     0.196 HD
ENDBRANCH   1   7
BRANCH   4  14
HETATM   14  C   UNL     1     -45.295 -52.844  14.942  1.00  0.00     0.172 C 
HETATM   15  C   UNL     1     -45.752 -51.392  15.142  1.00  0.00     0.034 C 
HETATM   16  C   UNL     1     -47.206 -51.331  15.600  1.00  0.00     0.004 C 
HETATM   17  C   UNL     1     -47.476 -51.649  17.077  1.00  0.00     0.015 C 
HETATM   18  C   UNL     1     -46.451 -52.483  17.851  1.00  0.00     0.095 C 
HETATM   19  N   UNL     1     -45.985 -53.648  17.129  1.00  0.00    -0.261 NA
HETATM   20  C   UNL     1     -44.892 -53.429  16.299  1.00  0.00     0.220 C 
HETATM   21  H   UNL     1     -46.741 -54.143  16.673  1.00  0.00     0.130 HD
HETATM   22  O   UNL     1     -43.733 -53.534  16.691  1.00  0.00    -0.278 OA
ENDBRANCH   4  14
TORSDOF 2
ENDMDL
MODEL 5
REMARK VINA RESULT:      -6.2      4.460      7.282
REMARK  2 active torsions:
REMARK  status: ('A' for Active; 'I' for Inactive)
REMARK    1  A    between atoms: C_4  and  N_5 
REMARK       I    between atoms: N_5  and  C_6 
REMARK       I    between atoms: C_6  and  N_8 
REMARK    2  A    between atoms: N_8  and  C_9 
ROOT
HETATM    1  N   UNL     1     -40.157 -53.120  13.011  1.00  0.00    -0.293 N 
HETATM    2  C   UNL     1     -41.470 -52.855  12.764  1.00  0.00     0.322 C 
HETATM    3  O   UNL     1     -41.776 -52.028  11.907  1.00  0.00    -0.247 OA
HETATM    4  N   UNL     1     -42.378 -53.456  13.582  1.00  0.00    -0.330 N 
HETATM    5  H   UNL     1     -39.514 -52.544  12.488  1.00  0.00     0.172 HD
HETATM    6  H   UNL     1     -42.106 -54.362  13.952  1.00  0.00     0.165 HD
ENDROOT
BRANCH   1   7
HETATM    7  C   UNL     1     -39.640 -53.964  13.970  1.00  0.00     0.132 A 
HETATM    8  C   UNL     1     -39.767 -53.765  15.364  1.00  0.00     0.084 A 
HETATM    9  C   UNL     1     -39.146 -54.854  15.925  1.00  0.00     0.076 A 
HETATM   10  C   UNL     1     -38.936 -55.336  17.298  1.00  0.00     0.079 C 
HETATM   11  O   UNL     1     -38.647 -55.639  14.937  1.00  0.00    -0.241 OA
HETATM   12  N   UNL     1     -38.959 -55.090  13.716  1.00  0.00    -0.245 N 
ATOM     13  HN  UNL     1     -38.719 -55.466  12.799  1.00  0.00     0.196 HD
ENDBRANCH   1   7
BRANCH   4  14
HETATM   14  C   UNL     1     -43.788 -53.154  13.491  1.00  0.00     0.172 C 
HETATM   15  C   UNL     1     -44.145 -51.991  14.428  1.00  0.00     0.034 C 
HETATM   16  C   UNL     1     -45.384 -51.249  13.935  1.00  0.00     0.004 C 
HETATM   17  C   UNL     1     -46.739 -51.917  14.203  1.00  0.00     0.015 C 
HETATM   18  C   UNL     1     -46.781 -53.430  14.438  1.00  0.00     0.095 C 
HETATM   19  N   UNL     1     -45.987 -54.187  13.493  1.00  0.00    -0.261 NA
HETATM   20  C   UNL     1     -44.656 -54.364  13.849  1.00  0.00     0.220 C 
HETATM   21  H   UNL     1     -46.107 -53.859  12.543  1.00  0.00     0.130 HD
HETATM   22  O   UNL     1     -44.274 -55.314  14.529  1.00  0.00    -0.278 OA
ENDBRANCH   4  14
TORSDOF 2
ENDMDL
MODEL 6
REMARK VINA RESULT:      -6.0      3.410      6.747
REMARK  2 active torsions:
REMARK  status: ('A' for Active; 'I' for Inactive)
REMARK    1  A    between atoms: C_4  and  N_5 
REMARK       I    between atoms: N_5  and  C_6 
REMARK       I    between atoms: C_6  and  N_8 
REMARK    2  A    between atoms: N_8  and  C_9 
ROOT
HETATM    1  N   UNL     1     -41.135 -49.317  10.386  1.00  0.00    -0.293 N 
HETATM    2  C   UNL     1     -41.640 -48.054  10.462  1.00  0.00     0.322 C 
HETATM    3  O   UNL     1     -42.474 -47.678   9.640  1.00  0.00    -0.247 OA
HETATM    4  N   UNL     1     -41.091 -47.233  11.399  1.00  0.00    -0.330 N 
HETATM    5  H   UNL     1     -41.458 -49.842   9.587  1.00  0.00     0.172 HD
HETATM    6  H   UNL     1     -40.745 -47.691  12.238  1.00  0.00     0.165 HD
ENDROOT
BRANCH   1   7
HETATM    7  C   UNL     1     -40.158 -49.876  11.180  1.00  0.00     0.132 A 
HETATM    8  C   UNL     1     -40.407 -50.564  12.391  1.00  0.00     0.084 A 
HETATM    9  C   UNL     1     -39.167 -50.976  12.812  1.00  0.00     0.076 A 
HETATM   10  C   UNL     1     -38.666 -51.770  13.944  1.00  0.00     0.079 C 
HETATM   11  O   UNL     1     -38.229 -50.536  11.936  1.00  0.00    -0.241 OA
HETATM   12  N   UNL     1     -38.845 -49.855  10.913  1.00  0.00    -0.245 N 
ATOM     13  HN  UNL     1     -38.392 -49.420  10.109  1.00  0.00     0.196 HD
ENDBRANCH   1   7
BRANCH   4  14
HETATM   14  C   UNL     1     -41.462 -45.839  11.490  1.00  0.00     0.172 C 
HETATM   15  C   UNL     1     -40.210 -44.964  11.645  1.00  0.00     0.034 C 
HETATM   16  C   UNL     1     -40.460 -43.550  11.127  1.00  0.00     0.004 C 
HETATM   17  C   UNL     1     -41.262 -42.614  12.042  1.00  0.00     0.015 C 
HETATM   18  C   UNL     1     -42.182 -43.228  13.101  1.00  0.00     0.095 C 
HETATM   19  N   UNL     1     -42.995 -44.318  12.604  1.00  0.00    -0.261 NA
HETATM   20  C   UNL     1     -42.403 -45.574  12.669  1.00  0.00     0.220 C 
HETATM   21  H   UNL     1     -43.398 -44.112  11.699  1.00  0.00     0.130 HD
HETATM   22  O   UNL     1     -42.499 -46.300  13.655  1.00  0.00    -0.278 OA
ENDBRANCH   4  14
TORSDOF 2
ENDMDL
MODEL 7
REMARK VINA RESULT:      -5.9      2.624      6.108
REMARK  2 active torsions:
REMARK  status: ('A' for Active; 'I' for Inactive)
REMARK    1  A    between atoms: C_4  and  N_5 
REMARK       I    between atoms: N_5  and  C_6 
REMARK       I    between atoms: C_6  and  N_8 
REMARK    2  A    between atoms: N_8  and  C_9 
ROOT
HETATM    1  N   UNL     1     -39.426 -51.003  11.991  1.00  0.00    -0.293 N 
HETATM    2  C   UNL     1     -39.231 -49.697  11.658  1.00  0.00     0.322 C 
HETATM    3  O   UNL     1     -38.087 -49.264  11.526  1.00  0.00    -0.247 OA
HETATM    4  N   UNL     1     -40.340 -48.909  11.601  1.00  0.00    -0.330 N 
HETATM    5  H   UNL     1     -38.575 -51.514  12.171  1.00  0.00     0.172 HD
HETATM    6  H   UNL     1     -41.199 -49.377  11.328  1.00  0.00     0.165 HD
ENDROOT
BRANCH   1   7
HETATM    7  C   UNL     1     -40.627 -51.632  12.236  1.00  0.00     0.132 A 
HETATM    8  C   UNL     1     -41.278 -51.655  13.491  1.00  0.00     0.084 A 
HETATM    9  C   UNL     1     -42.441 -52.348  13.262  1.00  0.00     0.076 A 
HETATM   10  C   UNL     1     -43.609 -52.713  14.077  1.00  0.00     0.079 C 
HETATM   11  O   UNL     1     -42.473 -52.749  11.967  1.00  0.00    -0.241 OA
HETATM   12  N   UNL     1     -41.346 -52.298  11.321  1.00  0.00    -0.245 N 
ATOM     13  HN  UNL     1     -41.105 -52.442  10.341  1.00  0.00     0.196 HD
ENDBRANCH   1   7
BRANCH   4  14
HETATM   14  C   UNL     1     -40.241 -47.484  11.377  1.00  0.00     0.172 C 
HETATM   15  C   UNL     1     -40.287 -46.731  12.714  1.00  0.00     0.034 C 
HETATM   16  C   UNL     1     -39.583 -45.381  12.609  1.00  0.00     0.004 C 
HETATM   17  C   UNL     1     -40.359 -44.253  11.914  1.00  0.00     0.015 C 
HETATM   18  C   UNL     1     -41.484 -44.622  10.942  1.00  0.00     0.095 C 
HETATM   19  N   UNL     1     -41.130 -45.678  10.018  1.00  0.00    -0.261 NA
HETATM   20  C   UNL     1     -41.367 -46.968  10.477  1.00  0.00     0.220 C 
HETATM   21  H   UNL     1     -40.203 -45.554   9.632  1.00  0.00     0.130 HD
HETATM   22  O   UNL     1     -42.440 -47.542  10.312  1.00  0.00    -0.278 OA
ENDBRANCH   4  14
TORSDOF 2
ENDMDL
MODEL 8
REMARK VINA RESULT:      -5.9      3.520      5.769
REMARK  2 active torsions:
REMARK  status: ('A' for Active; 'I' for Inactive)
REMARK    1  A    between atoms: C_4  and  N_5 
REMARK       I    between atoms: N_5  and  C_6 
REMARK       I    between atoms: C_6  and  N_8 
REMARK    2  A    between atoms: N_8  and  C_9 
ROOT
HETATM    1  N   UNL     1     -41.962 -54.312  13.382  1.00  0.00    -0.293 N 
HETATM    2  C   UNL     1     -40.868 -53.548  13.108  1.00  0.00     0.322 C 
HETATM    3  O   UNL     1     -39.741 -54.004  13.295  1.00  0.00    -0.247 OA
HETATM    4  N   UNL     1     -41.102 -52.257  12.744  1.00  0.00    -0.330 N 
HETATM    5  H   UNL     1     -41.746 -55.209  13.792  1.00  0.00     0.172 HD
HETATM    6  H   UNL     1     -41.972 -52.090  12.248  1.00  0.00     0.165 HD
ENDROOT
BRANCH   1   7
HETATM    7  C   UNL     1     -43.285 -53.941  13.290  1.00  0.00     0.132 A 
HETATM    8  C   UNL     1     -44.056 -53.449  14.369  1.00  0.00     0.084 A 
HETATM    9  C   UNL     1     -45.283 -53.174  13.818  1.00  0.00     0.076 A 
HETATM   10  C   UNL     1     -46.541 -52.602  14.320  1.00  0.00     0.079 C 
HETATM   11  O   UNL     1     -45.267 -53.512  12.505  1.00  0.00    -0.241 OA
HETATM   12  N   UNL     1     -44.020 -53.985  12.170  1.00  0.00    -0.245 N 
ATOM     13  HN  UNL     1     -43.715 -54.305  11.251  1.00  0.00     0.196 HD
ENDBRANCH   1   7
BRANCH   4  14
HETATM   14  C   UNL     1     -40.017 -51.322  12.548  1.00  0.00     0.172 C 
HETATM   15  C   UNL     1     -39.525 -50.786  13.900  1.00  0.00     0.034 C 
HETATM   16  C   UNL     1     -38.070 -50.336  13.816  1.00  0.00     0.004 C 
HETATM   17  C   UNL     1     -37.806 -48.978  13.151  1.00  0.00     0.015 C 
HETATM   18  C   UNL     1     -38.851 -48.418  12.181  1.00  0.00     0.095 C 
HETATM   19  N   UNL     1     -39.346 -49.393  11.232  1.00  0.00    -0.261 NA
HETATM   20  C   UNL     1     -40.434 -50.140  11.667  1.00  0.00     0.220 C 
HETATM   21  H   UNL     1     -38.603 -49.957  10.841  1.00  0.00     0.130 HD
HETATM   22  O   UNL     1     -41.595 -49.777  11.500  1.00  0.00    -0.278 OA
ENDBRANCH   4  14
TORSDOF 2
ENDMDL
MODEL 9
REMARK VINA RESULT:      -5.9      2.752      3.771
REMARK  2 active torsions:
REMARK  status: ('A' for Active; 'I' for Inactive)
REMARK    1  A    between atoms: C_4  and  N_5 
REMARK       I    between atoms: N_5  and  C_6 
REMARK       I    between atoms: C_6  and  N_8 
REMARK    2  A    between atoms: N_8  and  C_9 
ROOT
HETATM    1  N   UNL     1     -40.667 -50.622  11.169  1.00  0.00    -0.293 N 
HETATM    2  C   UNL     1     -41.500 -51.435  11.876  1.00  0.00     0.322 C 
HETATM    3  O   UNL     1     -41.351 -52.655  11.828  1.00  0.00    -0.247 OA
HETATM    4  N   UNL     1     -42.540 -50.833  12.517  1.00  0.00    -0.330 N 
HETATM    5  H   UNL     1     -40.005 -51.116  10.588  1.00  0.00     0.172 HD
HETATM    6  H   UNL     1     -42.371 -49.883  12.834  1.00  0.00     0.165 HD
ENDROOT
BRANCH   1   7
HETATM    7  C   UNL     1     -40.729 -49.250  11.062  1.00  0.00     0.132 A 
HETATM    8  C   UNL     1     -40.033 -48.349  11.900  1.00  0.00     0.084 A 
HETATM    9  C   UNL     1     -40.354 -47.107  11.411  1.00  0.00     0.076 A 
HETATM   10  C   UNL     1     -39.968 -45.728  11.746  1.00  0.00     0.079 C 
HETATM   11  O   UNL     1     -41.216 -47.246  10.373  1.00  0.00    -0.241 OA
HETATM   12  N   UNL     1     -41.447 -48.583  10.148  1.00  0.00    -0.245 N 
ATOM     13  HN  UNL     1     -42.046 -48.986   9.427  1.00  0.00     0.196 HD
ENDBRANCH   1   7
BRANCH   4  14
HETATM   14  C   UNL     1     -43.555 -51.607  13.197  1.00  0.00     0.172 C 
HETATM   15  C   UNL     1     -44.881 -50.833  13.229  1.00  0.00     0.034 C 
HETATM   16  C   UNL     1     -46.069 -51.783  13.340  1.00  0.00     0.004 C 
HETATM   17  C   UNL     1     -46.349 -52.377  14.728  1.00  0.00     0.015 C 
HETATM   18  C   UNL     1     -45.208 -52.435  15.748  1.00  0.00     0.095 C 
HETATM   19  N   UNL     1     -43.961 -52.922  15.198  1.00  0.00    -0.261 NA
HETATM   20  C   UNL     1     -43.145 -51.950  14.632  1.00  0.00     0.220 C 
HETATM   21  H   UNL     1     -44.095 -53.729  14.602  1.00  0.00     0.130 HD
HETATM   22  O   UNL     1     -42.311 -51.327  15.282  1.00  0.00    -0.278 OA
ENDBRANCH   4  14
TORSDOF 2
ENDMDL
