MODEL 1
REMARK VINA RESULT:      -5.6      0.000      0.000
REMARK  6 active torsions:
REMARK  status: ('A' for Active; 'I' for Inactive)
REMARK    1  A    between atoms: C_2  and  C_3 
REMARK    2  A    between atoms: C_3  and  N_4 
REMARK       I    between atoms: N_4  and  C_5 
REMARK    3  A    between atoms: C_5  and  C_7 
REMARK    4  A    between atoms: C_7  and  N_8 
REMARK       I    between atoms: N_8  and  C_9 
REMARK    5  A    between atoms: C_9  and  C_11 
REMARK    6  A    between atoms: C_11  and  N_13 
ROOT
HETATM    1  N   UNL     1     -42.136 -50.407  12.013  1.00  0.00    -0.350 N 
HETATM    2  C   UNL     1     -41.337 -49.503  11.352  1.00  0.00     0.242 C 
HETATM    3  O   UNL     1     -40.290 -49.852  10.806  1.00  0.00    -0.271 OA
HETATM    4  H   UNL     1     -42.938 -50.078  12.541  1.00  0.00     0.163 HD
ENDROOT
BRANCH   1   5
HETATM    5  C   UNL     1     -41.836 -51.832  12.055  1.00  0.00     0.225 C 
BRANCH   5   6
HETATM    6  C   UNL     1     -43.020 -52.679  12.534  1.00  0.00     0.235 C 
HETATM    7  N   UNL     1     -44.235 -52.026  12.512  1.00  0.00    -0.360 N 
HETATM    8  H   UNL     1     -44.226 -51.025  12.317  1.00  0.00     0.162 HD
HETATM    9  O   UNL     1     -42.874 -53.821  12.966  1.00  0.00    -0.272 OA
BRANCH   7  10
HETATM   10  C   UNL     1     -45.454 -52.637  12.999  1.00  0.00     0.122 C 
BRANCH  10  11
HETATM   11  C   UNL     1     -46.557 -51.622  13.294  1.00  0.00     0.015 C 
HETATM   12  C   UNL     1     -46.825 -51.458  14.783  1.00  0.00     0.006 C 
ENDBRANCH  10  11
ENDBRANCH   7  10
ENDBRANCH   5   6
ENDBRANCH   1   5
BRANCH   2  13
HETATM   13  C   UNL     1     -41.828 -48.060  11.377  1.00  0.00     0.195 C 
HETATM   14  C   UNL     1     -40.665 -47.072  11.324  1.00  0.00     0.044 C 
BRANCH  13  15
HETATM   15  N   UNL     1     -42.780 -47.830  10.297  1.00  0.00    -0.290 N 
HETATM   16  C   UNL     1     -44.092 -47.458  10.400  1.00  0.00     0.112 A 
HETATM   17  C   UNL     1     -44.582 -47.417   9.116  1.00  0.00     0.037 A 
HETATM   18  C   UNL     1     -43.489 -47.774   8.307  1.00  0.00     0.108 A 
HETATM   19  N   UNL     1     -42.385 -48.018   9.018  1.00  0.00    -0.309 N 
ATOM     20  HN  UNL     1     -41.462 -48.283   8.677  1.00  0.00     0.186 HD
ENDBRANCH  13  15
ENDBRANCH   2  13
TORSDOF 6
ENDMDL
MODEL 2
REMARK VINA RESULT:      -5.5      2.607      3.790
REMARK  6 active torsions:
REMARK  status: ('A' for Active; 'I' for Inactive)
REMARK    1  A    between atoms: C_2  and  C_3 
REMARK    2  A    between atoms: C_3  and  N_4 
REMARK       I    between atoms: N_4  and  C_5 
REMARK    3  A    between atoms: C_5  and  C_7 
REMARK    4  A    between atoms: C_7  and  N_8 
REMARK       I    between atoms: N_8  and  C_9 
REMARK    5  A    between atoms: C_9  and  C_11 
REMARK    6  A    between atoms: C_11  and  N_13 
ROOT
HETATM    1  N   UNL     1     -42.564 -51.847  12.047  1.00  0.00    -0.350 N 
HETATM    2  C   UNL     1     -41.215 -51.647  11.862  1.00  0.00     0.242 C 
HETATM    3  O   UNL     1     -40.400 -52.546  12.064  1.00  0.00    -0.271 OA
HETATM    4  H   UNL     1     -43.204 -51.063  11.973  1.00  0.00     0.163 HD
ENDROOT
BRANCH   1   5
HETATM    5  C   UNL     1     -43.118 -53.141  12.424  1.00  0.00     0.225 C 
BRANCH   5   6
HETATM    6  C   UNL     1     -44.634 -53.102  12.642  1.00  0.00     0.235 C 
HETATM    7  N   UNL     1     -45.151 -51.838  12.836  1.00  0.00    -0.360 N 
HETATM    8  H   UNL     1     -44.487 -51.073  12.952  1.00  0.00     0.162 HD
HETATM    9  O   UNL     1     -45.311 -54.126  12.707  1.00  0.00    -0.272 OA
BRANCH   7  10
HETATM   10  C   UNL     1     -46.549 -51.608  13.133  1.00  0.00     0.122 C 
BRANCH  10  11
HETATM   11  C   UNL     1     -46.847 -51.579  14.631  1.00  0.00     0.015 C 
HETATM   12  C   UNL     1     -45.688 -51.033  15.454  1.00  0.00     0.006 C 
ENDBRANCH  10  11
ENDBRANCH   7  10
ENDBRANCH   5   6
ENDBRANCH   1   5
BRANCH   2  13
HETATM   13  C   UNL     1     -40.821 -50.240  11.428  1.00  0.00     0.195 C 
HETATM   14  C   UNL     1     -41.773 -49.190  11.998  1.00  0.00     0.044 C 
BRANCH  13  15
HETATM   15  N   UNL     1     -39.436 -49.966  11.793  1.00  0.00    -0.290 N 
HETATM   16  C   UNL     1     -38.969 -49.408  12.951  1.00  0.00     0.112 A 
HETATM   17  C   UNL     1     -37.606 -49.308  12.807  1.00  0.00     0.037 A 
HETATM   18  C   UNL     1     -37.343 -49.838  11.533  1.00  0.00     0.108 A 
HETATM   19  N   UNL     1     -38.452 -50.249  10.912  1.00  0.00    -0.309 N 
ATOM     20  HN  UNL     1     -38.537 -50.677   9.990  1.00  0.00     0.186 HD
ENDBRANCH  13  15
ENDBRANCH   2  13
TORSDOF 6
ENDMDL
MODEL 3
REMARK VINA RESULT:      -5.5      3.051      5.623
REMARK  6 active torsions:
REMARK  status: ('A' for Active; 'I' for Inactive)
REMARK    1  A    between atoms: C_2  and  C_3 
REMARK    2  A    between atoms: C_3  and  N_4 
REMARK       I    between atoms: N_4  and  C_5 
REMARK    3  A    between atoms: C_5  and  C_7 
REMARK    4  A    between atoms: C_7  and  N_8 
REMARK       I    between atoms: N_8  and  C_9 
REMARK    5  A    between atoms: C_9  and  C_11 
REMARK    6  A    between atoms: C_11  and  N_13 
ROOT
HETATM    1  N   UNL     1     -41.158 -47.909  10.681  1.00  0.00    -0.350 N 
HETATM    2  C   UNL     1     -41.277 -49.093  11.372  1.00  0.00     0.242 C 
HETATM    3  O   UNL     1     -42.255 -49.325  12.083  1.00  0.00    -0.271 OA
HETATM    4  H   UNL     1     -40.297 -47.700  10.185  1.00  0.00     0.163 HD
ENDROOT
BRANCH   1   5
HETATM    5  C   UNL     1     -42.199 -46.890  10.691  1.00  0.00     0.225 C 
BRANCH   5   6
HETATM    6  C   UNL     1     -43.221 -47.067   9.563  1.00  0.00     0.235 C 
HETATM    7  N   UNL     1     -44.382 -46.340   9.725  1.00  0.00    -0.360 N 
HETATM    8  H   UNL     1     -44.518 -45.867  10.617  1.00  0.00     0.162 HD
HETATM    9  O   UNL     1     -43.039 -47.852   8.634  1.00  0.00    -0.272 OA
BRANCH   7  10
HETATM   10  C   UNL     1     -45.494 -46.437   8.803  1.00  0.00     0.122 C 
BRANCH  10  11
HETATM   11  C   UNL     1     -46.516 -47.499   9.205  1.00  0.00     0.015 C 
HETATM   12  C   UNL     1     -46.492 -48.717   8.292  1.00  0.00     0.006 C 
ENDBRANCH  10  11
ENDBRANCH   7  10
ENDBRANCH   5   6
ENDBRANCH   1   5
BRANCH   2  13
HETATM   13  C   UNL     1     -40.109 -50.059  11.212  1.00  0.00     0.195 C 
HETATM   14  C   UNL     1     -38.792 -49.423  11.652  1.00  0.00     0.044 C 
BRANCH  13  15
HETATM   15  N   UNL     1     -40.374 -51.299  11.931  1.00  0.00    -0.290 N 
HETATM   16  C   UNL     1     -39.868 -51.693  13.139  1.00  0.00     0.112 A 
HETATM   17  C   UNL     1     -40.370 -52.951  13.374  1.00  0.00     0.037 A 
HETATM   18  C   UNL     1     -41.174 -53.229  12.255  1.00  0.00     0.108 A 
HETATM   19  N   UNL     1     -41.189 -52.223  11.376  1.00  0.00    -0.309 N 
ATOM     20  HN  UNL     1     -41.696 -52.166  10.494  1.00  0.00     0.186 HD
ENDBRANCH  13  15
ENDBRANCH   2  13
TORSDOF 6
ENDMDL
MODEL 4
REMARK VINA RESULT:      -5.3      1.473      2.348
REMARK  6 active torsions:
REMARK  status: ('A' for Active; 'I' for Inactive)
REMARK    1  A    between atoms: C_2  and  C_3 
REMARK    2  A    between atoms: C_3  and  N_4 
REMARK       I    between atoms: N_4  and  C_5 
REMARK    3  A    between atoms: C_5  and  C_7 
REMARK    4  A    between atoms: C_7  and  N_8 
REMARK       I    between atoms: N_8  and  C_9 
REMARK    5  A    between atoms: C_9  and  C_11 
REMARK    6  A    between atoms: C_11  and  N_13 
ROOT
HETATM    1  N   UNL     1     -42.068 -49.989  11.602  1.00  0.00    -0.350 N 
HETATM    2  C   UNL     1     -41.302 -48.867  11.386  1.00  0.00     0.242 C 
HETATM    3  O   UNL     1     -40.166 -48.767  11.850  1.00  0.00    -0.271 OA
HETATM    4  H   UNL     1     -43.036 -50.005  11.297  1.00  0.00     0.163 HD
ENDROOT
BRANCH   1   5
HETATM    5  C   UNL     1     -41.569 -51.149  12.329  1.00  0.00     0.225 C 
BRANCH   5   6
HETATM    6  C   UNL     1     -42.661 -52.182  12.631  1.00  0.00     0.235 C 
HETATM    7  N   UNL     1     -43.945 -51.680  12.603  1.00  0.00    -0.360 N 
HETATM    8  H   UNL     1     -44.052 -50.669  12.521  1.00  0.00     0.162 HD
HETATM    9  O   UNL     1     -42.395 -53.341  12.943  1.00  0.00    -0.272 OA
BRANCH   7  10
HETATM   10  C   UNL     1     -45.101 -52.484  12.937  1.00  0.00     0.122 C 
BRANCH  10  11
HETATM   11  C   UNL     1     -46.380 -51.663  13.086  1.00  0.00     0.015 C 
HETATM   12  C   UNL     1     -46.739 -51.387  14.540  1.00  0.00     0.006 C 
ENDBRANCH  10  11
ENDBRANCH   7  10
ENDBRANCH   5   6
ENDBRANCH   1   5
BRANCH   2  13
HETATM   13  C   UNL     1     -41.974 -47.769  10.569  1.00  0.00     0.195 C 
HETATM   14  C   UNL     1     -43.467 -47.677  10.876  1.00  0.00     0.044 C 
BRANCH  13  15
HETATM   15  N   UNL     1     -41.301 -46.494  10.785  1.00  0.00    -0.290 N 
HETATM   16  C   UNL     1     -41.789 -45.384  11.419  1.00  0.00     0.112 A 
HETATM   17  C   UNL     1     -40.809 -44.425  11.325  1.00  0.00     0.037 A 
HETATM   18  C   UNL     1     -39.764 -45.052  10.623  1.00  0.00     0.108 A 
HETATM   19  N   UNL     1     -40.053 -46.315  10.299  1.00  0.00    -0.309 N 
ATOM     20  HN  UNL     1     -39.469 -46.987   9.802  1.00  0.00     0.186 HD
ENDBRANCH  13  15
ENDBRANCH   2  13
TORSDOF 6
ENDMDL
MODEL 5
REMARK VINA RESULT:      -5.2      2.177      5.722
REMARK  6 active torsions:
REMARK  status: ('A' for Active; 'I' for Inactive)
REMARK    1  A    between atoms: C_2  and  C_3 
REMARK    2  A    between atoms: C_3  and  N_4 
REMARK       I    between atoms: N_4  and  C_5 
REMARK    3  A    between atoms: C_5  and  C_7 
REMARK    4  A    between atoms: C_7  and  N_8 
REMARK       I    between atoms: N_8  and  C_9 
REMARK    5  A    between atoms: C_9  and  C_11 
REMARK    6  A    between atoms: C_11  and  N_13 
ROOT
HETATM    1  N   UNL     1     -42.579 -49.198  11.439  1.00  0.00    -0.350 N 
HETATM    2  C   UNL     1     -43.006 -49.454  12.722  1.00  0.00     0.242 C 
HETATM    3  O   UNL     1     -43.181 -48.544  13.533  1.00  0.00    -0.271 OA
HETATM    4  H   UNL     1     -42.344 -49.970  10.823  1.00  0.00     0.163 HD
ENDROOT
BRANCH   1   5
HETATM    5  C   UNL     1     -42.369 -47.845  10.940  1.00  0.00     0.225 C 
BRANCH   5   6
HETATM    6  C   UNL     1     -43.239 -47.515   9.722  1.00  0.00     0.235 C 
HETATM    7  N   UNL     1     -44.398 -46.829  10.017  1.00  0.00    -0.360 N 
HETATM    8  H   UNL     1     -44.641 -46.720  11.002  1.00  0.00     0.162 HD
HETATM    9  O   UNL     1     -42.951 -47.901   8.591  1.00  0.00    -0.272 OA
BRANCH   7  10
HETATM   10  C   UNL     1     -45.383 -46.496   9.009  1.00  0.00     0.122 C 
BRANCH  10  11
HETATM   11  C   UNL     1     -46.671 -47.306   9.139  1.00  0.00     0.015 C 
HETATM   12  C   UNL     1     -46.582 -48.669   8.469  1.00  0.00     0.006 C 
ENDBRANCH  10  11
ENDBRANCH   7  10
ENDBRANCH   5   6
ENDBRANCH   1   5
BRANCH   2  13
HETATM   13  C   UNL     1     -43.212 -50.927  13.056  1.00  0.00     0.195 C 
HETATM   14  C   UNL     1     -42.046 -51.484  13.870  1.00  0.00     0.044 C 
BRANCH  13  15
HETATM   15  N   UNL     1     -44.485 -51.118  13.741  1.00  0.00    -0.290 N 
HETATM   16  C   UNL     1     -45.691 -51.457  13.190  1.00  0.00     0.112 A 
HETATM   17  C   UNL     1     -46.596 -51.468  14.225  1.00  0.00     0.037 A 
HETATM   18  C   UNL     1     -45.841 -51.130  15.362  1.00  0.00     0.108 A 
HETATM   19  N   UNL     1     -44.552 -50.925  15.076  1.00  0.00    -0.309 N 
ATOM     20  HN  UNL     1     -43.797 -50.680  15.715  1.00  0.00     0.186 HD
ENDBRANCH  13  15
ENDBRANCH   2  13
TORSDOF 6
ENDMDL
MODEL 6
REMARK VINA RESULT:      -5.2      3.116      6.564
REMARK  6 active torsions:
REMARK  status: ('A' for Active; 'I' for Inactive)
REMARK    1  A    between atoms: C_2  and  C_3 
REMARK    2  A    between atoms: C_3  and  N_4 
REMARK       I    between atoms: N_4  and  C_5 
REMARK    3  A    between atoms: C_5  and  C_7 
REMARK    4  A    between atoms: C_7  and  N_8 
REMARK       I    between atoms: N_8  and  C_9 
REMARK    5  A    between atoms: C_9  and  C_11 
REMARK    6  A    between atoms: C_11  and  N_13 
ROOT
HETATM    1  N   UNL     1     -41.680 -48.257   9.948  1.00  0.00    -0.350 N 
HETATM    2  C   UNL     1     -41.539 -49.021  11.083  1.00  0.00     0.242 C 
HETATM    3  O   UNL     1     -42.451 -49.123  11.904  1.00  0.00    -0.271 OA
HETATM    4  H   UNL     1     -40.881 -48.106   9.341  1.00  0.00     0.163 HD
ENDROOT
BRANCH   1   5
HETATM    5  C   UNL     1     -42.925 -47.579   9.610  1.00  0.00     0.225 C 
BRANCH   5   6
HETATM    6  C   UNL     1     -42.830 -46.055   9.734  1.00  0.00     0.235 C 
HETATM    7  N   UNL     1     -42.261 -45.612  10.910  1.00  0.00    -0.360 N 
HETATM    8  H   UNL     1     -42.082 -46.306  11.635  1.00  0.00     0.162 HD
HETATM    9  O   UNL     1     -43.292 -45.300   8.880  1.00  0.00    -0.272 OA
BRANCH   7  10
HETATM   10  C   UNL     1     -42.155 -44.206  11.240  1.00  0.00     0.122 C 
BRANCH  10  11
HETATM   11  C   UNL     1     -40.729 -43.670  11.132  1.00  0.00     0.015 C 
HETATM   12  C   UNL     1     -39.676 -44.759  11.281  1.00  0.00     0.006 C 
ENDBRANCH  10  11
ENDBRANCH   7  10
ENDBRANCH   5   6
ENDBRANCH   1   5
BRANCH   2  13
HETATM   13  C   UNL     1     -40.180 -49.689  11.253  1.00  0.00     0.195 C 
HETATM   14  C   UNL     1     -39.185 -48.766  11.955  1.00  0.00     0.044 C 
BRANCH  13  15
HETATM   15  N   UNL     1     -40.323 -50.959  11.955  1.00  0.00    -0.290 N 
HETATM   16  C   UNL     1     -39.747 -51.333  13.138  1.00  0.00     0.112 A 
HETATM   17  C   UNL     1     -40.140 -52.631  13.363  1.00  0.00     0.037 A 
HETATM   18  C   UNL     1     -40.958 -52.950  12.266  1.00  0.00     0.108 A 
HETATM   19  N   UNL     1     -41.081 -51.934  11.408  1.00  0.00    -0.309 N 
ATOM     20  HN  UNL     1     -41.621 -51.901  10.544  1.00  0.00     0.186 HD
ENDBRANCH  13  15
ENDBRANCH   2  13
TORSDOF 6
ENDMDL
MODEL 7
REMARK VINA RESULT:      -5.2      1.580      5.443
REMARK  6 active torsions:
REMARK  status: ('A' for Active; 'I' for Inactive)
REMARK    1  A    between atoms: C_2  and  C_3 
REMARK    2  A    between atoms: C_3  and  N_4 
REMARK       I    between atoms: N_4  and  C_5 
REMARK    3  A    between atoms: C_5  and  C_7 
REMARK    4  A    between atoms: C_7  and  N_8 
REMARK       I    between atoms: N_8  and  C_9 
REMARK    5  A    between atoms: C_9  and  C_11 
REMARK    6  A    between atoms: C_11  and  N_13 
ROOT
HETATM    1  N   UNL     1     -40.911 -50.802  11.162  1.00  0.00    -0.350 N 
HETATM    2  C   UNL     1     -41.130 -51.481  12.339  1.00  0.00     0.242 C 
HETATM    3  O   UNL     1     -40.707 -51.055  13.413  1.00  0.00    -0.271 OA
HETATM    4  H   UNL     1     -41.180 -51.225  10.279  1.00  0.00     0.163 HD
ENDROOT
BRANCH   1   5
HETATM    5  C   UNL     1     -40.227 -49.516  11.117  1.00  0.00     0.225 C 
BRANCH   5   6
HETATM    6  C   UNL     1     -41.192 -48.325  11.128  1.00  0.00     0.235 C 
HETATM    7  N   UNL     1     -42.368 -48.537  10.438  1.00  0.00    -0.360 N 
HETATM    8  H   UNL     1     -42.438 -49.388   9.881  1.00  0.00     0.162 HD
HETATM    9  O   UNL     1     -40.899 -47.252  11.650  1.00  0.00    -0.272 OA
BRANCH   7  10
HETATM   10  C   UNL     1     -43.367 -47.503  10.272  1.00  0.00     0.122 C 
BRANCH  10  11
HETATM   11  C   UNL     1     -43.995 -47.493   8.879  1.00  0.00     0.015 C 
HETATM   12  C   UNL     1     -45.500 -47.719   8.909  1.00  0.00     0.006 C 
ENDBRANCH  10  11
ENDBRANCH   7  10
ENDBRANCH   5   6
ENDBRANCH   1   5
BRANCH   2  13
HETATM   13  C   UNL     1     -41.898 -52.790  12.200  1.00  0.00     0.195 C 
HETATM   14  C   UNL     1     -41.263 -53.903  13.032  1.00  0.00     0.044 C 
BRANCH  13  15
HETATM   15  N   UNL     1     -43.301 -52.595  12.546  1.00  0.00    -0.290 N 
HETATM   16  C   UNL     1     -44.312 -53.515  12.504  1.00  0.00     0.112 A 
HETATM   17  C   UNL     1     -45.455 -52.847  12.872  1.00  0.00     0.037 A 
HETATM   18  C   UNL     1     -45.033 -51.530  13.124  1.00  0.00     0.108 A 
HETATM   19  N   UNL     1     -43.720 -51.371  12.936  1.00  0.00    -0.309 N 
ATOM     20  HN  UNL     1     -43.165 -50.525  13.059  1.00  0.00     0.186 HD
ENDBRANCH  13  15
ENDBRANCH   2  13
TORSDOF 6
ENDMDL
MODEL 8
REMARK VINA RESULT:      -5.1      1.603      5.771
REMARK  6 active torsions:
REMARK  status: ('A' for Active; 'I' for Inactive)
REMARK    1  A    between atoms: C_2  and  C_3 
REMARK    2  A    between atoms: C_3  and  N_4 
REMARK       I    between atoms: N_4  and  C_5 
REMARK    3  A    between atoms: C_5  and  C_7 
REMARK    4  A    between atoms: C_7  and  N_8 
REMARK       I    between atoms: N_8  and  C_9 
REMARK    5  A    between atoms: C_9  and  C_11 
REMARK    6  A    between atoms: C_11  and  N_13 
ROOT
HETATM    1  N   UNL     1     -42.592 -52.828  11.982  1.00  0.00    -0.350 N 
HETATM    2  C   UNL     1     -42.992 -53.648  13.012  1.00  0.00     0.242 C 
HETATM    3  O   UNL     1     -42.211 -53.985  13.903  1.00  0.00    -0.271 OA
HETATM    4  H   UNL     1     -43.223 -52.649  11.208  1.00  0.00     0.163 HD
ENDROOT
BRANCH   1   5
HETATM    5  C   UNL     1     -41.254 -52.256  11.912  1.00  0.00     0.225 C 
BRANCH   5   6
HETATM    6  C   UNL     1     -41.231 -50.750  12.198  1.00  0.00     0.235 C 
HETATM    7  N   UNL     1     -42.313 -50.057  11.696  1.00  0.00    -0.360 N 
HETATM    8  H   UNL     1     -42.949 -50.563  11.080  1.00  0.00     0.162 HD
HETATM    9  O   UNL     1     -40.285 -50.207  12.765  1.00  0.00    -0.272 OA
BRANCH   7  10
HETATM   10  C   UNL     1     -42.430 -48.618  11.799  1.00  0.00     0.122 C 
BRANCH  10  11
HETATM   11  C   UNL     1     -41.877 -47.882  10.580  1.00  0.00     0.015 C 
HETATM   12  C   UNL     1     -42.919 -47.679   9.490  1.00  0.00     0.006 C 
ENDBRANCH  10  11
ENDBRANCH   7  10
ENDBRANCH   5   6
ENDBRANCH   1   5
BRANCH   2  13
HETATM   13  C   UNL     1     -44.440 -54.119  12.943  1.00  0.00     0.195 C 
HETATM   14  C   UNL     1     -44.728 -55.197  13.987  1.00  0.00     0.044 C 
BRANCH  13  15
HETATM   15  N   UNL     1     -45.348 -52.987  13.075  1.00  0.00    -0.290 N 
HETATM   16  C   UNL     1     -45.626 -52.261  14.200  1.00  0.00     0.112 A 
HETATM   17  C   UNL     1     -46.575 -51.335  13.835  1.00  0.00     0.037 A 
HETATM   18  C   UNL     1     -46.801 -51.577  12.469  1.00  0.00     0.108 A 
HETATM   19  N   UNL     1     -46.051 -52.575  11.997  1.00  0.00    -0.309 N 
ATOM     20  HN  UNL     1     -46.016 -52.941  11.046  1.00  0.00     0.186 HD
ENDBRANCH  13  15
ENDBRANCH   2  13
TORSDOF 6
ENDMDL
MODEL 9
REMARK VINA RESULT:      -5.0      3.122      4.292
REMARK  6 active torsions:
REMARK  status: ('A' for Active; 'I' for Inactive)
REMARK    1  A    between atoms: C_2  and  C_3 
REMARK    2  A    between atoms: C_3  and  N_4 
REMARK       I    between atoms: N_4  and  C_5 
REMARK    3  A    between atoms: C_5  and  C_7 
REMARK    4  A    between atoms: C_7  and  N_8 
REMARK       I    between atoms: N_8  and  C_9 
REMARK    5  A    between atoms: C_9  and  C_11 
REMARK    6  A    between atoms: C_11  and  N_13 
ROOT
HETATM    1  N   UNL     1     -43.126 -53.846  12.803  1.00  0.00    -0.350 N 
HETATM    2  C   UNL     1     -42.676 -52.567  13.035  1.00  0.00     0.242 C 
HETATM    3  O   UNL     1     -43.421 -51.594  12.923  1.00  0.00    -0.271 OA
HETATM    4  H   UNL     1     -42.469 -54.619  12.802  1.00  0.00     0.163 HD
ENDROOT
BRANCH   1   5
HETATM    5  C   UNL     1     -44.516 -54.138  12.478  1.00  0.00     0.225 C 
BRANCH   5   6
HETATM    6  C   UNL     1     -45.421 -54.196  13.714  1.00  0.00     0.235 C 
HETATM    7  N   UNL     1     -46.022 -52.998  14.038  1.00  0.00    -0.360 N 
HETATM    8  H   UNL     1     -45.719 -52.168  13.529  1.00  0.00     0.162 HD
HETATM    9  O   UNL     1     -45.535 -55.214  14.393  1.00  0.00    -0.272 OA
BRANCH   7  10
HETATM   10  C   UNL     1     -46.850 -52.837  15.215  1.00  0.00     0.122 C 
BRANCH  10  11
HETATM   11  C   UNL     1     -47.098 -51.374  15.579  1.00  0.00     0.015 C 
HETATM   12  C   UNL     1     -47.889 -51.213  16.869  1.00  0.00     0.006 C 
ENDBRANCH  10  11
ENDBRANCH   7  10
ENDBRANCH   5   6
ENDBRANCH   1   5
BRANCH   2  13
HETATM   13  C   UNL     1     -41.201 -52.455  13.404  1.00  0.00     0.195 C 
HETATM   14  C   UNL     1     -40.446 -53.746  13.095  1.00  0.00     0.044 C 
BRANCH  13  15
HETATM   15  N   UNL     1     -40.598 -51.307  12.738  1.00  0.00    -0.290 N 
HETATM   16  C   UNL     1     -39.788 -50.349  13.285  1.00  0.00     0.112 A 
HETATM   17  C   UNL     1     -39.517 -49.454  12.277  1.00  0.00     0.037 A 
HETATM   18  C   UNL     1     -40.201 -49.959  11.159  1.00  0.00     0.108 A 
HETATM   19  N   UNL     1     -40.854 -51.093  11.429  1.00  0.00    -0.309 N 
ATOM     20  HN  UNL     1     -41.415 -51.663  10.796  1.00  0.00     0.186 HD
ENDBRANCH  13  15
ENDBRANCH   2  13
TORSDOF 6
ENDMDL
