MODEL 1
REMARK VINA RESULT:      -5.7      0.000      0.000
REMARK  4 active torsions:
REMARK  status: ('A' for Active; 'I' for Inactive)
REMARK       I    between atoms: C_2  and  N_3 
REMARK       I    between atoms: C_2  and  N_11 
REMARK    1  A    between atoms: N_3  and  C_4 
REMARK    2  A    between atoms: C_4  and  C_5 
REMARK    3  A    between atoms: C_4  and  C_8 
REMARK    4  A    between atoms: N_11  and  C_12 
ROOT
HETATM    1  O   UNL     1     -41.988 -52.238  11.817  1.00  0.00    -0.247 OA
HETATM    2  C   UNL     1     -41.972 -51.575  12.846  1.00  0.00     0.321 C 
HETATM    3  N   UNL     1     -43.035 -51.534  13.715  1.00  0.00    -0.338 N 
HETATM    4  N   UNL     1     -40.941 -50.772  13.281  1.00  0.00    -0.308 N 
HETATM    5  H   UNL     1     -42.888 -51.174  14.644  1.00  0.00     0.164 HD
HETATM    6  H   UNL     1     -41.168 -50.117  14.013  1.00  0.00     0.170 HD
ENDROOT
BRANCH   3   7
HETATM    7  C   UNL     1     -44.234 -52.320  13.497  1.00  0.00     0.094 C 
BRANCH   7   8
HETATM    8  C   UNL     1     -44.276 -53.397  14.555  1.00  0.00     0.009 A 
HETATM    9  C   UNL     1     -43.373 -54.605  14.414  1.00  0.00     0.007 A 
HETATM   10  C   UNL     1     -44.857 -54.764  14.266  1.00  0.00     0.007 A 
ENDBRANCH   7   8
BRANCH   7  11
HETATM   11  C   UNL     1     -45.403 -51.371  13.571  1.00  0.00     0.009 A 
HETATM   12  C   UNL     1     -46.735 -51.745  14.174  1.00  0.00     0.007 A 
HETATM   13  C   UNL     1     -46.601 -51.622  12.683  1.00  0.00     0.007 A 
ENDBRANCH   7  11
ENDBRANCH   3   7
BRANCH   4  14
HETATM   14  C   UNL     1     -39.675 -50.635  12.673  1.00  0.00     0.051 A 
HETATM   15  C   UNL     1     -38.501 -51.174  13.192  1.00  0.00     0.032 A 
HETATM   16  C   UNL     1     -37.294 -50.988  12.520  1.00  0.00     0.019 A 
HETATM   17  C   UNL     1     -37.297 -50.255  11.346  1.00  0.00     0.088 A 
HETATM   18  N   UNL     1     -38.406 -49.703  10.814  1.00  0.00    -0.373 N 
HETATM   19  C   UNL     1     -39.562 -49.904  11.491  1.00  0.00     0.117 A 
ATOM     20  HN  UNL     1     -38.377 -49.164   9.948  1.00  0.00     0.164 HD
ENDBRANCH   4  14
TORSDOF 4
ENDMDL
MODEL 2
REMARK VINA RESULT:      -5.7      2.165      3.329
REMARK  4 active torsions:
REMARK  status: ('A' for Active; 'I' for Inactive)
REMARK       I    between atoms: C_2  and  N_3 
REMARK       I    between atoms: C_2  and  N_11 
REMARK    1  A    between atoms: N_3  and  C_4 
REMARK    2  A    between atoms: C_4  and  C_5 
REMARK    3  A    between atoms: C_4  and  C_8 
REMARK    4  A    between atoms: N_11  and  C_12 
ROOT
HETATM    1  O   UNL     1     -42.765 -50.062  13.706  1.00  0.00    -0.247 OA
HETATM    2  C   UNL     1     -42.592 -50.681  12.664  1.00  0.00     0.321 C 
HETATM    3  N   UNL     1     -43.116 -51.933  12.451  1.00  0.00    -0.338 N 
HETATM    4  N   UNL     1     -41.854 -50.258  11.580  1.00  0.00    -0.308 N 
HETATM    5  H   UNL     1     -43.146 -52.292  11.511  1.00  0.00     0.164 HD
HETATM    6  H   UNL     1     -41.614 -50.967  10.904  1.00  0.00     0.170 HD
ENDROOT
BRANCH   3   7
HETATM    7  C   UNL     1     -43.960 -52.587  13.432  1.00  0.00     0.094 C 
BRANCH   7   8
HETATM    8  C   UNL     1     -45.396 -52.370  13.022  1.00  0.00     0.009 A 
HETATM    9  C   UNL     1     -46.240 -51.374  13.791  1.00  0.00     0.007 A 
HETATM   10  C   UNL     1     -46.544 -52.840  13.889  1.00  0.00     0.007 A 
ENDBRANCH   7   8
BRANCH   7  11
HETATM   11  C   UNL     1     -43.563 -54.041  13.455  1.00  0.00     0.009 A 
HETATM   12  C   UNL     1     -43.863 -54.963  14.612  1.00  0.00     0.007 A 
HETATM   13  C   UNL     1     -42.458 -54.481  14.389  1.00  0.00     0.007 A 
ENDBRANCH   7  11
ENDBRANCH   3   7
BRANCH   4  14
HETATM   14  C   UNL     1     -41.240 -48.998  11.428  1.00  0.00     0.051 A 
HETATM   15  C   UNL     1     -40.180 -48.550  12.212  1.00  0.00     0.032 A 
HETATM   16  C   UNL     1     -39.635 -47.286  11.988  1.00  0.00     0.019 A 
HETATM   17  C   UNL     1     -40.176 -46.500  10.986  1.00  0.00     0.088 A 
HETATM   18  N   UNL     1     -41.210 -46.887  10.211  1.00  0.00    -0.373 N 
HETATM   19  C   UNL     1     -41.716 -48.121  10.454  1.00  0.00     0.117 A 
ATOM     20  HN  UNL     1     -41.591 -46.284   9.482  1.00  0.00     0.164 HD
ENDBRANCH   4  14
TORSDOF 4
ENDMDL
MODEL 3
REMARK VINA RESULT:      -5.5      3.698      5.896
REMARK  4 active torsions:
REMARK  status: ('A' for Active; 'I' for Inactive)
REMARK       I    between atoms: C_2  and  N_3 
REMARK       I    between atoms: C_2  and  N_11 
REMARK    1  A    between atoms: N_3  and  C_4 
REMARK    2  A    between atoms: C_4  and  C_5 
REMARK    3  A    between atoms: C_4  and  C_8 
REMARK    4  A    between atoms: N_11  and  C_12 
ROOT
HETATM    1  O   UNL     1     -42.154 -49.331  12.461  1.00  0.00    -0.247 OA
HETATM    2  C   UNL     1     -41.493 -49.531  11.450  1.00  0.00     0.321 C 
HETATM    3  N   UNL     1     -41.442 -48.635  10.410  1.00  0.00    -0.338 N 
HETATM    4  N   UNL     1     -40.736 -50.651  11.181  1.00  0.00    -0.308 N 
HETATM    5  H   UNL     1     -40.714 -48.732   9.722  1.00  0.00     0.164 HD
HETATM    6  H   UNL     1     -40.445 -50.769  10.223  1.00  0.00     0.170 HD
ENDROOT
BRANCH   3   7
HETATM    7  C   UNL     1     -42.131 -47.361  10.463  1.00  0.00     0.094 C 
BRANCH   7   8
HETATM    8  C   UNL     1     -41.090 -46.271  10.381  1.00  0.00     0.009 A 
HETATM    9  C   UNL     1     -40.413 -45.800  11.652  1.00  0.00     0.007 A 
HETATM   10  C   UNL     1     -41.354 -44.885  10.926  1.00  0.00     0.007 A 
ENDBRANCH   7   8
BRANCH   7  11
HETATM   11  C   UNL     1     -43.104 -47.338   9.311  1.00  0.00     0.009 A 
HETATM   12  C   UNL     1     -44.011 -46.167   9.018  1.00  0.00     0.007 A 
HETATM   13  C   UNL     1     -44.585 -47.423   9.607  1.00  0.00     0.007 A 
ENDBRANCH   7  11
ENDBRANCH   3   7
BRANCH   4  14
HETATM   14  C   UNL     1     -40.505 -51.732  12.057  1.00  0.00     0.051 A 
HETATM   15  C   UNL     1     -39.685 -51.662  13.180  1.00  0.00     0.032 A 
HETATM   16  C   UNL     1     -39.516 -52.785  13.989  1.00  0.00     0.019 A 
HETATM   17  C   UNL     1     -40.170 -53.955  13.641  1.00  0.00     0.088 A 
HETATM   18  N   UNL     1     -40.962 -54.073  12.556  1.00  0.00    -0.373 N 
HETATM   19  C   UNL     1     -41.105 -52.963  11.792  1.00  0.00     0.117 A 
ATOM     20  HN  UNL     1     -41.428 -54.950  12.323  1.00  0.00     0.164 HD
ENDBRANCH   4  14
TORSDOF 4
ENDMDL
MODEL 4
REMARK VINA RESULT:      -5.5      1.855      6.474
REMARK  4 active torsions:
REMARK  status: ('A' for Active; 'I' for Inactive)
REMARK       I    between atoms: C_2  and  N_3 
REMARK       I    between atoms: C_2  and  N_11 
REMARK    1  A    between atoms: N_3  and  C_4 
REMARK    2  A    between atoms: C_4  and  C_5 
REMARK    3  A    between atoms: C_4  and  C_8 
REMARK    4  A    between atoms: N_11  and  C_12 
ROOT
HETATM    1  O   UNL     1     -42.309 -50.830  13.619  1.00  0.00    -0.247 OA
HETATM    2  C   UNL     1     -42.150 -51.358  12.526  1.00  0.00     0.321 C 
HETATM    3  N   UNL     1     -41.267 -50.875  11.591  1.00  0.00    -0.338 N 
HETATM    4  N   UNL     1     -42.818 -52.468  12.055  1.00  0.00    -0.308 N 
HETATM    5  H   UNL     1     -41.004 -51.468  10.821  1.00  0.00     0.164 HD
HETATM    6  H   UNL     1     -42.749 -52.639  11.064  1.00  0.00     0.170 HD
ENDROOT
BRANCH   3   7
HETATM    7  C   UNL     1     -40.420 -49.730  11.859  1.00  0.00     0.094 C 
BRANCH   7   8
HETATM    8  C   UNL     1     -39.005 -50.108  11.490  1.00  0.00     0.009 A 
HETATM    9  C   UNL     1     -38.113 -50.740  12.539  1.00  0.00     0.007 A 
HETATM   10  C   UNL     1     -37.817 -49.354  12.046  1.00  0.00     0.007 A 
ENDBRANCH   7   8
BRANCH   7  11
HETATM   11  C   UNL     1     -40.959 -48.582  11.043  1.00  0.00     0.009 A 
HETATM   12  C   UNL     1     -40.489 -47.158  11.208  1.00  0.00     0.007 A 
HETATM   13  C   UNL     1     -41.843 -47.559  11.720  1.00  0.00     0.007 A 
ENDBRANCH   7  11
ENDBRANCH   3   7
BRANCH   4  14
HETATM   14  C   UNL     1     -43.738 -53.258  12.776  1.00  0.00     0.051 A 
HETATM   15  C   UNL     1     -43.371 -54.290  13.635  1.00  0.00     0.032 A 
HETATM   16  C   UNL     1     -44.352 -55.018  14.307  1.00  0.00     0.019 A 
HETATM   17  C   UNL     1     -45.680 -54.695  14.089  1.00  0.00     0.088 A 
HETATM   18  N   UNL     1     -46.082 -53.714  13.257  1.00  0.00    -0.373 N 
HETATM   19  C   UNL     1     -45.104 -53.025  12.621  1.00  0.00     0.117 A 
ATOM     20  HN  UNL     1     -47.069 -53.501  13.113  1.00  0.00     0.164 HD
ENDBRANCH   4  14
TORSDOF 4
ENDMDL
MODEL 5
REMARK VINA RESULT:      -5.4      1.822      6.716
REMARK  4 active torsions:
REMARK  status: ('A' for Active; 'I' for Inactive)
REMARK       I    between atoms: C_2  and  N_3 
REMARK       I    between atoms: C_2  and  N_11 
REMARK    1  A    between atoms: N_3  and  C_4 
REMARK    2  A    between atoms: C_4  and  C_5 
REMARK    3  A    between atoms: C_4  and  C_8 
REMARK    4  A    between atoms: N_11  and  C_12 
ROOT
HETATM    1  O   UNL     1     -41.846 -50.838  13.222  1.00  0.00    -0.247 OA
HETATM    2  C   UNL     1     -41.773 -51.451  12.165  1.00  0.00     0.321 C 
HETATM    3  N   UNL     1     -40.943 -51.065  11.140  1.00  0.00    -0.338 N 
HETATM    4  N   UNL     1     -42.497 -52.574  11.824  1.00  0.00    -0.308 N 
HETATM    5  H   UNL     1     -40.746 -51.721  10.403  1.00  0.00     0.164 HD
HETATM    6  H   UNL     1     -42.498 -52.820  10.846  1.00  0.00     0.170 HD
ENDROOT
BRANCH   3   7
HETATM    7  C   UNL     1     -40.053 -49.928  11.265  1.00  0.00     0.094 C 
BRANCH   7   8
HETATM    8  C   UNL     1     -40.887 -48.731  11.654  1.00  0.00     0.009 A 
HETATM    9  C   UNL     1     -41.624 -47.962  10.577  1.00  0.00     0.007 A 
HETATM   10  C   UNL     1     -40.468 -47.324  11.289  1.00  0.00     0.007 A 
ENDBRANCH   7   8
BRANCH   7  11
HETATM   11  C   UNL     1     -39.017 -50.290  12.298  1.00  0.00     0.009 A 
HETATM   12  C   UNL     1     -37.993 -49.312  12.821  1.00  0.00     0.007 A 
HETATM   13  C   UNL     1     -37.570 -50.396  11.872  1.00  0.00     0.007 A 
ENDBRANCH   7  11
ENDBRANCH   3   7
BRANCH   4  14
HETATM   14  C   UNL     1     -43.385 -53.281  12.661  1.00  0.00     0.051 A 
HETATM   15  C   UNL     1     -42.978 -54.163  13.658  1.00  0.00     0.032 A 
HETATM   16  C   UNL     1     -43.930 -54.818  14.438  1.00  0.00     0.019 A 
HETATM   17  C   UNL     1     -45.270 -54.576  14.188  1.00  0.00     0.088 A 
HETATM   18  N   UNL     1     -45.710 -53.741  13.225  1.00  0.00    -0.373 N 
HETATM   19  C   UNL     1     -44.759 -53.120  12.486  1.00  0.00     0.117 A 
ATOM     20  HN  UNL     1     -46.705 -53.586  13.061  1.00  0.00     0.164 HD
ENDBRANCH   4  14
TORSDOF 4
ENDMDL
MODEL 6
REMARK VINA RESULT:      -5.1      1.457      2.432
REMARK  4 active torsions:
REMARK  status: ('A' for Active; 'I' for Inactive)
REMARK       I    between atoms: C_2  and  N_3 
REMARK       I    between atoms: C_2  and  N_11 
REMARK    1  A    between atoms: N_3  and  C_4 
REMARK    2  A    between atoms: C_4  and  C_5 
REMARK    3  A    between atoms: C_4  and  C_8 
REMARK    4  A    between atoms: N_11  and  C_12 
ROOT
HETATM    1  O   UNL     1     -42.378 -51.273  14.509  1.00  0.00    -0.247 OA
HETATM    2  C   UNL     1     -42.699 -51.633  13.384  1.00  0.00     0.321 C 
HETATM    3  N   UNL     1     -43.867 -52.308  13.128  1.00  0.00    -0.338 N 
HETATM    4  N   UNL     1     -41.964 -51.452  12.232  1.00  0.00    -0.308 N 
HETATM    5  H   UNL     1     -44.193 -52.370  12.177  1.00  0.00     0.164 HD
HETATM    6  H   UNL     1     -42.246 -52.003  11.436  1.00  0.00     0.170 HD
ENDROOT
BRANCH   3   7
HETATM    7  C   UNL     1     -44.830 -52.595  14.173  1.00  0.00     0.094 C 
BRANCH   7   8
HETATM    8  C   UNL     1     -45.589 -51.322  14.461  1.00  0.00     0.009 A 
HETATM    9  C   UNL     1     -45.889 -50.951  15.898  1.00  0.00     0.007 A 
HETATM   10  C   UNL     1     -47.009 -51.351  14.983  1.00  0.00     0.007 A 
ENDBRANCH   7   8
BRANCH   7  11
HETATM   11  C   UNL     1     -45.712 -53.708  13.666  1.00  0.00     0.009 A 
HETATM   12  C   UNL     1     -46.510 -54.610  14.576  1.00  0.00     0.007 A 
HETATM   13  C   UNL     1     -45.281 -55.140  13.895  1.00  0.00     0.007 A 
ENDBRANCH   7  11
ENDBRANCH   3   7
BRANCH   4  14
HETATM   14  C   UNL     1     -40.754 -50.737  12.117  1.00  0.00     0.051 A 
HETATM   15  C   UNL     1     -39.519 -51.227  12.535  1.00  0.00     0.032 A 
HETATM   16  C   UNL     1     -38.373 -50.448  12.380  1.00  0.00     0.019 A 
HETATM   17  C   UNL     1     -38.500 -49.190  11.816  1.00  0.00     0.088 A 
HETATM   18  N   UNL     1     -39.676 -48.670  11.409  1.00  0.00    -0.373 N 
HETATM   19  C   UNL     1     -40.769 -49.454  11.573  1.00  0.00     0.117 A 
ATOM     20  HN  UNL     1     -39.739 -47.738  11.000  1.00  0.00     0.164 HD
ENDBRANCH   4  14
TORSDOF 4
ENDMDL
MODEL 7
REMARK VINA RESULT:      -5.0      2.957      4.580
REMARK  4 active torsions:
REMARK  status: ('A' for Active; 'I' for Inactive)
REMARK       I    between atoms: C_2  and  N_3 
REMARK       I    between atoms: C_2  and  N_11 
REMARK    1  A    between atoms: N_3  and  C_4 
REMARK    2  A    between atoms: C_4  and  C_5 
REMARK    3  A    between atoms: C_4  and  C_8 
REMARK    4  A    between atoms: N_11  and  C_12 
ROOT
HETATM    1  O   UNL     1     -41.388 -50.122  13.645  1.00  0.00    -0.247 OA
HETATM    2  C   UNL     1     -41.677 -50.621  12.565  1.00  0.00     0.321 C 
HETATM    3  N   UNL     1     -41.761 -51.979  12.376  1.00  0.00    -0.338 N 
HETATM    4  N   UNL     1     -41.933 -49.938  11.396  1.00  0.00    -0.308 N 
HETATM    5  H   UNL     1     -42.225 -52.326  11.552  1.00  0.00     0.164 HD
HETATM    6  H   UNL     1     -41.924 -50.488  10.550  1.00  0.00     0.170 HD
ENDROOT
BRANCH   3   7
HETATM    7  C   UNL     1     -41.564 -52.917  13.464  1.00  0.00     0.094 C 
BRANCH   7   8
HETATM    8  C   UNL     1     -42.634 -53.978  13.356  1.00  0.00     0.009 A 
HETATM    9  C   UNL     1     -43.988 -53.727  13.987  1.00  0.00     0.007 A 
HETATM   10  C   UNL     1     -43.080 -54.773  14.563  1.00  0.00     0.007 A 
ENDBRANCH   7   8
BRANCH   7  11
HETATM   11  C   UNL     1     -40.168 -53.467  13.324  1.00  0.00     0.009 A 
HETATM   12  C   UNL     1     -39.591 -54.506  14.255  1.00  0.00     0.007 A 
HETATM   13  C   UNL     1     -39.127 -53.081  14.351  1.00  0.00     0.007 A 
ENDBRANCH   7  11
ENDBRANCH   3   7
BRANCH   4  14
HETATM   14  C   UNL     1     -42.004 -48.537  11.245  1.00  0.00     0.051 A 
HETATM   15  C   UNL     1     -40.895 -47.720  11.047  1.00  0.00     0.032 A 
HETATM   16  C   UNL     1     -41.062 -46.343  10.907  1.00  0.00     0.019 A 
HETATM   17  C   UNL     1     -42.343 -45.821  10.980  1.00  0.00     0.088 A 
HETATM   18  N   UNL     1     -43.444 -46.573  11.184  1.00  0.00    -0.373 N 
HETATM   19  C   UNL     1     -43.246 -47.907  11.314  1.00  0.00     0.117 A 
ATOM     20  HN  UNL     1     -44.375 -46.160  11.237  1.00  0.00     0.164 HD
ENDBRANCH   4  14
TORSDOF 4
ENDMDL
MODEL 8
REMARK VINA RESULT:      -4.9      2.081      2.383
REMARK  4 active torsions:
REMARK  status: ('A' for Active; 'I' for Inactive)
REMARK       I    between atoms: C_2  and  N_3 
REMARK       I    between atoms: C_2  and  N_11 
REMARK    1  A    between atoms: N_3  and  C_4 
REMARK    2  A    between atoms: C_4  and  C_5 
REMARK    3  A    between atoms: C_4  and  C_8 
REMARK    4  A    between atoms: N_11  and  C_12 
ROOT
HETATM    1  O   UNL     1     -43.217 -49.954  13.443  1.00  0.00    -0.247 OA
HETATM    2  C   UNL     1     -42.761 -50.679  12.568  1.00  0.00     0.321 C 
HETATM    3  N   UNL     1     -43.194 -51.969  12.375  1.00  0.00    -0.338 N 
HETATM    4  N   UNL     1     -41.761 -50.351  11.678  1.00  0.00    -0.308 N 
HETATM    5  H   UNL     1     -42.964 -52.433  11.512  1.00  0.00     0.164 HD
HETATM    6  H   UNL     1     -41.339 -51.121  11.182  1.00  0.00     0.170 HD
ENDROOT
BRANCH   3   7
HETATM    7  C   UNL     1     -44.265 -52.542  13.167  1.00  0.00     0.094 C 
BRANCH   7   8
HETATM    8  C   UNL     1     -43.676 -52.986  14.484  1.00  0.00     0.009 A 
HETATM    9  C   UNL     1     -42.931 -54.304  14.553  1.00  0.00     0.007 A 
HETATM   10  C   UNL     1     -44.251 -54.156  15.251  1.00  0.00     0.007 A 
ENDBRANCH   7   8
BRANCH   7  11
HETATM   11  C   UNL     1     -45.320 -51.477  13.318  1.00  0.00     0.009 A 
HETATM   12  C   UNL     1     -46.569 -51.661  14.146  1.00  0.00     0.007 A 
HETATM   13  C   UNL     1     -46.661 -51.679  12.648  1.00  0.00     0.007 A 
ENDBRANCH   7  11
ENDBRANCH   3   7
BRANCH   4  14
HETATM   14  C   UNL     1     -41.142 -49.090  11.545  1.00  0.00     0.051 A 
HETATM   15  C   UNL     1     -40.124 -48.632  12.378  1.00  0.00     0.032 A 
HETATM   16  C   UNL     1     -39.570 -47.370  12.169  1.00  0.00     0.019 A 
HETATM   17  C   UNL     1     -40.062 -46.595  11.133  1.00  0.00     0.088 A 
HETATM   18  N   UNL     1     -41.055 -46.991  10.311  1.00  0.00    -0.373 N 
HETATM   19  C   UNL     1     -41.570 -48.224  10.540  1.00  0.00     0.117 A 
ATOM     20  HN  UNL     1     -41.399 -46.396   9.558  1.00  0.00     0.164 HD
ENDBRANCH   4  14
TORSDOF 4
ENDMDL
MODEL 9
REMARK VINA RESULT:      -4.8     14.986     16.338
REMARK  4 active torsions:
REMARK  status: ('A' for Active; 'I' for Inactive)
REMARK       I    between atoms: C_2  and  N_3 
REMARK       I    between atoms: C_2  and  N_11 
REMARK    1  A    between atoms: N_3  and  C_4 
REMARK    2  A    between atoms: C_4  and  C_5 
REMARK    3  A    between atoms: C_4  and  C_8 
REMARK    4  A    between atoms: N_11  and  C_12 
ROOT
HETATM    1  O   UNL     1     -51.227 -50.202  -1.058  1.00  0.00    -0.247 OA
HETATM    2  C   UNL     1     -50.638 -50.729  -0.123  1.00  0.00     0.321 C 
HETATM    3  N   UNL     1     -50.298 -52.060  -0.119  1.00  0.00    -0.338 N 
HETATM    4  N   UNL     1     -50.251 -50.112   1.046  1.00  0.00    -0.308 N 
HETATM    5  H   UNL     1     -49.621 -52.386   0.550  1.00  0.00     0.164 HD
HETATM    6  H   UNL     1     -49.992 -50.724   1.805  1.00  0.00     0.170 HD
ENDROOT
BRANCH   3   7
HETATM    7  C   UNL     1     -50.569 -52.923  -1.253  1.00  0.00     0.094 C 
BRANCH   7   8
HETATM    8  C   UNL     1     -49.291 -53.651  -1.593  1.00  0.00     0.009 A 
HETATM    9  C   UNL     1     -48.835 -53.706  -3.036  1.00  0.00     0.007 A 
HETATM   10  C   UNL     1     -49.306 -54.957  -2.355  1.00  0.00     0.007 A 
ENDBRANCH   7   8
BRANCH   7  11
HETATM   11  C   UNL     1     -51.687 -53.848  -0.845  1.00  0.00     0.009 A 
HETATM   12  C   UNL     1     -52.687 -54.418  -1.822  1.00  0.00     0.007 A 
HETATM   13  C   UNL     1     -53.108 -53.331  -0.876  1.00  0.00     0.007 A 
ENDBRANCH   7  11
ENDBRANCH   3   7
BRANCH   4  14
HETATM   14  C   UNL     1     -50.376 -48.740   1.348  1.00  0.00     0.051 A 
HETATM   15  C   UNL     1     -49.327 -47.828   1.268  1.00  0.00     0.032 A 
HETATM   16  C   UNL     1     -49.544 -46.488   1.586  1.00  0.00     0.019 A 
HETATM   17  C   UNL     1     -50.812 -46.101   1.985  1.00  0.00     0.088 A 
HETATM   18  N   UNL     1     -51.853 -46.950   2.090  1.00  0.00    -0.373 N 
HETATM   19  C   UNL     1     -51.608 -48.245   1.773  1.00  0.00     0.117 A 
ATOM     20  HN  UNL     1     -52.776 -46.636   2.391  1.00  0.00     0.164 HD
ENDBRANCH   4  14
TORSDOF 4
ENDMDL
