MODEL 1
REMARK VINA RESULT:      -6.7      0.000      0.000
REMARK  6 active torsions:
REMARK  status: ('A' for Active; 'I' for Inactive)
REMARK    1  A    between atoms: O_2  and  C_3 
REMARK    2  A    between atoms: C_3  and  C_4 
REMARK    3  A    between atoms: C_4  and  N_5 
REMARK    4  A    between atoms: C_6  and  N_18 
REMARK    5  A    between atoms: N_18  and  C_20 
REMARK    6  A    between atoms: C_20  and  C_21 
ROOT
HETATM    1  N   UNL     1     -40.658 -48.772  11.949  1.00  0.00    -0.172 N 
HETATM    2  C   UNL     1     -41.670 -49.727  12.060  1.00  0.00     0.684 A 
HETATM    3  N   UNL     1     -42.751 -49.308  11.420  1.00  0.00    -0.174 N 
ATOM      4  HN  UNL     1     -43.643 -49.798  11.343  1.00  0.00     0.186 HD
HETATM    5  C   UNL     1     -42.439 -48.101  10.889  1.00  0.00     0.160 A 
HETATM    6  N   UNL     1     -43.293 -47.260  10.207  1.00  0.00    -0.287 N 
HETATM    7  C   UNL     1     -44.688 -47.584   9.995  1.00  0.00     0.163 C 
HETATM    8  C   UNL     1     -42.820 -46.028   9.773  1.00  0.00     0.330 A 
HETATM    9  O   UNL     1     -43.511 -45.196   9.188  1.00  0.00    -0.246 OA
HETATM   10  N   UNL     1     -41.491 -45.741  10.025  1.00  0.00    -0.273 N 
HETATM   11  C   UNL     1     -40.573 -46.551  10.657  1.00  0.00     0.280 A 
HETATM   12  O   UNL     1     -39.396 -46.220  10.768  1.00  0.00    -0.265 OA
HETATM   13  C   UNL     1     -41.140 -47.767  11.135  1.00  0.00     0.164 A 
HETATM   14  H   UNL     1     -41.163 -44.851   9.691  1.00  0.00     0.173 HD
ENDROOT
BRANCH   2  15
HETATM   15  N   UNL     1     -41.620 -50.853  12.842  1.00  0.00    -0.217 N 
HETATM   16  C   UNL     1     -42.116 -50.659  14.207  1.00  0.00     0.169 C 
BRANCH  15  17
HETATM   17  C   UNL     1     -41.764 -52.194  12.244  1.00  0.00     0.179 C 
BRANCH  17  18
HETATM   18  C   UNL     1     -42.760 -53.134  12.910  1.00  0.00    -0.040 A 
HETATM   19  C   UNL     1     -44.112 -53.137  12.533  1.00  0.00     0.009 A 
HETATM   20  C   UNL     1     -45.021 -54.014  13.135  1.00  0.00     0.001 A 
HETATM   21  C   UNL     1     -44.596 -54.898  14.125  1.00  0.00     0.000 A 
HETATM   22  C   UNL     1     -43.258 -54.907  14.515  1.00  0.00     0.001 A 
HETATM   23  C   UNL     1     -42.347 -54.034  13.912  1.00  0.00     0.009 A 
ENDBRANCH  17  18
ENDBRANCH  15  17
ENDBRANCH   2  15
BRANCH   1  24
HETATM   24  C   UNL     1     -39.384 -48.723  12.646  1.00  0.00     0.174 C 
BRANCH  24  25
HETATM   25  C   UNL     1     -38.228 -49.434  11.939  1.00  0.00     0.187 C 
BRANCH  25  26
HETATM   26  O   UNL     1     -38.348 -50.850  12.082  1.00  0.00    -0.394 OA
HETATM   27  C   UNL     1     -38.015 -51.268  13.401  1.00  0.00     0.201 C 
ENDBRANCH  25  26
ENDBRANCH  24  25
ENDBRANCH   1  24
TORSDOF 6
ENDMDL
MODEL 2
REMARK VINA RESULT:      -6.6      1.783      2.155
REMARK  6 active torsions:
REMARK  status: ('A' for Active; 'I' for Inactive)
REMARK    1  A    between atoms: O_2  and  C_3 
REMARK    2  A    between atoms: C_3  and  C_4 
REMARK    3  A    between atoms: C_4  and  N_5 
REMARK    4  A    between atoms: C_6  and  N_18 
REMARK    5  A    between atoms: N_18  and  C_20 
REMARK    6  A    between atoms: C_20  and  C_21 
ROOT
HETATM    1  N   UNL     1     -41.205 -48.331  12.412  1.00  0.00    -0.172 N 
HETATM    2  C   UNL     1     -42.102 -49.364  12.137  1.00  0.00     0.684 A 
HETATM    3  N   UNL     1     -42.996 -48.956  11.250  1.00  0.00    -0.174 N 
ATOM      4  HN  UNL     1     -43.774 -49.498  10.873  1.00  0.00     0.186 HD
HETATM    5  C   UNL     1     -42.673 -47.677  10.942  1.00  0.00     0.160 A 
HETATM    6  N   UNL     1     -43.382 -46.829  10.118  1.00  0.00    -0.287 N 
HETATM    7  C   UNL     1     -44.619 -47.228   9.481  1.00  0.00     0.163 C 
HETATM    8  C   UNL     1     -42.936 -45.523   9.952  1.00  0.00     0.330 A 
HETATM    9  O   UNL     1     -43.517 -44.683   9.266  1.00  0.00    -0.246 OA
HETATM   10  N   UNL     1     -41.770 -45.170  10.605  1.00  0.00    -0.273 N 
HETATM   11  C   UNL     1     -40.989 -45.976  11.403  1.00  0.00     0.280 A 
HETATM   12  O   UNL     1     -39.932 -45.575  11.881  1.00  0.00    -0.265 OA
HETATM   13  C   UNL     1     -41.538 -47.278  11.585  1.00  0.00     0.164 A 
HETATM   14  H   UNL     1     -41.455 -44.225  10.461  1.00  0.00     0.173 HD
ENDROOT
BRANCH   2  15
HETATM   15  N   UNL     1     -42.158 -50.567  12.798  1.00  0.00    -0.217 N 
HETATM   16  C   UNL     1     -41.146 -51.535  12.367  1.00  0.00     0.169 C 
BRANCH  15  17
HETATM   17  C   UNL     1     -42.627 -50.639  14.195  1.00  0.00     0.179 C 
BRANCH  17  18
HETATM   18  C   UNL     1     -44.112 -50.903  14.402  1.00  0.00    -0.040 A 
HETATM   19  C   UNL     1     -44.946 -51.221  13.319  1.00  0.00     0.009 A 
HETATM   20  C   UNL     1     -46.307 -51.482  13.514  1.00  0.00     0.001 A 
HETATM   21  C   UNL     1     -46.857 -51.424  14.794  1.00  0.00     0.000 A 
HETATM   22  C   UNL     1     -46.045 -51.106  15.882  1.00  0.00     0.001 A 
HETATM   23  C   UNL     1     -44.684 -50.850  15.688  1.00  0.00     0.009 A 
ENDBRANCH  17  18
ENDBRANCH  15  17
ENDBRANCH   2  15
BRANCH   1  24
HETATM   24  C   UNL     1     -40.192 -48.268  13.452  1.00  0.00     0.174 C 
BRANCH  24  25
HETATM   25  C   UNL     1     -38.861 -48.941  13.106  1.00  0.00     0.187 C 
BRANCH  25  26
HETATM   26  O   UNL     1     -38.639 -48.919  11.695  1.00  0.00    -0.394 OA
HETATM   27  C   UNL     1     -37.643 -49.860  11.313  1.00  0.00     0.201 C 
ENDBRANCH  25  26
ENDBRANCH  24  25
ENDBRANCH   1  24
TORSDOF 6
ENDMDL
MODEL 3
REMARK VINA RESULT:      -6.4      1.225      1.692
REMARK  6 active torsions:
REMARK  status: ('A' for Active; 'I' for Inactive)
REMARK    1  A    between atoms: O_2  and  C_3 
REMARK    2  A    between atoms: C_3  and  C_4 
REMARK    3  A    between atoms: C_4  and  N_5 
REMARK    4  A    between atoms: C_6  and  N_18 
REMARK    5  A    between atoms: N_18  and  C_20 
REMARK    6  A    between atoms: C_20  and  C_21 
ROOT
HETATM    1  N   UNL     1     -40.780 -48.600  11.984  1.00  0.00    -0.172 N 
HETATM    2  C   UNL     1     -41.775 -49.572  12.099  1.00  0.00     0.684 A 
HETATM    3  N   UNL     1     -42.842 -49.202  11.408  1.00  0.00    -0.174 N 
ATOM      4  HN  UNL     1     -43.721 -49.713  11.321  1.00  0.00     0.186 HD
HETATM    5  C   UNL     1     -42.537 -48.010  10.841  1.00  0.00     0.160 A 
HETATM    6  N   UNL     1     -43.385 -47.214  10.100  1.00  0.00    -0.287 N 
HETATM    7  C   UNL     1     -44.765 -47.576   9.855  1.00  0.00     0.163 C 
HETATM    8  C   UNL     1     -42.923 -45.989   9.633  1.00  0.00     0.330 A 
HETATM    9  O   UNL     1     -43.611 -45.196   8.994  1.00  0.00    -0.246 OA
HETATM   10  N   UNL     1     -41.610 -45.664   9.917  1.00  0.00    -0.273 N 
HETATM   11  C   UNL     1     -40.697 -46.429  10.610  1.00  0.00     0.280 A 
HETATM   12  O   UNL     1     -39.531 -46.069  10.747  1.00  0.00    -0.265 OA
HETATM   13  C   UNL     1     -41.254 -47.638  11.117  1.00  0.00     0.164 A 
HETATM   14  H   UNL     1     -41.289 -44.780   9.560  1.00  0.00     0.173 HD
ENDROOT
BRANCH   2  15
HETATM   15  N   UNL     1     -41.728 -50.666  12.926  1.00  0.00    -0.217 N 
HETATM   16  C   UNL     1     -42.394 -50.472  14.217  1.00  0.00     0.169 C 
BRANCH  15  17
HETATM   17  C   UNL     1     -41.696 -52.032  12.369  1.00  0.00     0.179 C 
BRANCH  17  18
HETATM   18  C   UNL     1     -42.639 -53.048  13.000  1.00  0.00    -0.040 A 
HETATM   19  C   UNL     1     -43.958 -53.188  12.543  1.00  0.00     0.009 A 
HETATM   20  C   UNL     1     -44.817 -54.135  13.112  1.00  0.00     0.001 A 
HETATM   21  C   UNL     1     -44.373 -54.952  14.151  1.00  0.00     0.000 A 
HETATM   22  C   UNL     1     -43.067 -54.825  14.621  1.00  0.00     0.001 A 
HETATM   23  C   UNL     1     -42.206 -53.882  14.049  1.00  0.00     0.009 A 
ENDBRANCH  17  18
ENDBRANCH  15  17
ENDBRANCH   2  15
BRANCH   1  24
HETATM   24  C   UNL     1     -39.531 -48.496  12.720  1.00  0.00     0.174 C 
BRANCH  24  25
HETATM   25  C   UNL     1     -39.612 -47.709  14.030  1.00  0.00     0.187 C 
BRANCH  25  26
HETATM   26  O   UNL     1     -38.931 -46.460  13.909  1.00  0.00    -0.394 OA
HETATM   27  C   UNL     1     -39.680 -45.402  14.493  1.00  0.00     0.201 C 
ENDBRANCH  25  26
ENDBRANCH  24  25
ENDBRANCH   1  24
TORSDOF 6
ENDMDL
MODEL 4
REMARK VINA RESULT:      -6.3      1.883      2.302
REMARK  6 active torsions:
REMARK  status: ('A' for Active; 'I' for Inactive)
REMARK    1  A    between atoms: O_2  and  C_3 
REMARK    2  A    between atoms: C_3  and  C_4 
REMARK    3  A    between atoms: C_4  and  N_5 
REMARK    4  A    between atoms: C_6  and  N_18 
REMARK    5  A    between atoms: N_18  and  C_20 
REMARK    6  A    between atoms: C_20  and  C_21 
ROOT
HETATM    1  N   UNL     1     -40.590 -49.408  13.084  1.00  0.00    -0.172 N 
HETATM    2  C   UNL     1     -41.460 -50.284  12.433  1.00  0.00     0.684 A 
HETATM    3  N   UNL     1     -42.003 -49.680  11.388  1.00  0.00    -0.174 N 
ATOM      4  HN  UNL     1     -42.681 -50.077  10.737  1.00  0.00     0.186 HD
HETATM    5  C   UNL     1     -41.480 -48.431  11.353  1.00  0.00     0.160 A 
HETATM    6  N   UNL     1     -41.824 -47.423  10.477  1.00  0.00    -0.287 N 
HETATM    7  C   UNL     1     -42.846 -47.594   9.466  1.00  0.00     0.163 C 
HETATM    8  C   UNL     1     -41.224 -46.177  10.615  1.00  0.00     0.330 A 
HETATM    9  O   UNL     1     -41.487 -45.207   9.907  1.00  0.00    -0.246 OA
HETATM   10  N   UNL     1     -40.278 -46.043  11.614  1.00  0.00    -0.273 N 
HETATM   11  C   UNL     1     -39.854 -47.017  12.492  1.00  0.00     0.280 A 
HETATM   12  O   UNL     1     -38.955 -46.804  13.300  1.00  0.00    -0.265 OA
HETATM   13  C   UNL     1     -40.557 -48.247  12.340  1.00  0.00     0.164 A 
HETATM   14  H   UNL     1     -39.844 -45.138  11.690  1.00  0.00     0.173 HD
ENDROOT
BRANCH   2  15
HETATM   15  N   UNL     1     -41.828 -51.525  12.889  1.00  0.00    -0.217 N 
HETATM   16  C   UNL     1     -40.964 -52.615  12.426  1.00  0.00     0.169 C 
BRANCH  15  17
HETATM   17  C   UNL     1     -42.489 -51.683  14.198  1.00  0.00     0.179 C 
BRANCH  17  18
HETATM   18  C   UNL     1     -44.010 -51.607  14.207  1.00  0.00    -0.040 A 
HETATM   19  C   UNL     1     -44.753 -51.889  13.051  1.00  0.00     0.009 A 
HETATM   20  C   UNL     1     -46.152 -51.836  13.067  1.00  0.00     0.001 A 
HETATM   21  C   UNL     1     -46.829 -51.495  14.237  1.00  0.00     0.000 A 
HETATM   22  C   UNL     1     -46.108 -51.207  15.394  1.00  0.00     0.001 A 
HETATM   23  C   UNL     1     -44.710 -51.265  15.381  1.00  0.00     0.009 A 
ENDBRANCH  17  18
ENDBRANCH  15  17
ENDBRANCH   2  15
BRANCH   1  24
HETATM   24  C   UNL     1     -39.934 -49.577  14.369  1.00  0.00     0.174 C 
BRANCH  24  25
HETATM   25  C   UNL     1     -38.658 -50.422  14.342  1.00  0.00     0.187 C 
BRANCH  25  26
HETATM   26  O   UNL     1     -37.727 -49.896  13.397  1.00  0.00    -0.394 OA
HETATM   27  C   UNL     1     -37.450 -50.835  12.364  1.00  0.00     0.201 C 
ENDBRANCH  25  26
ENDBRANCH  24  25
ENDBRANCH   1  24
TORSDOF 6
ENDMDL
MODEL 5
REMARK VINA RESULT:      -6.2      2.688      5.991
REMARK  6 active torsions:
REMARK  status: ('A' for Active; 'I' for Inactive)
REMARK    1  A    between atoms: O_2  and  C_3 
REMARK    2  A    between atoms: C_3  and  C_4 
REMARK    3  A    between atoms: C_4  and  N_5 
REMARK    4  A    between atoms: C_6  and  N_18 
REMARK    5  A    between atoms: N_18  and  C_20 
REMARK    6  A    between atoms: C_20  and  C_21 
ROOT
HETATM    1  N   UNL     1     -41.673 -50.607  12.494  1.00  0.00    -0.172 N 
HETATM    2  C   UNL     1     -42.606 -49.602  12.750  1.00  0.00     0.684 A 
HETATM    3  N   UNL     1     -43.796 -50.141  12.969  1.00  0.00    -0.174 N 
ATOM      4  HN  UNL     1     -44.664 -49.645  13.173  1.00  0.00     0.186 HD
HETATM    5  C   UNL     1     -43.631 -51.483  12.870  1.00  0.00     0.160 A 
HETATM    6  N   UNL     1     -44.623 -52.437  12.944  1.00  0.00    -0.287 N 
HETATM    7  C   UNL     1     -46.017 -52.089  13.123  1.00  0.00     0.163 C 
HETATM    8  C   UNL     1     -44.287 -53.774  12.768  1.00  0.00     0.330 A 
HETATM    9  O   UNL     1     -45.103 -54.694  12.783  1.00  0.00    -0.246 OA
HETATM   10  N   UNL     1     -42.950 -54.063  12.565  1.00  0.00    -0.273 N 
HETATM   11  C   UNL     1     -41.904 -53.167  12.525  1.00  0.00     0.280 A 
HETATM   12  O   UNL     1     -40.742 -53.544  12.405  1.00  0.00    -0.265 OA
HETATM   13  C   UNL     1     -42.327 -51.812  12.645  1.00  0.00     0.164 A 
HETATM   14  H   UNL     1     -42.723 -55.037  12.453  1.00  0.00     0.173 HD
ENDROOT
BRANCH   2  15
HETATM   15  N   UNL     1     -42.376 -48.253  12.635  1.00  0.00    -0.217 N 
HETATM   16  C   UNL     1     -41.834 -47.632  13.847  1.00  0.00     0.169 C 
BRANCH  15  17
HETATM   17  C   UNL     1     -42.010 -47.658  11.336  1.00  0.00     0.179 C 
BRANCH  17  18
HETATM   18  C   UNL     1     -43.078 -47.683  10.250  1.00  0.00    -0.040 A 
HETATM   19  C   UNL     1     -44.438 -47.566  10.574  1.00  0.00     0.009 A 
HETATM   20  C   UNL     1     -45.416 -47.571   9.572  1.00  0.00     0.001 A 
HETATM   21  C   UNL     1     -45.050 -47.698   8.233  1.00  0.00     0.000 A 
HETATM   22  C   UNL     1     -43.704 -47.819   7.893  1.00  0.00     0.001 A 
HETATM   23  C   UNL     1     -42.726 -47.810   8.892  1.00  0.00     0.009 A 
ENDBRANCH  17  18
ENDBRANCH  15  17
ENDBRANCH   2  15
BRANCH   1  24
HETATM   24  C   UNL     1     -40.307 -50.470  12.017  1.00  0.00     0.174 C 
BRANCH  24  25
HETATM   25  C   UNL     1     -39.233 -50.477  13.108  1.00  0.00     0.187 C 
BRANCH  25  26
HETATM   26  O   UNL     1     -38.299 -51.534  12.886  1.00  0.00    -0.394 OA
HETATM   27  C   UNL     1     -37.052 -51.034  12.419  1.00  0.00     0.201 C 
ENDBRANCH  25  26
ENDBRANCH  24  25
ENDBRANCH   1  24
TORSDOF 6
ENDMDL
MODEL 6
REMARK VINA RESULT:      -6.0      1.723      2.432
REMARK  6 active torsions:
REMARK  status: ('A' for Active; 'I' for Inactive)
REMARK    1  A    between atoms: O_2  and  C_3 
REMARK    2  A    between atoms: C_3  and  C_4 
REMARK    3  A    between atoms: C_4  and  N_5 
REMARK    4  A    between atoms: C_6  and  N_18 
REMARK    5  A    between atoms: N_18  and  C_20 
REMARK    6  A    between atoms: C_20  and  C_21 
ROOT
HETATM    1  N   UNL     1     -40.794 -48.531  12.187  1.00  0.00    -0.172 N 
HETATM    2  C   UNL     1     -41.735 -49.561  12.143  1.00  0.00     0.684 A 
HETATM    3  N   UNL     1     -42.717 -49.234  11.317  1.00  0.00    -0.174 N 
ATOM      4  HN  UNL     1     -43.543 -49.792  11.098  1.00  0.00     0.186 HD
HETATM    5  C   UNL     1     -42.408 -48.011  10.821  1.00  0.00     0.160 A 
HETATM    6  N   UNL     1     -43.192 -47.246   9.983  1.00  0.00    -0.287 N 
HETATM    7  C   UNL     1     -44.500 -47.679   9.541  1.00  0.00     0.163 C 
HETATM    8  C   UNL     1     -42.745 -45.984   9.610  1.00  0.00     0.330 A 
HETATM    9  O   UNL     1     -43.384 -45.214   8.895  1.00  0.00    -0.246 OA
HETATM   10  N   UNL     1     -41.505 -45.593  10.081  1.00  0.00    -0.273 N 
HETATM   11  C   UNL     1     -40.653 -46.322  10.879  1.00  0.00     0.280 A 
HETATM   12  O   UNL     1     -39.541 -45.900  11.185  1.00  0.00    -0.265 OA
HETATM   13  C   UNL     1     -41.201 -47.575  11.280  1.00  0.00     0.164 A 
HETATM   14  H   UNL     1     -41.192 -44.682   9.788  1.00  0.00     0.173 HD
ENDROOT
BRANCH   2  15
HETATM   15  N   UNL     1     -41.737 -50.673  12.947  1.00  0.00    -0.217 N 
HETATM   16  C   UNL     1     -42.967 -50.849  13.726  1.00  0.00     0.169 C 
BRANCH  15  17
HETATM   17  C   UNL     1     -40.991 -51.886  12.561  1.00  0.00     0.179 C 
BRANCH  17  18
HETATM   18  C   UNL     1     -40.252 -52.615  13.675  1.00  0.00    -0.040 A 
HETATM   19  C   UNL     1     -39.696 -51.911  14.753  1.00  0.00     0.009 A 
HETATM   20  C   UNL     1     -39.034 -52.586  15.785  1.00  0.00     0.001 A 
HETATM   21  C   UNL     1     -38.913 -53.974  15.752  1.00  0.00     0.000 A 
HETATM   22  C   UNL     1     -39.455 -54.691  14.687  1.00  0.00     0.001 A 
HETATM   23  C   UNL     1     -40.122 -54.018  13.658  1.00  0.00     0.009 A 
ENDBRANCH  17  18
ENDBRANCH  15  17
ENDBRANCH   2  15
BRANCH   1  24
HETATM   24  C   UNL     1     -39.668 -48.377  13.092  1.00  0.00     0.174 C 
BRANCH  24  25
HETATM   25  C   UNL     1     -38.415 -49.170  12.713  1.00  0.00     0.187 C 
BRANCH  25  26
HETATM   26  O   UNL     1     -38.489 -49.608  11.356  1.00  0.00    -0.394 OA
HETATM   27  C   UNL     1     -37.226 -50.067  10.890  1.00  0.00     0.201 C 
ENDBRANCH  25  26
ENDBRANCH  24  25
ENDBRANCH   1  24
TORSDOF 6
ENDMDL
MODEL 7
REMARK VINA RESULT:      -5.9      2.778      6.741
REMARK  6 active torsions:
REMARK  status: ('A' for Active; 'I' for Inactive)
REMARK    1  A    between atoms: O_2  and  C_3 
REMARK    2  A    between atoms: C_3  and  C_4 
REMARK    3  A    between atoms: C_4  and  N_5 
REMARK    4  A    between atoms: C_6  and  N_18 
REMARK    5  A    between atoms: N_18  and  C_20 
REMARK    6  A    between atoms: C_20  and  C_21 
ROOT
HETATM    1  N   UNL     1     -41.332 -50.968  12.591  1.00  0.00    -0.172 N 
HETATM    2  C   UNL     1     -42.107 -49.818  12.745  1.00  0.00     0.684 A 
HETATM    3  N   UNL     1     -43.376 -50.154  12.918  1.00  0.00    -0.174 N 
ATOM      4  HN  UNL     1     -44.165 -49.520  13.046  1.00  0.00     0.186 HD
HETATM    5  C   UNL     1     -43.420 -51.508  12.891  1.00  0.00     0.160 A 
HETATM    6  N   UNL     1     -44.553 -52.293  12.951  1.00  0.00    -0.287 N 
HETATM    7  C   UNL     1     -45.881 -51.724  13.031  1.00  0.00     0.163 C 
HETATM    8  C   UNL     1     -44.422 -53.673  12.857  1.00  0.00     0.330 A 
HETATM    9  O   UNL     1     -45.372 -54.454  12.866  1.00  0.00    -0.246 OA
HETATM   10  N   UNL     1     -43.139 -54.176  12.747  1.00  0.00    -0.273 N 
HETATM   11  C   UNL     1     -41.964 -53.456  12.728  1.00  0.00     0.280 A 
HETATM   12  O   UNL     1     -40.871 -54.013  12.694  1.00  0.00    -0.265 OA
HETATM   13  C   UNL     1     -42.174 -52.047  12.759  1.00  0.00     0.164 A 
HETATM   14  H   UNL     1     -43.062 -55.178  12.694  1.00  0.00     0.173 HD
ENDROOT
BRANCH   2  15
HETATM   15  N   UNL     1     -41.663 -48.530  12.581  1.00  0.00    -0.217 N 
HETATM   16  C   UNL     1     -40.792 -48.054  13.660  1.00  0.00     0.169 C 
BRANCH  15  17
HETATM   17  C   UNL     1     -41.453 -47.969  11.233  1.00  0.00     0.179 C 
BRANCH  17  18
HETATM   18  C   UNL     1     -41.189 -46.472  11.151  1.00  0.00    -0.040 A 
HETATM   19  C   UNL     1     -39.941 -45.980  10.739  1.00  0.00     0.009 A 
HETATM   20  C   UNL     1     -39.708 -44.603  10.647  1.00  0.00     0.001 A 
HETATM   21  C   UNL     1     -40.716 -43.696  10.970  1.00  0.00     0.000 A 
HETATM   22  C   UNL     1     -41.962 -44.165  11.384  1.00  0.00     0.001 A 
HETATM   23  C   UNL     1     -42.197 -45.541  11.472  1.00  0.00     0.009 A 
ENDBRANCH  17  18
ENDBRANCH  15  17
ENDBRANCH   2  15
BRANCH   1  24
HETATM   24  C   UNL     1     -39.939 -51.070  12.190  1.00  0.00     0.174 C 
BRANCH  24  25
HETATM   25  C   UNL     1     -38.946 -51.282  13.336  1.00  0.00     0.187 C 
BRANCH  25  26
HETATM   26  O   UNL     1     -37.623 -51.460  12.828  1.00  0.00    -0.394 OA
HETATM   27  C   UNL     1     -37.371 -50.594  11.728  1.00  0.00     0.201 C 
ENDBRANCH  25  26
ENDBRANCH  24  25
ENDBRANCH   1  24
TORSDOF 6
ENDMDL
MODEL 8
REMARK VINA RESULT:      -5.8      4.398      6.871
REMARK  6 active torsions:
REMARK  status: ('A' for Active; 'I' for Inactive)
REMARK    1  A    between atoms: O_2  and  C_3 
REMARK    2  A    between atoms: C_3  and  C_4 
REMARK    3  A    between atoms: C_4  and  N_5 
REMARK    4  A    between atoms: C_6  and  N_18 
REMARK    5  A    between atoms: N_18  and  C_20 
REMARK    6  A    between atoms: C_20  and  C_21 
ROOT
HETATM    1  N   UNL     1     -41.321 -53.748  14.801  1.00  0.00    -0.172 N 
HETATM    2  C   UNL     1     -41.789 -54.778  15.619  1.00  0.00     0.684 A 
HETATM    3  N   UNL     1     -43.029 -55.092  15.276  1.00  0.00    -0.174 N 
ATOM      4  HN  UNL     1     -43.621 -55.802  15.707  1.00  0.00     0.186 HD
HETATM    5  C   UNL     1     -43.354 -54.284  14.238  1.00  0.00     0.160 A 
HETATM    6  N   UNL     1     -44.582 -54.208  13.613  1.00  0.00    -0.287 N 
HETATM    7  C   UNL     1     -45.713 -55.006  14.035  1.00  0.00     0.163 C 
HETATM    8  C   UNL     1     -44.762 -53.281  12.593  1.00  0.00     0.330 A 
HETATM    9  O   UNL     1     -45.825 -53.114  11.999  1.00  0.00    -0.246 OA
HETATM   10  N   UNL     1     -43.667 -52.514  12.242  1.00  0.00    -0.273 N 
HETATM   11  C   UNL     1     -42.404 -52.570  12.790  1.00  0.00     0.280 A 
HETATM   12  O   UNL     1     -41.484 -51.884  12.353  1.00  0.00    -0.265 OA
HETATM   13  C   UNL     1     -42.308 -53.490  13.873  1.00  0.00     0.164 A 
HETATM   14  H   UNL     1     -43.812 -51.858  11.492  1.00  0.00     0.173 HD
ENDROOT
BRANCH   2  15
HETATM   15  N   UNL     1     -41.137 -55.283  16.716  1.00  0.00    -0.217 N 
HETATM   16  C   UNL     1     -41.700 -54.853  17.999  1.00  0.00     0.169 C 
BRANCH  15  17
HETATM   17  C   UNL     1     -40.481 -56.603  16.662  1.00  0.00     0.179 C 
BRANCH  17  18
HETATM   18  C   UNL     1     -39.083 -56.694  17.258  1.00  0.00    -0.040 A 
HETATM   19  C   UNL     1     -38.777 -57.649  18.240  1.00  0.00     0.009 A 
HETATM   20  C   UNL     1     -37.486 -57.742  18.772  1.00  0.00     0.001 A 
HETATM   21  C   UNL     1     -36.482 -56.880  18.334  1.00  0.00     0.000 A 
HETATM   22  C   UNL     1     -36.767 -55.923  17.362  1.00  0.00     0.001 A 
HETATM   23  C   UNL     1     -38.056 -55.832  16.826  1.00  0.00     0.009 A 
ENDBRANCH  17  18
ENDBRANCH  15  17
ENDBRANCH   2  15
BRANCH   1  24
HETATM   24  C   UNL     1     -40.103 -52.967  14.943  1.00  0.00     0.174 C 
BRANCH  24  25
HETATM   25  C   UNL     1     -38.904 -53.481  14.143  1.00  0.00     0.187 C 
BRANCH  25  26
HETATM   26  O   UNL     1     -38.342 -52.433  13.352  1.00  0.00    -0.394 OA
HETATM   27  C   UNL     1     -38.394 -51.185  14.034  1.00  0.00     0.201 C 
ENDBRANCH  25  26
ENDBRANCH  24  25
ENDBRANCH   1  24
TORSDOF 6
ENDMDL
MODEL 9
REMARK VINA RESULT:      -5.7      3.082      6.079
REMARK  6 active torsions:
REMARK  status: ('A' for Active; 'I' for Inactive)
REMARK    1  A    between atoms: O_2  and  C_3 
REMARK    2  A    between atoms: C_3  and  C_4 
REMARK    3  A    between atoms: C_4  and  N_5 
REMARK    4  A    between atoms: C_6  and  N_18 
REMARK    5  A    between atoms: N_18  and  C_20 
REMARK    6  A    between atoms: C_20  and  C_21 
ROOT
HETATM    1  N   UNL     1     -41.099 -50.276  12.932  1.00  0.00    -0.172 N 
HETATM    2  C   UNL     1     -41.848 -49.287  13.571  1.00  0.00     0.684 A 
HETATM    3  N   UNL     1     -43.085 -49.718  13.763  1.00  0.00    -0.174 N 
ATOM      4  HN  UNL     1     -43.851 -49.203  14.198  1.00  0.00     0.186 HD
HETATM    5  C   UNL     1     -43.133 -50.978  13.266  1.00  0.00     0.160 A 
HETATM    6  N   UNL     1     -44.250 -51.782  13.179  1.00  0.00    -0.287 N 
HETATM    7  C   UNL     1     -45.558 -51.336  13.610  1.00  0.00     0.163 C 
HETATM    8  C   UNL     1     -44.133 -53.035  12.590  1.00  0.00     0.330 A 
HETATM    9  O   UNL     1     -45.075 -53.811  12.435  1.00  0.00    -0.246 OA
HETATM   10  N   UNL     1     -42.874 -53.412  12.159  1.00  0.00    -0.273 N 
HETATM   11  C   UNL     1     -41.711 -52.680  12.256  1.00  0.00     0.280 A 
HETATM   12  O   UNL     1     -40.631 -53.142  11.899  1.00  0.00    -0.265 OA
HETATM   13  C   UNL     1     -41.914 -51.382  12.807  1.00  0.00     0.164 A 
HETATM   14  H   UNL     1     -42.806 -54.328  11.748  1.00  0.00     0.173 HD
ENDROOT
BRANCH   2  15
HETATM   15  N   UNL     1     -41.426 -48.005  13.820  1.00  0.00    -0.217 N 
HETATM   16  C   UNL     1     -42.174 -46.975  13.093  1.00  0.00     0.169 C 
BRANCH  15  17
HETATM   17  C   UNL     1     -40.854 -47.641  15.130  1.00  0.00     0.179 C 
BRANCH  17  18
HETATM   18  C   UNL     1     -39.361 -47.880  15.311  1.00  0.00    -0.040 A 
HETATM   19  C   UNL     1     -38.432 -47.373  14.389  1.00  0.00     0.009 A 
HETATM   20  C   UNL     1     -37.060 -47.579  14.568  1.00  0.00     0.001 A 
HETATM   21  C   UNL     1     -36.594 -48.297  15.668  1.00  0.00     0.000 A 
HETATM   22  C   UNL     1     -37.501 -48.811  16.593  1.00  0.00     0.001 A 
HETATM   23  C   UNL     1     -38.873 -48.603  16.417  1.00  0.00     0.009 A 
ENDBRANCH  17  18
ENDBRANCH  15  17
ENDBRANCH   2  15
BRANCH   1  24
HETATM   24  C   UNL     1     -39.767 -50.171  12.359  1.00  0.00     0.174 C 
BRANCH  24  25
HETATM   25  C   UNL     1     -38.651 -50.816  13.185  1.00  0.00     0.187 C 
BRANCH  25  26
HETATM   26  O   UNL     1     -37.533 -51.134  12.355  1.00  0.00    -0.394 OA
HETATM   27  C   UNL     1     -37.379 -50.185  11.307  1.00  0.00     0.201 C 
ENDBRANCH  25  26
ENDBRANCH  24  25
ENDBRANCH   1  24
TORSDOF 6
ENDMDL
