MODEL 1
REMARK VINA RESULT:      -5.5      0.000      0.000
REMARK  4 active torsions:
REMARK  status: ('A' for Active; 'I' for Inactive)
REMARK    1  A    between atoms: C_2  and  C_3 
REMARK    2  A    between atoms: C_3  and  N_5 
REMARK       I    between atoms: N_5  and  C_6 
REMARK    3  A    between atoms: C_6  and  C_8 
REMARK    4  A    between atoms: C_14  and  N_15 
ROOT
HETATM    1  C   UNL     1     -42.612 -47.996  12.086  1.00  0.00     0.075 A 
HETATM    2  C   UNL     1     -43.088 -49.133  12.764  1.00  0.00     0.022 A 
HETATM    3  C   UNL     1     -42.517 -49.508  13.973  1.00  0.00     0.018 A 
HETATM    4  C   UNL     1     -41.476 -48.745  14.452  1.00  0.00     0.089 A 
HETATM    5  N   UNL     1     -41.019 -47.634  13.837  1.00  0.00    -0.352 N 
ATOM      6  HN  UNL     1     -40.252 -47.100  14.248  1.00  0.00     0.166 HD
HETATM    7  C   UNL     1     -41.585 -47.226  12.667  1.00  0.00     0.119 A 
ENDROOT
BRANCH   1   8
HETATM    8  C   UNL     1     -43.082 -47.775  10.696  1.00  0.00     0.255 C 
HETATM    9  N   UNL     1     -44.350 -47.233  10.531  1.00  0.00    -0.353 N 
HETATM   10  H   UNL     1     -44.855 -46.883  11.332  1.00  0.00     0.163 HD
HETATM   11  O   UNL     1     -42.377 -48.095   9.743  1.00  0.00    -0.268 OA
BRANCH   9  12
HETATM   12  C   UNL     1     -44.845 -46.914   9.193  1.00  0.00     0.080 C 
HETATM   13  C   UNL     1     -44.448 -45.486   8.821  1.00  0.00     0.032 C 
BRANCH  12  14
HETATM   14  C   UNL     1     -46.362 -47.109   9.083  1.00  0.00     0.020 C 
HETATM   15  C   UNL     1     -46.750 -48.564   8.856  1.00  0.00     0.007 C 
ENDBRANCH  12  14
ENDBRANCH   9  12
ENDBRANCH   1   8
BRANCH   7  16
HETATM   16  N   UNL     1     -41.131 -46.015  12.210  1.00  0.00    -0.362 N 
HETATM   17  C   UNL     1     -41.896 -44.796  12.500  1.00  0.00     0.150 C 
HETATM   18  C   UNL     1     -41.928 -43.885  11.260  1.00  0.00     0.187 C 
HETATM   19  O   UNL     1     -40.613 -43.638  10.728  1.00  0.00    -0.388 OA
HETATM   20  C   UNL     1     -39.975 -44.881  10.389  1.00  0.00     0.187 C 
HETATM   21  C   UNL     1     -39.813 -45.782  11.623  1.00  0.00     0.150 C 
ENDBRANCH   7  16
TORSDOF 4
ENDMDL
MODEL 2
REMARK VINA RESULT:      -5.4      3.709      5.999
REMARK  4 active torsions:
REMARK  status: ('A' for Active; 'I' for Inactive)
REMARK    1  A    between atoms: C_2  and  C_3 
REMARK    2  A    between atoms: C_3  and  N_5 
REMARK       I    between atoms: N_5  and  C_6 
REMARK    3  A    between atoms: C_6  and  C_8 
REMARK    4  A    between atoms: C_14  and  N_15 
ROOT
HETATM    1  C   UNL     1     -42.640 -49.365  12.233  1.00  0.00     0.075 A 
HETATM    2  C   UNL     1     -43.255 -48.197  11.743  1.00  0.00     0.022 A 
HETATM    3  C   UNL     1     -42.535 -47.317  10.948  1.00  0.00     0.018 A 
HETATM    4  C   UNL     1     -41.218 -47.622  10.685  1.00  0.00     0.089 A 
HETATM    5  N   UNL     1     -40.612 -48.748  11.117  1.00  0.00    -0.352 N 
ATOM      6  HN  UNL     1     -39.636 -48.928  10.880  1.00  0.00     0.166 HD
HETATM    7  C   UNL     1     -41.307 -49.645  11.872  1.00  0.00     0.119 A 
ENDROOT
BRANCH   1   8
HETATM    8  C   UNL     1     -43.364 -50.145  13.266  1.00  0.00     0.255 C 
HETATM    9  N   UNL     1     -44.379 -50.988  12.834  1.00  0.00    -0.353 N 
HETATM   10  H   UNL     1     -44.509 -51.152  11.845  1.00  0.00     0.163 HD
HETATM   11  O   UNL     1     -43.085 -50.012  14.455  1.00  0.00    -0.268 OA
BRANCH   9  12
HETATM   12  C   UNL     1     -45.081 -51.844  13.787  1.00  0.00     0.080 C 
HETATM   13  C   UNL     1     -44.954 -53.307  13.359  1.00  0.00     0.032 C 
BRANCH  12  14
HETATM   14  C   UNL     1     -46.553 -51.444  13.941  1.00  0.00     0.020 C 
HETATM   15  C   UNL     1     -47.009 -51.443  15.395  1.00  0.00     0.007 C 
ENDBRANCH  12  14
ENDBRANCH   9  12
ENDBRANCH   1   8
BRANCH   7  16
HETATM   16  N   UNL     1     -40.630 -50.809  12.135  1.00  0.00    -0.362 N 
HETATM   17  C   UNL     1     -41.175 -52.088  11.666  1.00  0.00     0.150 C 
HETATM   18  C   UNL     1     -41.003 -53.165  12.752  1.00  0.00     0.187 C 
HETATM   19  O   UNL     1     -39.649 -53.247  13.232  1.00  0.00    -0.388 OA
HETATM   20  C   UNL     1     -39.230 -51.975  13.754  1.00  0.00     0.187 C 
HETATM   21  C   UNL     1     -39.272 -50.885  12.672  1.00  0.00     0.150 C 
ENDBRANCH   7  16
TORSDOF 4
ENDMDL
MODEL 3
REMARK VINA RESULT:      -5.3      2.386      5.093
REMARK  4 active torsions:
REMARK  status: ('A' for Active; 'I' for Inactive)
REMARK    1  A    between atoms: C_2  and  C_3 
REMARK    2  A    between atoms: C_3  and  N_5 
REMARK       I    between atoms: N_5  and  C_6 
REMARK    3  A    between atoms: C_6  and  C_8 
REMARK    4  A    between atoms: C_14  and  N_15 
ROOT
HETATM    1  C   UNL     1     -42.219 -47.257  10.364  1.00  0.00     0.075 A 
HETATM    2  C   UNL     1     -42.845 -47.793   9.223  1.00  0.00     0.022 A 
HETATM    3  C   UNL     1     -43.740 -47.021   8.497  1.00  0.00     0.018 A 
HETATM    4  C   UNL     1     -43.997 -45.745   8.948  1.00  0.00     0.089 A 
HETATM    5  N   UNL     1     -43.391 -45.196  10.021  1.00  0.00    -0.352 N 
ATOM      6  HN  UNL     1     -43.612 -44.240  10.301  1.00  0.00     0.166 HD
HETATM    7  C   UNL     1     -42.483 -45.922  10.731  1.00  0.00     0.119 A 
ENDROOT
BRANCH   1   8
HETATM    8  C   UNL     1     -41.464 -48.187  11.238  1.00  0.00     0.255 C 
HETATM    9  N   UNL     1     -40.078 -48.123  11.191  1.00  0.00    -0.353 N 
HETATM   10  H   UNL     1     -39.627 -47.375  10.683  1.00  0.00     0.163 HD
HETATM   11  O   UNL     1     -42.058 -48.998  11.944  1.00  0.00    -0.268 OA
BRANCH   9  12
HETATM   12  C   UNL     1     -39.272 -48.953  12.082  1.00  0.00     0.080 C 
HETATM   13  C   UNL     1     -38.832 -48.135  13.296  1.00  0.00     0.032 C 
BRANCH  12  14
HETATM   14  C   UNL     1     -38.061 -49.559  11.362  1.00  0.00     0.020 C 
HETATM   15  C   UNL     1     -37.417 -50.692  12.150  1.00  0.00     0.007 C 
ENDBRANCH  12  14
ENDBRANCH   9  12
ENDBRANCH   1   8
BRANCH   7  16
HETATM   16  N   UNL     1     -41.835 -45.215  11.712  1.00  0.00    -0.362 N 
HETATM   17  C   UNL     1     -40.654 -44.414  11.371  1.00  0.00     0.150 C 
HETATM   18  C   UNL     1     -39.578 -44.570  12.460  1.00  0.00     0.187 C 
HETATM   19  O   UNL     1     -40.093 -44.319  13.780  1.00  0.00    -0.388 OA
HETATM   20  C   UNL     1     -41.187 -45.208  14.062  1.00  0.00     0.187 C 
HETATM   21  C   UNL     1     -42.342 -45.008  13.068  1.00  0.00     0.150 C 
ENDBRANCH   7  16
TORSDOF 4
ENDMDL
MODEL 4
REMARK VINA RESULT:      -5.2      2.976      5.102
REMARK  4 active torsions:
REMARK  status: ('A' for Active; 'I' for Inactive)
REMARK    1  A    between atoms: C_2  and  C_3 
REMARK    2  A    between atoms: C_3  and  N_5 
REMARK       I    between atoms: N_5  and  C_6 
REMARK    3  A    between atoms: C_6  and  C_8 
REMARK    4  A    between atoms: C_14  and  N_15 
ROOT
HETATM    1  C   UNL     1     -42.694 -48.179  11.665  1.00  0.00     0.075 A 
HETATM    2  C   UNL     1     -43.636 -47.418  10.948  1.00  0.00     0.022 A 
HETATM    3  C   UNL     1     -43.206 -46.469  10.031  1.00  0.00     0.018 A 
HETATM    4  C   UNL     1     -41.848 -46.298   9.876  1.00  0.00     0.089 A 
HETATM    5  N   UNL     1     -40.923 -47.033  10.528  1.00  0.00    -0.352 N 
ATOM      6  HN  UNL     1     -39.930 -46.870  10.362  1.00  0.00     0.166 HD
HETATM    7  C   UNL     1     -41.320 -47.994  11.410  1.00  0.00     0.119 A 
ENDROOT
BRANCH   1   8
HETATM    8  C   UNL     1     -43.187 -48.999  12.798  1.00  0.00     0.255 C 
HETATM    9  N   UNL     1     -43.898 -50.152  12.488  1.00  0.00    -0.353 N 
HETATM   10  H   UNL     1     -43.944 -50.471  11.530  1.00  0.00     0.163 HD
HETATM   11  O   UNL     1     -42.995 -48.641  13.956  1.00  0.00    -0.268 OA
BRANCH   9  12
HETATM   12  C   UNL     1     -44.345 -51.049  13.551  1.00  0.00     0.080 C 
HETATM   13  C   UNL     1     -43.375 -52.223  13.679  1.00  0.00     0.032 C 
BRANCH  12  14
HETATM   14  C   UNL     1     -45.778 -51.543  13.317  1.00  0.00     0.020 C 
HETATM   15  C   UNL     1     -46.658 -51.390  14.551  1.00  0.00     0.007 C 
ENDBRANCH  12  14
ENDBRANCH   9  12
ENDBRANCH   1   8
BRANCH   7  16
HETATM   16  N   UNL     1     -40.299 -48.764  11.905  1.00  0.00    -0.362 N 
HETATM   17  C   UNL     1     -40.056 -50.098  11.344  1.00  0.00     0.150 C 
HETATM   18  C   UNL     1     -39.735 -51.095  12.471  1.00  0.00     0.187 C 
HETATM   19  O   UNL     1     -38.684 -50.624  13.336  1.00  0.00    -0.388 OA
HETATM   20  C   UNL     1     -39.046 -49.357  13.910  1.00  0.00     0.187 C 
HETATM   21  C   UNL     1     -39.265 -48.292  12.824  1.00  0.00     0.150 C 
ENDBRANCH   7  16
TORSDOF 4
ENDMDL
MODEL 5
REMARK VINA RESULT:      -5.0      3.887      6.066
REMARK  4 active torsions:
REMARK  status: ('A' for Active; 'I' for Inactive)
REMARK    1  A    between atoms: C_2  and  C_3 
REMARK    2  A    between atoms: C_3  and  N_5 
REMARK       I    between atoms: N_5  and  C_6 
REMARK    3  A    between atoms: C_6  and  C_8 
REMARK    4  A    between atoms: C_14  and  N_15 
ROOT
HETATM    1  C   UNL     1     -44.234 -51.260  13.485  1.00  0.00     0.075 A 
HETATM    2  C   UNL     1     -45.622 -51.276  13.718  1.00  0.00     0.022 A 
HETATM    3  C   UNL     1     -46.320 -52.474  13.658  1.00  0.00     0.018 A 
HETATM    4  C   UNL     1     -45.611 -53.613  13.345  1.00  0.00     0.089 A 
HETATM    5  N   UNL     1     -44.276 -53.631  13.145  1.00  0.00    -0.352 N 
ATOM      6  HN  UNL     1     -43.802 -54.508  12.929  1.00  0.00     0.166 HD
HETATM    7  C   UNL     1     -43.563 -52.473  13.232  1.00  0.00     0.119 A 
ENDROOT
BRANCH   1   8
HETATM    8  C   UNL     1     -43.577 -49.940  13.321  1.00  0.00     0.255 C 
HETATM    9  N   UNL     1     -43.449 -49.448  12.029  1.00  0.00    -0.353 N 
HETATM   10  H   UNL     1     -43.912 -49.918  11.264  1.00  0.00     0.163 HD
HETATM   11  O   UNL     1     -43.142 -49.336  14.297  1.00  0.00    -0.268 OA
BRANCH   9  12
HETATM   12  C   UNL     1     -42.885 -48.120  11.800  1.00  0.00     0.080 C 
HETATM   13  C   UNL     1     -43.672 -47.405  10.702  1.00  0.00     0.032 C 
BRANCH  12  14
HETATM   14  C   UNL     1     -41.393 -48.183  11.451  1.00  0.00     0.020 C 
HETATM   15  C   UNL     1     -40.868 -46.870  10.886  1.00  0.00     0.007 C 
ENDBRANCH  12  14
ENDBRANCH   9  12
ENDBRANCH   1   8
BRANCH   7  16
HETATM   16  N   UNL     1     -42.204 -52.638  13.145  1.00  0.00    -0.362 N 
HETATM   17  C   UNL     1     -41.485 -53.327  14.223  1.00  0.00     0.150 C 
HETATM   18  C   UNL     1     -40.161 -52.603  14.523  1.00  0.00     0.187 C 
HETATM   19  O   UNL     1     -39.372 -52.390  13.338  1.00  0.00    -0.388 OA
HETATM   20  C   UNL     1     -40.122 -51.631  12.374  1.00  0.00     0.187 C 
HETATM   21  C   UNL     1     -41.402 -52.370  11.953  1.00  0.00     0.150 C 
ENDBRANCH   7  16
TORSDOF 4
ENDMDL
MODEL 6
REMARK VINA RESULT:      -4.8      3.488      5.317
REMARK  4 active torsions:
REMARK  status: ('A' for Active; 'I' for Inactive)
REMARK    1  A    between atoms: C_2  and  C_3 
REMARK    2  A    between atoms: C_3  and  N_5 
REMARK       I    between atoms: N_5  and  C_6 
REMARK    3  A    between atoms: C_6  and  C_8 
REMARK    4  A    between atoms: C_14  and  N_15 
ROOT
HETATM    1  C   UNL     1     -39.727 -50.447  12.750  1.00  0.00     0.075 A 
HETATM    2  C   UNL     1     -38.553 -51.200  12.941  1.00  0.00     0.022 A 
HETATM    3  C   UNL     1     -37.395 -50.862  12.256  1.00  0.00     0.018 A 
HETATM    4  C   UNL     1     -37.454 -49.797  11.385  1.00  0.00     0.089 A 
HETATM    5  N   UNL     1     -38.557 -49.041  11.203  1.00  0.00    -0.352 N 
ATOM      6  HN  UNL     1     -38.537 -48.254  10.554  1.00  0.00     0.166 HD
HETATM    7  C   UNL     1     -39.698 -49.331  11.890  1.00  0.00     0.119 A 
ENDROOT
BRANCH   1   8
HETATM    8  C   UNL     1     -40.991 -50.985  13.311  1.00  0.00     0.255 C 
HETATM    9  N   UNL     1     -41.419 -52.221  12.846  1.00  0.00    -0.353 N 
HETATM   10  H   UNL     1     -40.812 -52.775  12.258  1.00  0.00     0.163 HD
HETATM   11  O   UNL     1     -41.636 -50.334  14.128  1.00  0.00    -0.268 OA
BRANCH   9  12
HETATM   12  C   UNL     1     -42.612 -52.847  13.412  1.00  0.00     0.080 C 
HETATM   13  C   UNL     1     -42.230 -54.156  14.103  1.00  0.00     0.032 C 
BRANCH  12  14
HETATM   14  C   UNL     1     -43.693 -53.083  12.350  1.00  0.00     0.020 C 
HETATM   15  C   UNL     1     -45.087 -52.721  12.846  1.00  0.00     0.007 C 
ENDBRANCH  12  14
ENDBRANCH   9  12
ENDBRANCH   1   8
BRANCH   7  16
HETATM   16  N   UNL     1     -40.705 -48.414  11.727  1.00  0.00    -0.362 N 
HETATM   17  C   UNL     1     -40.705 -47.185  12.529  1.00  0.00     0.150 C 
HETATM   18  C   UNL     1     -42.133 -46.865  13.004  1.00  0.00     0.187 C 
HETATM   19  O   UNL     1     -43.083 -46.858  11.922  1.00  0.00    -0.388 OA
HETATM   20  C   UNL     1     -43.078 -48.129  11.251  1.00  0.00     0.187 C 
HETATM   21  C   UNL     1     -41.697 -48.443  10.654  1.00  0.00     0.150 C 
ENDBRANCH   7  16
TORSDOF 4
ENDMDL
MODEL 7
REMARK VINA RESULT:      -4.8      5.564      8.019
REMARK  4 active torsions:
REMARK  status: ('A' for Active; 'I' for Inactive)
REMARK    1  A    between atoms: C_2  and  C_3 
REMARK    2  A    between atoms: C_3  and  N_5 
REMARK       I    between atoms: N_5  and  C_6 
REMARK    3  A    between atoms: C_6  and  C_8 
REMARK    4  A    between atoms: C_14  and  N_15 
ROOT
HETATM    1  C   UNL     1     -40.219 -53.768  14.176  1.00  0.00     0.075 A 
HETATM    2  C   UNL     1     -39.111 -54.514  14.620  1.00  0.00     0.022 A 
HETATM    3  C   UNL     1     -39.241 -55.368  15.706  1.00  0.00     0.018 A 
HETATM    4  C   UNL     1     -40.469 -55.431  16.327  1.00  0.00     0.089 A 
HETATM    5  N   UNL     1     -41.555 -54.749  15.906  1.00  0.00    -0.352 N 
ATOM      6  HN  UNL     1     -42.443 -54.847  16.398  1.00  0.00     0.166 HD
HETATM    7  C   UNL     1     -41.462 -53.930  14.820  1.00  0.00     0.119 A 
ENDROOT
BRANCH   1   8
HETATM    8  C   UNL     1     -39.976 -52.700  13.177  1.00  0.00     0.255 C 
HETATM    9  N   UNL     1     -39.222 -51.606  13.583  1.00  0.00    -0.353 N 
HETATM   10  H   UNL     1     -38.754 -51.624  14.478  1.00  0.00     0.163 HD
HETATM   11  O   UNL     1     -40.457 -52.780  12.050  1.00  0.00    -0.268 OA
BRANCH   9  12
HETATM   12  C   UNL     1     -38.876 -50.555  12.629  1.00  0.00     0.080 C 
HETATM   13  C   UNL     1     -37.435 -50.740  12.155  1.00  0.00     0.032 C 
BRANCH  12  14
HETATM   14  C   UNL     1     -39.084 -49.155  13.219  1.00  0.00     0.020 C 
HETATM   15  C   UNL     1     -37.799 -48.560  13.780  1.00  0.00     0.007 C 
ENDBRANCH  12  14
ENDBRANCH   9  12
ENDBRANCH   1   8
BRANCH   7  16
HETATM   16  N   UNL     1     -42.658 -53.400  14.407  1.00  0.00    -0.362 N 
HETATM   17  C   UNL     1     -43.563 -54.208  13.582  1.00  0.00     0.150 C 
HETATM   18  C   UNL     1     -44.178 -53.341  12.469  1.00  0.00     0.187 C 
HETATM   19  O   UNL     1     -44.772 -52.134  12.980  1.00  0.00    -0.388 OA
HETATM   20  C   UNL     1     -43.792 -51.364  13.696  1.00  0.00     0.187 C 
HETATM   21  C   UNL     1     -43.230 -52.147  14.893  1.00  0.00     0.150 C 
ENDBRANCH   7  16
TORSDOF 4
ENDMDL
MODEL 8
REMARK VINA RESULT:      -4.7      3.196      6.719
REMARK  4 active torsions:
REMARK  status: ('A' for Active; 'I' for Inactive)
REMARK    1  A    between atoms: C_2  and  C_3 
REMARK    2  A    between atoms: C_3  and  N_5 
REMARK       I    between atoms: N_5  and  C_6 
REMARK    3  A    between atoms: C_6  and  C_8 
REMARK    4  A    between atoms: C_14  and  N_15 
ROOT
HETATM    1  C   UNL     1     -39.814 -46.695  12.762  1.00  0.00     0.075 A 
HETATM    2  C   UNL     1     -39.455 -45.335  12.702  1.00  0.00     0.022 A 
HETATM    3  C   UNL     1     -39.614 -44.629  11.517  1.00  0.00     0.018 A 
HETATM    4  C   UNL     1     -40.106 -45.311  10.427  1.00  0.00     0.089 A 
HETATM    5  N   UNL     1     -40.485 -46.606  10.464  1.00  0.00    -0.352 N 
ATOM      6  HN  UNL     1     -40.856 -47.056   9.626  1.00  0.00     0.166 HD
HETATM    7  C   UNL     1     -40.371 -47.312  11.624  1.00  0.00     0.119 A 
ENDROOT
BRANCH   1   8
HETATM    8  C   UNL     1     -39.406 -47.464  13.963  1.00  0.00     0.255 C 
HETATM    9  N   UNL     1     -38.126 -48.002  13.970  1.00  0.00    -0.353 N 
HETATM   10  H   UNL     1     -37.472 -47.752  13.242  1.00  0.00     0.163 HD
HETATM   11  O   UNL     1     -40.193 -47.635  14.890  1.00  0.00    -0.268 OA
BRANCH   9  12
HETATM   12  C   UNL     1     -37.629 -48.703  15.151  1.00  0.00     0.080 C 
HETATM   13  C   UNL     1     -36.430 -47.953  15.732  1.00  0.00     0.032 C 
BRANCH  12  14
HETATM   14  C   UNL     1     -37.267 -50.161  14.843  1.00  0.00     0.020 C 
HETATM   15  C   UNL     1     -38.397 -51.127  15.174  1.00  0.00     0.007 C 
ENDBRANCH  12  14
ENDBRANCH   9  12
ENDBRANCH   1   8
BRANCH   7  16
HETATM   16  N   UNL     1     -40.913 -48.572  11.575  1.00  0.00    -0.362 N 
HETATM   17  C   UNL     1     -42.353 -48.752  11.792  1.00  0.00     0.150 C 
HETATM   18  C   UNL     1     -42.604 -49.991  12.669  1.00  0.00     0.187 C 
HETATM   19  O   UNL     1     -41.938 -51.163  12.165  1.00  0.00    -0.388 OA
HETATM   20  C   UNL     1     -40.523 -50.926  12.071  1.00  0.00     0.187 C 
HETATM   21  C   UNL     1     -40.212 -49.767  11.110  1.00  0.00     0.150 C 
ENDBRANCH   7  16
TORSDOF 4
ENDMDL
MODEL 9
REMARK VINA RESULT:      -4.7      3.681      5.672
REMARK  4 active torsions:
REMARK  status: ('A' for Active; 'I' for Inactive)
REMARK    1  A    between atoms: C_2  and  C_3 
REMARK    2  A    between atoms: C_3  and  N_5 
REMARK       I    between atoms: N_5  and  C_6 
REMARK    3  A    between atoms: C_6  and  C_8 
REMARK    4  A    between atoms: C_14  and  N_15 
ROOT
HETATM    1  C   UNL     1     -41.980 -49.299  12.121  1.00  0.00     0.075 A 
HETATM    2  C   UNL     1     -42.850 -48.523  11.333  1.00  0.00     0.022 A 
HETATM    3  C   UNL     1     -42.394 -47.353  10.745  1.00  0.00     0.018 A 
HETATM    4  C   UNL     1     -41.087 -46.985  10.981  1.00  0.00     0.089 A 
HETATM    5  N   UNL     1     -40.223 -47.724  11.708  1.00  0.00    -0.352 N 
ATOM      6  HN  UNL     1     -39.262 -47.407  11.837  1.00  0.00     0.166 HD
HETATM    7  C   UNL     1     -40.638 -48.895  12.268  1.00  0.00     0.119 A 
ENDROOT
BRANCH   1   8
HETATM    8  C   UNL     1     -42.569 -50.401  12.920  1.00  0.00     0.255 C 
HETATM    9  N   UNL     1     -42.600 -51.663  12.341  1.00  0.00    -0.353 N 
HETATM   10  H   UNL     1     -42.112 -51.829  11.472  1.00  0.00     0.163 HD
HETATM   11  O   UNL     1     -43.036 -50.181  14.034  1.00  0.00    -0.268 OA
BRANCH   9  12
HETATM   12  C   UNL     1     -43.093 -52.810  13.100  1.00  0.00     0.080 C 
HETATM   13  C   UNL     1     -41.969 -53.828  13.289  1.00  0.00     0.032 C 
BRANCH  12  14
HETATM   14  C   UNL     1     -44.312 -53.457  12.432  1.00  0.00     0.020 C 
HETATM   15  C   UNL     1     -45.145 -54.279  13.407  1.00  0.00     0.007 C 
ENDBRANCH  12  14
ENDBRANCH   9  12
ENDBRANCH   1   8
BRANCH   7  16
HETATM   16  N   UNL     1     -39.639 -49.621  12.865  1.00  0.00    -0.362 N 
HETATM   17  C   UNL     1     -39.289 -49.361  14.266  1.00  0.00     0.150 C 
HETATM   18  C   UNL     1     -37.760 -49.392  14.442  1.00  0.00     0.187 C 
HETATM   19  O   UNL     1     -37.171 -50.591  13.905  1.00  0.00    -0.388 OA
HETATM   20  C   UNL     1     -37.491 -50.717  12.509  1.00  0.00     0.187 C 
HETATM   21  C   UNL     1     -39.009 -50.808  12.289  1.00  0.00     0.150 C 
ENDBRANCH   7  16
TORSDOF 4
ENDMDL
