MODEL 1
REMARK VINA RESULT:      -6.4      0.000      0.000
REMARK  4 active torsions:
REMARK  status: ('A' for Active; 'I' for Inactive)
REMARK    1  A    between atoms: C_2  and  N_3 
REMARK    2  A    between atoms: C_2  and  C_14 
REMARK       I    between atoms: N_3  and  C_4 
REMARK    3  A    between atoms: C_4  and  C_6 
REMARK    4  A    between atoms: C_6  and  N_7 
ROOT
HETATM    1  C   UNL     1     -41.089 -51.762  15.706  1.00  0.00     0.033 C 
HETATM    2  C   UNL     1     -40.727 -52.032  14.240  1.00  0.00     0.089 C 
ENDROOT
BRANCH   2   3
HETATM    3  N   UNL     1     -41.955 -52.251  13.477  1.00  0.00    -0.355 N 
HETATM    4  C   UNL     1     -42.533 -53.497  13.342  1.00  0.00     0.236 C 
HETATM    5  O   UNL     1     -42.025 -54.531  13.772  1.00  0.00    -0.272 OA
HETATM    6  H   UNL     1     -42.427 -51.457  13.052  1.00  0.00     0.162 HD
BRANCH   4   7
HETATM    7  C   UNL     1     -43.840 -53.510  12.549  1.00  0.00     0.234 C 
BRANCH   7   8
HETATM    8  N   UNL     1     -44.972 -53.152  13.397  1.00  0.00    -0.316 N 
HETATM    9  C   UNL     1     -45.340 -51.823  13.523  1.00  0.00     0.095 A 
HETATM   10  C   UNL     1     -46.384 -51.463  14.281  1.00  0.00     0.017 A 
HETATM   11  C   UNL     1     -47.137 -52.467  14.987  1.00  0.00     0.007 A 
HETATM   12  C   UNL     1     -46.791 -53.759  14.910  1.00  0.00     0.074 A 
HETATM   13  C   UNL     1     -45.622 -54.172  14.087  1.00  0.00     0.247 A 
HETATM   14  O   UNL     1     -45.292 -55.356  14.044  1.00  0.00    -0.268 OA
ENDBRANCH   7   8
ENDBRANCH   4   7
ENDBRANCH   2   3
BRANCH   2  15
HETATM   15  C   UNL     1     -39.811 -50.943  13.588  1.00  0.00    -0.019 C 
HETATM   16  C   UNL     1     -40.185 -50.748  12.088  1.00  0.00     0.016 C 
HETATM   17  C   UNL     1     -39.331 -49.644  11.439  1.00  0.00    -0.013 C 
HETATM   18  C   UNL     1     -37.848 -50.035  11.538  1.00  0.00     0.009 C 
HETATM   19  C   UNL     1     -39.561 -48.319  12.179  1.00  0.00     0.009 C 
HETATM   20  C   UNL     1     -37.445 -50.190  13.013  1.00  0.00    -0.013 C 
HETATM   21  C   UNL     1     -37.684 -48.862  13.748  1.00  0.00     0.009 C 
HETATM   22  C   UNL     1     -38.300 -51.294  13.662  1.00  0.00     0.016 C 
HETATM   23  C   UNL     1     -39.168 -48.471  13.655  1.00  0.00    -0.013 C 
HETATM   24  C   UNL     1     -40.023 -49.574  14.301  1.00  0.00     0.016 C 
ENDBRANCH   2  15
TORSDOF 4
ENDMDL
MODEL 2
REMARK VINA RESULT:      -6.4      0.057      1.575
REMARK  4 active torsions:
REMARK  status: ('A' for Active; 'I' for Inactive)
REMARK    1  A    between atoms: C_2  and  N_3 
REMARK    2  A    between atoms: C_2  and  C_14 
REMARK       I    between atoms: N_3  and  C_4 
REMARK    3  A    between atoms: C_4  and  C_6 
REMARK    4  A    between atoms: C_6  and  N_7 
ROOT
HETATM    1  C   UNL     1     -41.135 -51.721  15.672  1.00  0.00     0.033 C 
HETATM    2  C   UNL     1     -40.778 -52.000  14.207  1.00  0.00     0.089 C 
ENDROOT
BRANCH   2   3
HETATM    3  N   UNL     1     -42.008 -52.235  13.453  1.00  0.00    -0.355 N 
HETATM    4  C   UNL     1     -42.569 -53.490  13.319  1.00  0.00     0.236 C 
HETATM    5  O   UNL     1     -42.043 -54.517  13.744  1.00  0.00    -0.272 OA
HETATM    6  H   UNL     1     -42.495 -51.448  13.033  1.00  0.00     0.162 HD
BRANCH   4   7
HETATM    7  C   UNL     1     -43.881 -53.520  12.536  1.00  0.00     0.234 C 
BRANCH   7   8
HETATM    8  N   UNL     1     -45.010 -53.156  13.387  1.00  0.00    -0.316 N 
HETATM    9  C   UNL     1     -45.381 -51.826  13.499  1.00  0.00     0.095 A 
HETATM   10  C   UNL     1     -46.421 -51.460  14.260  1.00  0.00     0.017 A 
HETATM   11  C   UNL     1     -47.166 -52.458  14.982  1.00  0.00     0.007 A 
HETATM   12  C   UNL     1     -46.816 -53.749  14.918  1.00  0.00     0.074 A 
HETATM   13  C   UNL     1     -45.652 -54.169  14.093  1.00  0.00     0.247 A 
HETATM   14  O   UNL     1     -45.318 -55.352  14.062  1.00  0.00    -0.268 OA
ENDBRANCH   7   8
ENDBRANCH   4   7
ENDBRANCH   2   3
BRANCH   2  15
HETATM   15  C   UNL     1     -39.875 -50.908  13.540  1.00  0.00    -0.019 C 
HETATM   16  C   UNL     1     -40.042 -49.545  14.274  1.00  0.00     0.016 C 
HETATM   17  C   UNL     1     -39.125 -48.468  13.667  1.00  0.00    -0.013 C 
HETATM   18  C   UNL     1     -39.481 -48.284  12.184  1.00  0.00     0.009 C 
HETATM   19  C   UNL     1     -37.663 -48.916  13.790  1.00  0.00     0.009 C 
HETATM   20  C   UNL     1     -39.281 -49.608  11.429  1.00  0.00    -0.013 C 
HETATM   21  C   UNL     1     -37.816 -50.053  11.562  1.00  0.00     0.009 C 
HETATM   22  C   UNL     1     -40.199 -50.685  12.038  1.00  0.00     0.016 C 
HETATM   23  C   UNL     1     -37.459 -50.243  13.045  1.00  0.00    -0.013 C 
HETATM   24  C   UNL     1     -38.376 -51.316  13.654  1.00  0.00     0.016 C 
ENDBRANCH   2  15
TORSDOF 4
ENDMDL
MODEL 3
REMARK VINA RESULT:      -6.3      3.230      7.220
REMARK  4 active torsions:
REMARK  status: ('A' for Active; 'I' for Inactive)
REMARK    1  A    between atoms: C_2  and  N_3 
REMARK    2  A    between atoms: C_2  and  C_14 
REMARK       I    between atoms: N_3  and  C_4 
REMARK    3  A    between atoms: C_4  and  C_6 
REMARK    4  A    between atoms: C_6  and  N_7 
ROOT
HETATM    1  C   UNL     1     -40.959 -52.638  12.947  1.00  0.00     0.033 C 
HETATM    2  C   UNL     1     -41.996 -51.518  13.103  1.00  0.00     0.089 C 
ENDROOT
BRANCH   2   3
HETATM    3  N   UNL     1     -41.945 -50.653  11.924  1.00  0.00    -0.355 N 
HETATM    4  C   UNL     1     -41.354 -49.405  11.943  1.00  0.00     0.236 C 
HETATM    5  O   UNL     1     -40.904 -48.883  12.961  1.00  0.00    -0.272 OA
HETATM    6  H   UNL     1     -42.327 -50.987  11.043  1.00  0.00     0.162 HD
BRANCH   4   7
HETATM    7  C   UNL     1     -41.360 -48.679  10.599  1.00  0.00     0.234 C 
BRANCH   7   8
HETATM    8  N   UNL     1     -41.348 -47.231  10.784  1.00  0.00    -0.316 N 
HETATM    9  C   UNL     1     -40.141 -46.572  10.949  1.00  0.00     0.095 A 
HETATM   10  C   UNL     1     -40.095 -45.243  11.106  1.00  0.00     0.017 A 
HETATM   11  C   UNL     1     -41.315 -44.479  11.113  1.00  0.00     0.007 A 
HETATM   12  C   UNL     1     -42.501 -45.088  10.985  1.00  0.00     0.074 A 
HETATM   13  C   UNL     1     -42.570 -46.566  10.828  1.00  0.00     0.247 A 
HETATM   14  O   UNL     1     -43.664 -47.122  10.740  1.00  0.00    -0.268 OA
ENDBRANCH   7   8
ENDBRANCH   4   7
ENDBRANCH   2   3
BRANCH   2  15
HETATM   15  C   UNL     1     -43.448 -52.016  13.408  1.00  0.00    -0.019 C 
HETATM   16  C   UNL     1     -43.556 -52.496  14.886  1.00  0.00     0.016 C 
HETATM   17  C   UNL     1     -44.990 -52.943  15.224  1.00  0.00    -0.013 C 
HETATM   18  C   UNL     1     -45.385 -54.100  14.294  1.00  0.00     0.009 C 
HETATM   19  C   UNL     1     -45.953 -51.767  15.018  1.00  0.00     0.009 C 
HETATM   20  C   UNL     1     -45.329 -53.636  12.829  1.00  0.00    -0.013 C 
HETATM   21  C   UNL     1     -46.291 -52.455  12.632  1.00  0.00     0.009 C 
HETATM   22  C   UNL     1     -43.894 -53.188  12.492  1.00  0.00     0.016 C 
HETATM   23  C   UNL     1     -45.894 -51.295  13.558  1.00  0.00    -0.013 C 
HETATM   24  C   UNL     1     -44.461 -50.847  13.223  1.00  0.00     0.016 C 
ENDBRANCH   2  15
TORSDOF 4
ENDMDL
MODEL 4
REMARK VINA RESULT:      -6.3      0.183      1.599
REMARK  4 active torsions:
REMARK  status: ('A' for Active; 'I' for Inactive)
REMARK    1  A    between atoms: C_2  and  N_3 
REMARK    2  A    between atoms: C_2  and  C_14 
REMARK       I    between atoms: N_3  and  C_4 
REMARK    3  A    between atoms: C_4  and  C_6 
REMARK    4  A    between atoms: C_6  and  N_7 
ROOT
HETATM    1  C   UNL     1     -41.242 -51.435  15.768  1.00  0.00     0.033 C 
HETATM    2  C   UNL     1     -40.811 -51.792  14.340  1.00  0.00     0.089 C 
ENDROOT
BRANCH   2   3
HETATM    3  N   UNL     1     -41.998 -52.110  13.549  1.00  0.00    -0.355 N 
HETATM    4  C   UNL     1     -42.473 -53.399  13.407  1.00  0.00     0.236 C 
HETATM    5  O   UNL     1     -41.896 -54.388  13.856  1.00  0.00    -0.272 OA
HETATM    6  H   UNL     1     -42.520 -51.358  13.107  1.00  0.00     0.162 HD
BRANCH   4   7
HETATM    7  C   UNL     1     -43.753 -53.518  12.582  1.00  0.00     0.234 C 
BRANCH   7   8
HETATM    8  N   UNL     1     -44.927 -53.187  13.384  1.00  0.00    -0.316 N 
HETATM    9  C   UNL     1     -45.376 -51.878  13.431  1.00  0.00     0.095 A 
HETATM   10  C   UNL     1     -46.459 -51.543  14.145  1.00  0.00     0.017 A 
HETATM   11  C   UNL     1     -47.169 -52.553  14.885  1.00  0.00     0.007 A 
HETATM   12  C   UNL     1     -46.746 -53.824  14.884  1.00  0.00     0.074 A 
HETATM   13  C   UNL     1     -45.534 -54.207  14.111  1.00  0.00     0.247 A 
HETATM   14  O   UNL     1     -45.133 -55.370  14.138  1.00  0.00    -0.268 OA
ENDBRANCH   7   8
ENDBRANCH   4   7
ENDBRANCH   2   3
BRANCH   2  15
HETATM   15  C   UNL     1     -39.908 -50.716  13.647  1.00  0.00    -0.019 C 
HETATM   16  C   UNL     1     -38.406 -51.109  13.769  1.00  0.00     0.016 C 
HETATM   17  C   UNL     1     -37.503 -50.091  13.050  1.00  0.00    -0.013 C 
HETATM   18  C   UNL     1     -37.709 -48.706  13.680  1.00  0.00     0.009 C 
HETATM   19  C   UNL     1     -37.878 -50.038  11.563  1.00  0.00     0.009 C 
HETATM   20  C   UNL     1     -39.178 -48.277  13.533  1.00  0.00    -0.013 C 
HETATM   21  C   UNL     1     -39.547 -48.231  12.042  1.00  0.00     0.009 C 
HETATM   22  C   UNL     1     -40.082 -49.296  14.252  1.00  0.00     0.016 C 
HETATM   23  C   UNL     1     -39.347 -49.618  11.410  1.00  0.00    -0.013 C 
HETATM   24  C   UNL     1     -40.247 -50.637  12.128  1.00  0.00     0.016 C 
ENDBRANCH   2  15
TORSDOF 4
ENDMDL
MODEL 5
REMARK VINA RESULT:      -6.3      2.221      3.445
REMARK  4 active torsions:
REMARK  status: ('A' for Active; 'I' for Inactive)
REMARK    1  A    between atoms: C_2  and  N_3 
REMARK    2  A    between atoms: C_2  and  C_14 
REMARK       I    between atoms: N_3  and  C_4 
REMARK    3  A    between atoms: C_4  and  C_6 
REMARK    4  A    between atoms: C_6  and  N_7 
ROOT
HETATM    1  C   UNL     1     -39.020 -49.817  13.777  1.00  0.00     0.033 C 
HETATM    2  C   UNL     1     -40.252 -50.072  12.900  1.00  0.00     0.089 C 
ENDROOT
BRANCH   2   3
HETATM    3  N   UNL     1     -41.149 -50.995  13.594  1.00  0.00    -0.355 N 
HETATM    4  C   UNL     1     -41.720 -52.086  12.969  1.00  0.00     0.236 C 
HETATM    5  O   UNL     1     -41.596 -52.323  11.769  1.00  0.00    -0.272 OA
HETATM    6  H   UNL     1     -41.342 -50.857  14.582  1.00  0.00     0.162 HD
BRANCH   4   7
HETATM    7  C   UNL     1     -42.587 -52.957  13.877  1.00  0.00     0.234 C 
BRANCH   7   8
HETATM    8  N   UNL     1     -43.958 -52.458  13.931  1.00  0.00    -0.316 N 
HETATM    9  C   UNL     1     -44.313 -51.540  14.905  1.00  0.00     0.095 A 
HETATM   10  C   UNL     1     -45.558 -51.050  14.973  1.00  0.00     0.017 A 
HETATM   11  C   UNL     1     -46.551 -51.486  14.027  1.00  0.00     0.007 A 
HETATM   12  C   UNL     1     -46.249 -52.394  13.090  1.00  0.00     0.074 A 
HETATM   13  C   UNL     1     -44.876 -52.961  13.014  1.00  0.00     0.247 A 
HETATM   14  O   UNL     1     -44.612 -53.816  12.170  1.00  0.00    -0.268 OA
ENDBRANCH   7   8
ENDBRANCH   4   7
ENDBRANCH   2   3
BRANCH   2  15
HETATM   15  C   UNL     1     -40.990 -48.775  12.427  1.00  0.00    -0.019 C 
HETATM   16  C   UNL     1     -40.103 -47.521  12.687  1.00  0.00     0.016 C 
HETATM   17  C   UNL     1     -40.787 -46.238  12.183  1.00  0.00    -0.013 C 
HETATM   18  C   UNL     1     -42.126 -46.063  12.915  1.00  0.00     0.009 C 
HETATM   19  C   UNL     1     -41.040 -46.355  10.674  1.00  0.00     0.009 C 
HETATM   20  C   UNL     1     -43.037 -47.270  12.636  1.00  0.00    -0.013 C 
HETATM   21  C   UNL     1     -43.281 -47.384  11.124  1.00  0.00     0.009 C 
HETATM   22  C   UNL     1     -42.351 -48.554  13.141  1.00  0.00     0.016 C 
HETATM   23  C   UNL     1     -41.943 -47.564  10.389  1.00  0.00    -0.013 C 
HETATM   24  C   UNL     1     -41.257 -48.845  10.893  1.00  0.00     0.016 C 
ENDBRANCH   2  15
TORSDOF 4
ENDMDL
MODEL 6
REMARK VINA RESULT:      -6.2      2.286      6.998
REMARK  4 active torsions:
REMARK  status: ('A' for Active; 'I' for Inactive)
REMARK    1  A    between atoms: C_2  and  N_3 
REMARK    2  A    between atoms: C_2  and  C_14 
REMARK       I    between atoms: N_3  and  C_4 
REMARK    3  A    between atoms: C_4  and  C_6 
REMARK    4  A    between atoms: C_6  and  N_7 
ROOT
HETATM    1  C   UNL     1     -43.110 -48.883  14.791  1.00  0.00     0.033 C 
HETATM    2  C   UNL     1     -43.514 -49.780  13.614  1.00  0.00     0.089 C 
ENDROOT
BRANCH   2   3
HETATM    3  N   UNL     1     -42.313 -50.163  12.872  1.00  0.00    -0.355 N 
HETATM    4  C   UNL     1     -41.836 -49.430  11.803  1.00  0.00     0.236 C 
HETATM    5  O   UNL     1     -42.420 -48.455  11.334  1.00  0.00    -0.272 OA
HETATM    6  H   UNL     1     -41.784 -50.980  13.165  1.00  0.00     0.162 HD
BRANCH   4   7
HETATM    7  C   UNL     1     -40.542 -49.966  11.193  1.00  0.00     0.234 C 
BRANCH   7   8
HETATM    8  N   UNL     1     -39.478 -50.031  12.190  1.00  0.00    -0.316 N 
HETATM    9  C   UNL     1     -38.727 -48.900  12.463  1.00  0.00     0.095 A 
HETATM   10  C   UNL     1     -37.753 -48.920  13.383  1.00  0.00     0.017 A 
HETATM   11  C   UNL     1     -37.471 -50.137  14.099  1.00  0.00     0.007 A 
HETATM   12  C   UNL     1     -38.160 -51.257  13.840  1.00  0.00     0.074 A 
HETATM   13  C   UNL     1     -39.231 -51.253  12.807  1.00  0.00     0.247 A 
HETATM   14  O   UNL     1     -39.839 -52.292  12.553  1.00  0.00    -0.268 OA
ENDBRANCH   7   8
ENDBRANCH   4   7
ENDBRANCH   2   3
BRANCH   2  15
HETATM   15  C   UNL     1     -44.383 -51.020  14.012  1.00  0.00    -0.019 C 
HETATM   16  C   UNL     1     -43.530 -52.321  13.956  1.00  0.00     0.016 C 
HETATM   17  C   UNL     1     -44.351 -53.547  14.393  1.00  0.00    -0.013 C 
HETATM   18  C   UNL     1     -45.559 -53.701  13.456  1.00  0.00     0.009 C 
HETATM   19  C   UNL     1     -44.843 -53.344  15.833  1.00  0.00     0.009 C 
HETATM   20  C   UNL     1     -46.441 -52.444  13.528  1.00  0.00    -0.013 C 
HETATM   21  C   UNL     1     -46.925 -52.245  14.973  1.00  0.00     0.009 C 
HETATM   22  C   UNL     1     -45.618 -51.218  13.091  1.00  0.00     0.016 C 
HETATM   23  C   UNL     1     -45.719 -52.085  15.912  1.00  0.00    -0.013 C 
HETATM   24  C   UNL     1     -44.895 -50.862  15.476  1.00  0.00     0.016 C 
ENDBRANCH   2  15
TORSDOF 4
ENDMDL
MODEL 7
REMARK VINA RESULT:      -6.2      2.274      6.997
REMARK  4 active torsions:
REMARK  status: ('A' for Active; 'I' for Inactive)
REMARK    1  A    between atoms: C_2  and  N_3 
REMARK    2  A    between atoms: C_2  and  C_14 
REMARK       I    between atoms: N_3  and  C_4 
REMARK    3  A    between atoms: C_4  and  C_6 
REMARK    4  A    between atoms: C_6  and  N_7 
ROOT
HETATM    1  C   UNL     1     -43.085 -48.903  14.880  1.00  0.00     0.033 C 
HETATM    2  C   UNL     1     -43.488 -49.797  13.700  1.00  0.00     0.089 C 
ENDROOT
BRANCH   2   3
HETATM    3  N   UNL     1     -42.290 -50.159  12.945  1.00  0.00    -0.355 N 
HETATM    4  C   UNL     1     -41.869 -49.453  11.835  1.00  0.00     0.236 C 
HETATM    5  O   UNL     1     -42.505 -48.524  11.341  1.00  0.00    -0.272 OA
HETATM    6  H   UNL     1     -41.719 -50.940  13.258  1.00  0.00     0.162 HD
BRANCH   4   7
HETATM    7  C   UNL     1     -40.567 -49.959  11.215  1.00  0.00     0.234 C 
BRANCH   7   8
HETATM    8  N   UNL     1     -39.500 -50.018  12.209  1.00  0.00    -0.316 N 
HETATM    9  C   UNL     1     -38.767 -48.879  12.494  1.00  0.00     0.095 A 
HETATM   10  C   UNL     1     -37.791 -48.895  13.411  1.00  0.00     0.017 A 
HETATM   11  C   UNL     1     -37.488 -50.116  14.112  1.00  0.00     0.007 A 
HETATM   12  C   UNL     1     -38.159 -51.243  13.841  1.00  0.00     0.074 A 
HETATM   13  C   UNL     1     -39.232 -51.244  12.811  1.00  0.00     0.247 A 
HETATM   14  O   UNL     1     -39.825 -52.289  12.546  1.00  0.00    -0.268 OA
ENDBRANCH   7   8
ENDBRANCH   4   7
ENDBRANCH   2   3
BRANCH   2  15
HETATM   15  C   UNL     1     -44.339 -51.049  14.097  1.00  0.00    -0.019 C 
HETATM   16  C   UNL     1     -44.903 -50.887  15.539  1.00  0.00     0.016 C 
HETATM   17  C   UNL     1     -45.786 -52.085  15.932  1.00  0.00    -0.013 C 
HETATM   18  C   UNL     1     -44.945 -53.369  15.866  1.00  0.00     0.009 C 
HETATM   19  C   UNL     1     -46.963 -52.193  14.953  1.00  0.00     0.009 C 
HETATM   20  C   UNL     1     -44.413 -53.574  14.439  1.00  0.00    -0.013 C 
HETATM   21  C   UNL     1     -45.597 -53.676  13.465  1.00  0.00     0.009 C 
HETATM   22  C   UNL     1     -43.530 -52.375  14.047  1.00  0.00     0.016 C 
HETATM   23  C   UNL     1     -46.437 -52.390  13.524  1.00  0.00    -0.013 C 
HETATM   24  C   UNL     1     -45.556 -51.191  13.134  1.00  0.00     0.016 C 
ENDBRANCH   2  15
TORSDOF 4
ENDMDL
MODEL 8
REMARK VINA RESULT:      -6.2      2.323      6.901
REMARK  4 active torsions:
REMARK  status: ('A' for Active; 'I' for Inactive)
REMARK    1  A    between atoms: C_2  and  N_3 
REMARK    2  A    between atoms: C_2  and  C_14 
REMARK       I    between atoms: N_3  and  C_4 
REMARK    3  A    between atoms: C_4  and  C_6 
REMARK    4  A    between atoms: C_6  and  N_7 
ROOT
HETATM    1  C   UNL     1     -41.673 -54.051  15.022  1.00  0.00     0.033 C 
HETATM    2  C   UNL     1     -42.198 -52.663  14.632  1.00  0.00     0.089 C 
ENDROOT
BRANCH   2   3
HETATM    3  N   UNL     1     -41.427 -52.165  13.493  1.00  0.00    -0.355 N 
HETATM    4  C   UNL     1     -40.401 -51.251  13.634  1.00  0.00     0.236 C 
HETATM    5  O   UNL     1     -40.108 -50.720  14.703  1.00  0.00    -0.272 OA
HETATM    6  H   UNL     1     -41.625 -52.521  12.562  1.00  0.00     0.162 HD
BRANCH   4   7
HETATM    7  C   UNL     1     -39.687 -50.893  12.332  1.00  0.00     0.234 C 
BRANCH   7   8
HETATM    8  N   UNL     1     -40.069 -49.562  11.871  1.00  0.00    -0.316 N 
HETATM    9  C   UNL     1     -41.199 -49.408  11.085  1.00  0.00     0.095 A 
HETATM   10  C   UNL     1     -41.586 -48.199  10.659  1.00  0.00     0.017 A 
HETATM   11  C   UNL     1     -40.817 -47.035  11.014  1.00  0.00     0.007 A 
HETATM   12  C   UNL     1     -39.704 -47.151  11.750  1.00  0.00     0.074 A 
HETATM   13  C   UNL     1     -39.251 -48.489  12.214  1.00  0.00     0.247 A 
HETATM   14  O   UNL     1     -38.212 -48.592  12.864  1.00  0.00    -0.268 OA
ENDBRANCH   7   8
ENDBRANCH   4   7
ENDBRANCH   2   3
BRANCH   2  15
HETATM   15  C   UNL     1     -43.741 -52.603  14.374  1.00  0.00    -0.019 C 
HETATM   16  C   UNL     1     -44.182 -53.771  13.444  1.00  0.00     0.016 C 
HETATM   17  C   UNL     1     -45.704 -53.761  13.218  1.00  0.00    -0.013 C 
HETATM   18  C   UNL     1     -46.105 -52.427  12.569  1.00  0.00     0.009 C 
HETATM   19  C   UNL     1     -46.420 -53.910  14.566  1.00  0.00     0.009 C 
HETATM   20  C   UNL     1     -45.719 -51.260  13.492  1.00  0.00    -0.013 C 
HETATM   21  C   UNL     1     -46.436 -51.419  14.841  1.00  0.00     0.009 C 
HETATM   22  C   UNL     1     -44.196 -51.271  13.718  1.00  0.00     0.016 C 
HETATM   23  C   UNL     1     -46.032 -52.751  15.495  1.00  0.00    -0.013 C 
HETATM   24  C   UNL     1     -44.511 -52.764  15.719  1.00  0.00     0.016 C 
ENDBRANCH   2  15
TORSDOF 4
ENDMDL
MODEL 9
REMARK VINA RESULT:      -6.1      2.013      6.787
REMARK  4 active torsions:
REMARK  status: ('A' for Active; 'I' for Inactive)
REMARK    1  A    between atoms: C_2  and  N_3 
REMARK    2  A    between atoms: C_2  and  C_14 
REMARK       I    between atoms: N_3  and  C_4 
REMARK    3  A    between atoms: C_4  and  C_6 
REMARK    4  A    between atoms: C_6  and  N_7 
ROOT
HETATM    1  C   UNL     1     -42.420 -54.494  16.533  1.00  0.00     0.033 C 
HETATM    2  C   UNL     1     -42.529 -53.190  15.731  1.00  0.00     0.089 C 
ENDROOT
BRANCH   2   3
HETATM    3  N   UNL     1     -41.441 -53.139  14.756  1.00  0.00    -0.355 N 
HETATM    4  C   UNL     1     -40.224 -52.547  15.031  1.00  0.00     0.236 C 
HETATM    5  O   UNL     1     -39.983 -51.945  16.075  1.00  0.00    -0.272 OA
HETATM    6  H   UNL     1     -41.563 -53.579  13.848  1.00  0.00     0.162 HD
BRANCH   4   7
HETATM    7  C   UNL     1     -39.201 -52.640  13.899  1.00  0.00     0.234 C 
BRANCH   7   8
HETATM    8  N   UNL     1     -39.077 -51.366  13.198  1.00  0.00    -0.316 N 
HETATM    9  C   UNL     1     -38.062 -50.491  13.545  1.00  0.00     0.095 A 
HETATM   10  C   UNL     1     -37.910 -49.321  12.911  1.00  0.00     0.017 A 
HETATM   11  C   UNL     1     -38.819 -48.955  11.856  1.00  0.00     0.007 A 
HETATM   12  C   UNL     1     -39.829 -49.766  11.514  1.00  0.00     0.074 A 
HETATM   13  C   UNL     1     -40.021 -51.060  12.222  1.00  0.00     0.247 A 
HETATM   14  O   UNL     1     -40.968 -51.786  11.923  1.00  0.00    -0.268 OA
ENDBRANCH   7   8
ENDBRANCH   4   7
ENDBRANCH   2   3
BRANCH   2  15
HETATM   15  C   UNL     1     -43.928 -52.950  15.072  1.00  0.00    -0.019 C 
HETATM   16  C   UNL     1     -44.302 -54.143  14.143  1.00  0.00     0.016 C 
HETATM   17  C   UNL     1     -45.697 -53.952  13.523  1.00  0.00    -0.013 C 
HETATM   18  C   UNL     1     -45.705 -52.656  12.698  1.00  0.00     0.009 C 
HETATM   19  C   UNL     1     -46.743 -53.853  14.641  1.00  0.00     0.009 C 
HETATM   20  C   UNL     1     -45.381 -51.457  13.603  1.00  0.00    -0.013 C 
HETATM   21  C   UNL     1     -46.429 -51.368  14.723  1.00  0.00     0.009 C 
HETATM   22  C   UNL     1     -43.985 -51.649  14.224  1.00  0.00     0.016 C 
HETATM   23  C   UNL     1     -46.420 -52.661  15.554  1.00  0.00    -0.013 C 
HETATM   24  C   UNL     1     -45.026 -52.855  16.173  1.00  0.00     0.016 C 
ENDBRANCH   2  15
TORSDOF 4
ENDMDL
