MODEL 1
REMARK VINA RESULT:      -6.1      0.000      0.000
REMARK  6 active torsions:
REMARK  status: ('A' for Active; 'I' for Inactive)
REMARK    1  A    between atoms: C_2  and  C_5 
REMARK    2  A    between atoms: N_11  and  C_12 
REMARK    3  A    between atoms: C_12  and  C_13 
REMARK       I    between atoms: C_13  and  N_15 
REMARK    4  A    between atoms: N_15  and  C_16 
REMARK    5  A    between atoms: C_16  and  C_17 
REMARK    6  A    between atoms: C_16  and  C_20 
ROOT
HETATM    1  C   UNL     1     -43.090 -47.044   9.768  1.00  0.00     0.065 C 
HETATM    2  C   UNL     1     -42.369 -45.806  10.005  1.00  0.00     0.047 C 
HETATM    3  C   UNL     1     -41.202 -45.797  10.664  1.00  0.00     0.102 C 
HETATM    4 CL   UNL     1     -40.330 -44.338  10.925  1.00  0.00    -0.078 Cl
HETATM    5  C   UNL     1     -40.615 -47.083  11.171  1.00  0.00     0.269 C 
HETATM    6  O   UNL     1     -39.625 -47.102  11.901  1.00  0.00    -0.266 OA
HETATM    7  N   UNL     1     -41.275 -48.241  10.755  1.00  0.00    -0.314 N 
HETATM    8  C   UNL     1     -42.505 -48.205  10.113  1.00  0.00     0.111 C 
ENDROOT
BRANCH   7   9
HETATM    9  C   UNL     1     -40.674 -49.538  11.073  1.00  0.00     0.234 C 
BRANCH   9  10
HETATM   10  C   UNL     1     -41.341 -50.200  12.272  1.00  0.00     0.236 C 
HETATM   11  O   UNL     1     -41.294 -49.686  13.388  1.00  0.00    -0.272 OA
HETATM   12  N   UNL     1     -42.002 -51.374  12.000  1.00  0.00    -0.354 N 
HETATM   13  H   UNL     1     -41.989 -51.742  11.055  1.00  0.00     0.162 HD
BRANCH  12  14
HETATM   14  C   UNL     1     -42.626 -52.156  13.048  1.00  0.00     0.092 C 
BRANCH  14  15
HETATM   15  C   UNL     1     -44.121 -52.084  12.884  1.00  0.00     0.009 A 
HETATM   16  C   UNL     1     -44.871 -50.835  13.292  1.00  0.00     0.007 A 
HETATM   17  C   UNL     1     -45.006 -52.084  14.112  1.00  0.00     0.007 A 
ENDBRANCH  14  15
BRANCH  14  18
HETATM   18  C   UNL     1     -42.084 -53.564  12.975  1.00  0.00     0.009 A 
HETATM   19  C   UNL     1     -41.608 -54.328  14.190  1.00  0.00     0.007 A 
HETATM   20  C   UNL     1     -40.607 -53.780  13.217  1.00  0.00     0.007 A 
ENDBRANCH  14  18
ENDBRANCH  12  14
ENDBRANCH   9  10
ENDBRANCH   7   9
BRANCH   1  21
HETATM   21  C   UNL     1     -44.456 -46.996   9.140  1.00  0.00     0.418 C 
HETATM   22  F   UNL     1     -44.552 -47.765   8.025  1.00  0.00    -0.166 F 
HETATM   23  F   UNL     1     -44.787 -45.733   8.772  1.00  0.00    -0.166 F 
HETATM   24  F   UNL     1     -45.417 -47.424   9.996  1.00  0.00    -0.166 F 
ENDBRANCH   1  21
TORSDOF 6
ENDMDL
MODEL 2
REMARK VINA RESULT:      -5.9      4.289      7.392
REMARK  6 active torsions:
REMARK  status: ('A' for Active; 'I' for Inactive)
REMARK    1  A    between atoms: C_2  and  C_5 
REMARK    2  A    between atoms: N_11  and  C_12 
REMARK    3  A    between atoms: C_12  and  C_13 
REMARK       I    between atoms: C_13  and  N_15 
REMARK    4  A    between atoms: N_15  and  C_16 
REMARK    5  A    between atoms: C_16  and  C_17 
REMARK    6  A    between atoms: C_16  and  C_20 
ROOT
HETATM    1  C   UNL     1     -43.855 -54.275  13.917  1.00  0.00     0.065 C 
HETATM    2  C   UNL     1     -42.923 -54.827  14.884  1.00  0.00     0.047 C 
HETATM    3  C   UNL     1     -41.601 -54.644  14.758  1.00  0.00     0.102 C 
HETATM    4 CL   UNL     1     -40.494 -55.273  15.914  1.00  0.00    -0.078 Cl
HETATM    5  C   UNL     1     -41.058 -53.855  13.601  1.00  0.00     0.269 C 
HETATM    6  O   UNL     1     -39.852 -53.787  13.370  1.00  0.00    -0.266 OA
HETATM    7  N   UNL     1     -42.019 -53.215  12.817  1.00  0.00    -0.314 N 
HETATM    8  C   UNL     1     -43.377 -53.467  12.953  1.00  0.00     0.111 C 
ENDROOT
BRANCH   7   9
HETATM    9  C   UNL     1     -41.565 -52.299  11.769  1.00  0.00     0.234 C 
BRANCH   9  10
HETATM   10  C   UNL     1     -41.547 -50.851  12.241  1.00  0.00     0.236 C 
HETATM   11  O   UNL     1     -41.824 -50.559  13.403  1.00  0.00    -0.272 OA
HETATM   12  N   UNL     1     -41.181 -49.928  11.291  1.00  0.00    -0.354 N 
HETATM   13  H   UNL     1     -40.975 -50.243  10.348  1.00  0.00     0.162 HD
BRANCH  12  14
HETATM   14  C   UNL     1     -41.183 -48.506  11.569  1.00  0.00     0.092 C 
BRANCH  14  15
HETATM   15  C   UNL     1     -39.760 -48.035  11.708  1.00  0.00     0.009 A 
HETATM   16  C   UNL     1     -38.834 -48.695  12.706  1.00  0.00     0.007 A 
HETATM   17  C   UNL     1     -39.337 -47.305  12.964  1.00  0.00     0.007 A 
ENDBRANCH  14  15
BRANCH  14  18
HETATM   18  C   UNL     1     -41.939 -47.809  10.463  1.00  0.00     0.009 A 
HETATM   19  C   UNL     1     -42.679 -46.505  10.666  1.00  0.00     0.007 A 
HETATM   20  C   UNL     1     -43.450 -47.784  10.528  1.00  0.00     0.007 A 
ENDBRANCH  14  18
ENDBRANCH  12  14
ENDBRANCH   9  10
ENDBRANCH   7   9
BRANCH   1  21
HETATM   21  C   UNL     1     -45.317 -54.611  14.023  1.00  0.00     0.418 C 
HETATM   22  F   UNL     1     -45.599 -55.874  13.615  1.00  0.00    -0.166 F 
HETATM   23  F   UNL     1     -46.072 -53.777  13.265  1.00  0.00    -0.166 F 
HETATM   24  F   UNL     1     -45.765 -54.501  15.299  1.00  0.00    -0.166 F 
ENDBRANCH   1  21
TORSDOF 6
ENDMDL
MODEL 3
REMARK VINA RESULT:      -5.9      4.368      7.033
REMARK  6 active torsions:
REMARK  status: ('A' for Active; 'I' for Inactive)
REMARK    1  A    between atoms: C_2  and  C_5 
REMARK    2  A    between atoms: N_11  and  C_12 
REMARK    3  A    between atoms: C_12  and  C_13 
REMARK       I    between atoms: C_13  and  N_15 
REMARK    4  A    between atoms: N_15  and  C_16 
REMARK    5  A    between atoms: C_16  and  C_17 
REMARK    6  A    between atoms: C_16  and  C_20 
ROOT
HETATM    1  C   UNL     1     -43.787 -54.251  13.862  1.00  0.00     0.065 C 
HETATM    2  C   UNL     1     -42.902 -54.794  14.878  1.00  0.00     0.047 C 
HETATM    3  C   UNL     1     -41.571 -54.661  14.782  1.00  0.00     0.102 C 
HETATM    4 CL   UNL     1     -40.519 -55.278  15.994  1.00  0.00    -0.078 Cl
HETATM    5  C   UNL     1     -40.970 -53.939  13.611  1.00  0.00     0.269 C 
HETATM    6  O   UNL     1     -39.756 -53.921  13.412  1.00  0.00    -0.266 OA
HETATM    7  N   UNL     1     -41.886 -53.300  12.774  1.00  0.00    -0.314 N 
HETATM    8  C   UNL     1     -43.255 -53.500  12.881  1.00  0.00     0.111 C 
ENDROOT
BRANCH   7   9
HETATM    9  C   UNL     1     -41.372 -52.443  11.704  1.00  0.00     0.234 C 
BRANCH   9  10
HETATM   10  C   UNL     1     -41.220 -50.995  12.151  1.00  0.00     0.236 C 
HETATM   11  O   UNL     1     -40.165 -50.588  12.634  1.00  0.00    -0.272 OA
HETATM   12  N   UNL     1     -42.323 -50.200  11.949  1.00  0.00    -0.354 N 
HETATM   13  H   UNL     1     -43.163 -50.609  11.553  1.00  0.00     0.162 HD
BRANCH  12  14
HETATM   14  C   UNL     1     -42.356 -48.819  12.385  1.00  0.00     0.092 C 
BRANCH  14  15
HETATM   15  C   UNL     1     -43.043 -47.992  11.332  1.00  0.00     0.009 A 
HETATM   16  C   UNL     1     -42.461 -47.898   9.938  1.00  0.00     0.007 A 
HETATM   17  C   UNL     1     -42.398 -46.710  10.852  1.00  0.00     0.007 A 
ENDBRANCH  14  15
BRANCH  14  18
HETATM   18  C   UNL     1     -43.040 -48.763  13.730  1.00  0.00     0.009 A 
HETATM   19  C   UNL     1     -42.854 -47.620  14.703  1.00  0.00     0.007 A 
HETATM   20  C   UNL     1     -42.199 -48.942  14.974  1.00  0.00     0.007 A 
ENDBRANCH  14  18
ENDBRANCH  12  14
ENDBRANCH   9  10
ENDBRANCH   7   9
BRANCH   1  21
HETATM   21  C   UNL     1     -45.263 -54.533  13.940  1.00  0.00     0.418 C 
HETATM   22  F   UNL     1     -45.578 -55.799  13.565  1.00  0.00    -0.166 F 
HETATM   23  F   UNL     1     -45.969 -53.700  13.136  1.00  0.00    -0.166 F 
HETATM   24  F   UNL     1     -45.739 -54.366  15.199  1.00  0.00    -0.166 F 
ENDBRANCH   1  21
TORSDOF 6
ENDMDL
MODEL 4
REMARK VINA RESULT:      -5.7      4.027      4.787
REMARK  6 active torsions:
REMARK  status: ('A' for Active; 'I' for Inactive)
REMARK    1  A    between atoms: C_2  and  C_5 
REMARK    2  A    between atoms: N_11  and  C_12 
REMARK    3  A    between atoms: C_12  and  C_13 
REMARK       I    between atoms: C_13  and  N_15 
REMARK    4  A    between atoms: N_15  and  C_16 
REMARK    5  A    between atoms: C_16  and  C_17 
REMARK    6  A    between atoms: C_16  and  C_20 
ROOT
HETATM    1  C   UNL     1     -38.727 -49.818  13.161  1.00  0.00     0.065 C 
HETATM    2  C   UNL     1     -38.382 -48.470  13.575  1.00  0.00     0.047 C 
HETATM    3  C   UNL     1     -39.231 -47.448  13.391  1.00  0.00     0.102 C 
HETATM    4 CL   UNL     1     -38.839 -45.854  13.903  1.00  0.00    -0.078 Cl
HETATM    5  C   UNL     1     -40.567 -47.688  12.748  1.00  0.00     0.269 C 
HETATM    6  O   UNL     1     -41.311 -46.760  12.432  1.00  0.00    -0.266 OA
HETATM    7  N   UNL     1     -40.893 -49.029  12.538  1.00  0.00    -0.314 N 
HETATM    8  C   UNL     1     -39.969 -50.051  12.700  1.00  0.00     0.111 C 
ENDROOT
BRANCH   7   9
HETATM    9  C   UNL     1     -42.240 -49.352  12.065  1.00  0.00     0.234 C 
BRANCH   9  10
HETATM   10  C   UNL     1     -42.967 -50.302  13.008  1.00  0.00     0.236 C 
HETATM   11  O   UNL     1     -43.234 -49.969  14.161  1.00  0.00    -0.272 OA
HETATM   12  N   UNL     1     -43.310 -51.518  12.467  1.00  0.00    -0.354 N 
HETATM   13  H   UNL     1     -43.046 -51.725  11.508  1.00  0.00     0.162 HD
BRANCH  12  14
HETATM   14  C   UNL     1     -43.943 -52.553  13.258  1.00  0.00     0.092 C 
BRANCH  14  15
HETATM   15  C   UNL     1     -45.370 -52.709  12.804  1.00  0.00     0.009 A 
HETATM   16  C   UNL     1     -46.311 -51.524  12.832  1.00  0.00     0.007 A 
HETATM   17  C   UNL     1     -46.488 -52.637  13.822  1.00  0.00     0.007 A 
ENDBRANCH  14  15
BRANCH  14  18
HETATM   18  C   UNL     1     -43.130 -53.818  13.121  1.00  0.00     0.009 A 
HETATM   19  C   UNL     1     -42.427 -54.476  14.287  1.00  0.00     0.007 A 
HETATM   20  C   UNL     1     -41.627 -53.727  13.263  1.00  0.00     0.007 A 
ENDBRANCH  14  18
ENDBRANCH  12  14
ENDBRANCH   9  10
ENDBRANCH   7   9
BRANCH   1  21
HETATM   21  C   UNL     1     -37.697 -50.910  13.266  1.00  0.00     0.418 C 
HETATM   22  F   UNL     1     -38.238 -52.118  13.569  1.00  0.00    -0.166 F 
HETATM   23  F   UNL     1     -36.785 -50.638  14.233  1.00  0.00    -0.166 F 
HETATM   24  F   UNL     1     -37.011 -51.067  12.107  1.00  0.00    -0.166 F 
ENDBRANCH   1  21
TORSDOF 6
ENDMDL
MODEL 5
REMARK VINA RESULT:      -5.7      6.170      7.351
REMARK  6 active torsions:
REMARK  status: ('A' for Active; 'I' for Inactive)
REMARK    1  A    between atoms: C_2  and  C_5 
REMARK    2  A    between atoms: N_11  and  C_12 
REMARK    3  A    between atoms: C_12  and  C_13 
REMARK       I    between atoms: C_13  and  N_15 
REMARK    4  A    between atoms: N_15  and  C_16 
REMARK    5  A    between atoms: C_16  and  C_17 
REMARK    6  A    between atoms: C_16  and  C_20 
ROOT
HETATM    1  C   UNL     1     -46.642 -52.079  15.557  1.00  0.00     0.065 C 
HETATM    2  C   UNL     1     -47.001 -51.449  14.298  1.00  0.00     0.047 C 
HETATM    3  C   UNL     1     -46.536 -51.916  13.130  1.00  0.00     0.102 C 
HETATM    4 CL   UNL     1     -46.979 -51.191  11.635  1.00  0.00    -0.078 Cl
HETATM    5  C   UNL     1     -45.628 -53.112  13.107  1.00  0.00     0.269 C 
HETATM    6  O   UNL     1     -45.068 -53.481  12.076  1.00  0.00    -0.266 OA
HETATM    7  N   UNL     1     -45.471 -53.762  14.332  1.00  0.00    -0.314 N 
HETATM    8  C   UNL     1     -45.931 -53.221  15.524  1.00  0.00     0.111 C 
ENDROOT
BRANCH   7   9
HETATM    9  C   UNL     1     -44.732 -55.026  14.360  1.00  0.00     0.234 C 
BRANCH   9  10
HETATM   10  C   UNL     1     -43.400 -54.895  15.087  1.00  0.00     0.236 C 
HETATM   11  O   UNL     1     -42.998 -55.782  15.838  1.00  0.00    -0.272 OA
HETATM   12  N   UNL     1     -42.694 -53.747  14.817  1.00  0.00    -0.354 N 
HETATM   13  H   UNL     1     -43.095 -53.055  14.192  1.00  0.00     0.162 HD
BRANCH  12  14
HETATM   14  C   UNL     1     -41.443 -53.448  15.483  1.00  0.00     0.092 C 
BRANCH  14  15
HETATM   15  C   UNL     1     -40.354 -53.346  14.450  1.00  0.00     0.009 A 
HETATM   16  C   UNL     1     -40.426 -54.171  13.184  1.00  0.00     0.007 A 
HETATM   17  C   UNL     1     -39.415 -54.514  14.238  1.00  0.00     0.007 A 
ENDBRANCH  14  15
BRANCH  14  18
HETATM   18  C   UNL     1     -41.626 -52.183  16.288  1.00  0.00     0.009 A 
HETATM   19  C   UNL     1     -42.533 -52.098  17.495  1.00  0.00     0.007 A 
HETATM   20  C   UNL     1     -42.952 -51.462  16.203  1.00  0.00     0.007 A 
ENDBRANCH  14  18
ENDBRANCH  12  14
ENDBRANCH   9  10
ENDBRANCH   7   9
BRANCH   1  21
HETATM   21  C   UNL     1     -47.079 -51.448  16.851  1.00  0.00     0.418 C 
HETATM   22  F   UNL     1     -46.858 -52.245  17.927  1.00  0.00    -0.166 F 
HETATM   23  F   UNL     1     -48.406 -51.166  16.839  1.00  0.00    -0.166 F 
HETATM   24  F   UNL     1     -46.427 -50.282  17.085  1.00  0.00    -0.166 F 
ENDBRANCH   1  21
TORSDOF 6
ENDMDL
MODEL 6
REMARK VINA RESULT:      -5.7      3.954      7.082
REMARK  6 active torsions:
REMARK  status: ('A' for Active; 'I' for Inactive)
REMARK    1  A    between atoms: C_2  and  C_5 
REMARK    2  A    between atoms: N_11  and  C_12 
REMARK    3  A    between atoms: C_12  and  C_13 
REMARK       I    between atoms: C_13  and  N_15 
REMARK    4  A    between atoms: N_15  and  C_16 
REMARK    5  A    between atoms: C_16  and  C_17 
REMARK    6  A    between atoms: C_16  and  C_20 
ROOT
HETATM    1  C   UNL     1     -45.004 -52.993  13.751  1.00  0.00     0.065 C 
HETATM    2  C   UNL     1     -44.565 -54.010  14.689  1.00  0.00     0.047 C 
HETATM    3  C   UNL     1     -43.327 -54.521  14.631  1.00  0.00     0.102 C 
HETATM    4 CL   UNL     1     -42.792 -55.707  15.755  1.00  0.00    -0.078 Cl
HETATM    5  C   UNL     1     -42.364 -54.041  13.582  1.00  0.00     0.269 C 
HETATM    6  O   UNL     1     -41.275 -54.584  13.404  1.00  0.00    -0.266 OA
HETATM    7  N   UNL     1     -42.800 -52.947  12.834  1.00  0.00    -0.314 N 
HETATM    8  C   UNL     1     -44.105 -52.478  12.894  1.00  0.00     0.111 C 
ENDROOT
BRANCH   7   9
HETATM    9  C   UNL     1     -41.859 -52.320  11.903  1.00  0.00     0.234 C 
BRANCH   9  10
HETATM   10  C   UNL     1     -41.344 -50.984  12.421  1.00  0.00     0.236 C 
HETATM   11  O   UNL     1     -41.314 -50.740  13.626  1.00  0.00    -0.272 OA
HETATM   12  N   UNL     1     -40.904 -50.110  11.456  1.00  0.00    -0.354 N 
HETATM   13  H   UNL     1     -40.969 -50.378  10.479  1.00  0.00     0.162 HD
BRANCH  12  14
HETATM   14  C   UNL     1     -40.450 -48.775  11.787  1.00  0.00     0.092 C 
BRANCH  14  15
HETATM   15  C   UNL     1     -38.952 -48.721  11.647  1.00  0.00     0.009 A 
HETATM   16  C   UNL     1     -38.129 -49.982  11.800  1.00  0.00     0.007 A 
HETATM   17  C   UNL     1     -38.082 -48.930  12.868  1.00  0.00     0.007 A 
ENDBRANCH  14  15
BRANCH  14  18
HETATM   18  C   UNL     1     -41.170 -47.795  10.892  1.00  0.00     0.009 A 
HETATM   19  C   UNL     1     -42.041 -46.679  11.424  1.00  0.00     0.007 A 
HETATM   20  C   UNL     1     -42.676 -47.882  10.792  1.00  0.00     0.007 A 
ENDBRANCH  14  18
ENDBRANCH  12  14
ENDBRANCH   9  10
ENDBRANCH   7   9
BRANCH   1  21
HETATM   21  C   UNL     1     -46.439 -52.541  13.769  1.00  0.00     0.418 C 
HETATM   22  F   UNL     1     -46.610 -51.355  14.406  1.00  0.00    -0.166 F 
HETATM   23  F   UNL     1     -47.233 -53.441  14.400  1.00  0.00    -0.166 F 
HETATM   24  F   UNL     1     -46.932 -52.387  12.514  1.00  0.00    -0.166 F 
ENDBRANCH   1  21
TORSDOF 6
ENDMDL
MODEL 7
REMARK VINA RESULT:      -5.6      5.690      7.101
REMARK  6 active torsions:
REMARK  status: ('A' for Active; 'I' for Inactive)
REMARK    1  A    between atoms: C_2  and  C_5 
REMARK    2  A    between atoms: N_11  and  C_12 
REMARK    3  A    between atoms: C_12  and  C_13 
REMARK       I    between atoms: C_13  and  N_15 
REMARK    4  A    between atoms: N_15  and  C_16 
REMARK    5  A    between atoms: C_16  and  C_17 
REMARK    6  A    between atoms: C_16  and  C_20 
ROOT
HETATM    1  C   UNL     1     -45.975 -52.005  14.439  1.00  0.00     0.065 C 
HETATM    2  C   UNL     1     -46.975 -51.348  15.262  1.00  0.00     0.047 C 
HETATM    3  C   UNL     1     -47.157 -51.696  16.544  1.00  0.00     0.102 C 
HETATM    4 CL   UNL     1     -48.321 -50.904  17.531  1.00  0.00    -0.078 Cl
HETATM    5  C   UNL     1     -46.317 -52.781  17.155  1.00  0.00     0.269 C 
HETATM    6  O   UNL     1     -46.549 -53.226  18.278  1.00  0.00    -0.266 OA
HETATM    7  N   UNL     1     -45.268 -53.240  16.357  1.00  0.00    -0.314 N 
HETATM    8  C   UNL     1     -45.143 -52.888  15.020  1.00  0.00     0.111 C 
ENDROOT
BRANCH   7   9
HETATM    9  C   UNL     1     -44.309 -54.180  16.940  1.00  0.00     0.234 C 
BRANCH   9  10
HETATM   10  C   UNL     1     -43.257 -54.626  15.932  1.00  0.00     0.236 C 
HETATM   11  O   UNL     1     -43.412 -55.646  15.263  1.00  0.00    -0.272 OA
HETATM   12  N   UNL     1     -42.165 -53.799  15.820  1.00  0.00    -0.354 N 
HETATM   13  H   UNL     1     -42.103 -52.978  16.413  1.00  0.00     0.162 HD
BRANCH  12  14
HETATM   14  C   UNL     1     -41.050 -54.124  14.954  1.00  0.00     0.092 C 
BRANCH  14  15
HETATM   15  C   UNL     1     -40.900 -53.038  13.924  1.00  0.00     0.009 A 
HETATM   16  C   UNL     1     -42.064 -52.673  13.028  1.00  0.00     0.007 A 
HETATM   17  C   UNL     1     -40.884 -53.401  12.455  1.00  0.00     0.007 A 
ENDBRANCH  14  15
BRANCH  14  18
HETATM   18  C   UNL     1     -39.822 -54.307  15.814  1.00  0.00     0.009 A 
HETATM   19  C   UNL     1     -38.728 -55.299  15.489  1.00  0.00     0.007 A 
HETATM   20  C   UNL     1     -39.683 -55.585  16.609  1.00  0.00     0.007 A 
ENDBRANCH  14  18
ENDBRANCH  12  14
ENDBRANCH   9  10
ENDBRANCH   7   9
BRANCH   1  21
HETATM   21  C   UNL     1     -45.892 -51.676  12.973  1.00  0.00     0.418 C 
HETATM   22  F   UNL     1     -45.000 -50.689  12.704  1.00  0.00    -0.166 F 
HETATM   23  F   UNL     1     -47.090 -51.262  12.490  1.00  0.00    -0.166 F 
HETATM   24  F   UNL     1     -45.519 -52.754  12.238  1.00  0.00    -0.166 F 
ENDBRANCH   1  21
TORSDOF 6
ENDMDL
MODEL 8
REMARK VINA RESULT:      -5.6      5.754      7.276
REMARK  6 active torsions:
REMARK  status: ('A' for Active; 'I' for Inactive)
REMARK    1  A    between atoms: C_2  and  C_5 
REMARK    2  A    between atoms: N_11  and  C_12 
REMARK    3  A    between atoms: C_12  and  C_13 
REMARK       I    between atoms: C_13  and  N_15 
REMARK    4  A    between atoms: N_15  and  C_16 
REMARK    5  A    between atoms: C_16  and  C_17 
REMARK    6  A    between atoms: C_16  and  C_20 
ROOT
HETATM    1  C   UNL     1     -46.473 -51.944  15.531  1.00  0.00     0.065 C 
HETATM    2  C   UNL     1     -46.924 -51.563  14.205  1.00  0.00     0.047 C 
HETATM    3  C   UNL     1     -46.402 -52.126  13.105  1.00  0.00     0.102 C 
HETATM    4 CL   UNL     1     -46.950 -51.698  11.533  1.00  0.00    -0.078 Cl
HETATM    5  C   UNL     1     -45.332 -53.172  13.232  1.00  0.00     0.269 C 
HETATM    6  O   UNL     1     -44.728 -53.605  12.252  1.00  0.00    -0.266 OA
HETATM    7  N   UNL     1     -45.078 -53.606  14.534  1.00  0.00    -0.314 N 
HETATM    8  C   UNL     1     -45.606 -52.966  15.647  1.00  0.00     0.111 C 
ENDROOT
BRANCH   7   9
HETATM    9  C   UNL     1     -44.165 -54.735  14.727  1.00  0.00     0.234 C 
BRANCH   9  10
HETATM   10  C   UNL     1     -42.814 -54.293  15.273  1.00  0.00     0.236 C 
HETATM   11  O   UNL     1     -42.687 -53.943  16.445  1.00  0.00    -0.272 OA
HETATM   12  N   UNL     1     -41.774 -54.343  14.376  1.00  0.00    -0.354 N 
HETATM   13  H   UNL     1     -41.957 -54.634  13.421  1.00  0.00     0.162 HD
BRANCH  12  14
HETATM   14  C   UNL     1     -40.443 -53.890  14.726  1.00  0.00     0.092 C 
BRANCH  14  15
HETATM   15  C   UNL     1     -39.581 -55.089  15.017  1.00  0.00     0.009 A 
HETATM   16  C   UNL     1     -39.721 -55.826  16.332  1.00  0.00     0.007 A 
HETATM   17  C   UNL     1     -38.501 -54.992  16.073  1.00  0.00     0.007 A 
ENDBRANCH  14  15
BRANCH  14  18
HETATM   18  C   UNL     1     -39.920 -53.038  13.594  1.00  0.00     0.009 A 
HETATM   19  C   UNL     1     -40.135 -51.542  13.522  1.00  0.00     0.007 A 
HETATM   20  C   UNL     1     -40.913 -52.450  12.617  1.00  0.00     0.007 A 
ENDBRANCH  14  18
ENDBRANCH  12  14
ENDBRANCH   9  10
ENDBRANCH   7   9
BRANCH   1  21
HETATM   21  C   UNL     1     -46.991 -51.198  16.731  1.00  0.00     0.418 C 
HETATM   22  F   UNL     1     -48.260 -50.747  16.564  1.00  0.00    -0.166 F 
HETATM   23  F   UNL     1     -46.224 -50.114  17.008  1.00  0.00    -0.166 F 
HETATM   24  F   UNL     1     -46.993 -51.976  17.842  1.00  0.00    -0.166 F 
ENDBRANCH   1  21
TORSDOF 6
ENDMDL
MODEL 9
REMARK VINA RESULT:      -5.6      0.565      2.108
REMARK  6 active torsions:
REMARK  status: ('A' for Active; 'I' for Inactive)
REMARK    1  A    between atoms: C_2  and  C_5 
REMARK    2  A    between atoms: N_11  and  C_12 
REMARK    3  A    between atoms: C_12  and  C_13 
REMARK       I    between atoms: C_13  and  N_15 
REMARK    4  A    between atoms: N_15  and  C_16 
REMARK    5  A    between atoms: C_16  and  C_17 
REMARK    6  A    between atoms: C_16  and  C_20 
ROOT
HETATM    1  C   UNL     1     -42.699 -46.948   9.865  1.00  0.00     0.065 C 
HETATM    2  C   UNL     1     -41.902 -45.782  10.203  1.00  0.00     0.047 C 
HETATM    3  C   UNL     1     -40.791 -45.892  10.946  1.00  0.00     0.102 C 
HETATM    4 CL   UNL     1     -39.829 -44.520  11.328  1.00  0.00    -0.078 Cl
HETATM    5  C   UNL     1     -40.350 -47.239  11.443  1.00  0.00     0.269 C 
HETATM    6  O   UNL     1     -39.424 -47.364  12.244  1.00  0.00    -0.266 OA
HETATM    7  N   UNL     1     -41.067 -48.323  10.935  1.00  0.00    -0.314 N 
HETATM    8  C   UNL     1     -42.237 -48.164  10.206  1.00  0.00     0.111 C 
ENDROOT
BRANCH   7   9
HETATM    9  C   UNL     1     -40.597 -49.675  11.244  1.00  0.00     0.234 C 
BRANCH   9  10
HETATM   10  C   UNL     1     -41.431 -50.336  12.334  1.00  0.00     0.236 C 
HETATM   11  O   UNL     1     -41.402 -49.924  13.492  1.00  0.00    -0.272 OA
HETATM   12  N   UNL     1     -42.215 -51.385  11.918  1.00  0.00    -0.354 N 
HETATM   13  H   UNL     1     -42.179 -51.675  10.946  1.00  0.00     0.162 HD
BRANCH  12  14
HETATM   14  C   UNL     1     -43.011 -52.158  12.851  1.00  0.00     0.092 C 
BRANCH  14  15
HETATM   15  C   UNL     1     -42.089 -52.909  13.773  1.00  0.00     0.009 A 
HETATM   16  C   UNL     1     -41.180 -53.988  13.226  1.00  0.00     0.007 A 
HETATM   17  C   UNL     1     -42.360 -54.367  14.072  1.00  0.00     0.007 A 
ENDBRANCH  14  15
BRANCH  14  18
HETATM   18  C   UNL     1     -43.941 -51.213  13.574  1.00  0.00     0.009 A 
HETATM   19  C   UNL     1     -44.992 -51.681  14.556  1.00  0.00     0.007 A 
HETATM   20  C   UNL     1     -45.405 -51.210  13.193  1.00  0.00     0.007 A 
ENDBRANCH  14  18
ENDBRANCH  12  14
ENDBRANCH   9  10
ENDBRANCH   7   9
BRANCH   1  21
HETATM   21  C   UNL     1     -44.005 -46.766   9.140  1.00  0.00     0.418 C 
HETATM   22  F   UNL     1     -44.052 -47.437   7.962  1.00  0.00    -0.166 F 
HETATM   23  F   UNL     1     -44.234 -45.459   8.854  1.00  0.00    -0.166 F 
HETATM   24  F   UNL     1     -45.055 -47.199   9.882  1.00  0.00    -0.166 F 
ENDBRANCH   1  21
TORSDOF 6
ENDMDL
