MODEL 1
REMARK VINA RESULT:      -5.8      0.000      0.000
REMARK  6 active torsions:
REMARK  status: ('A' for Active; 'I' for Inactive)
REMARK    1  A    between atoms: C_8  and  C_9 
REMARK    2  A    between atoms: C_9  and  N_10 
REMARK    3  A    between atoms: N_10  and  C_11 
REMARK    4  A    between atoms: C_11  and  C_12 
REMARK    5  A    between atoms: C_12  and  N_13 
REMARK    6  A    between atoms: C_12  and  C_16 
ROOT
HETATM    1  C   UNL     1     -40.090 -50.940  11.646  1.00  0.00     0.310 C 
ENDROOT
BRANCH   1   2
HETATM    2  N   UNL     1     -41.225 -51.857  11.422  1.00  0.00     0.086 N 
HETATM    3  H   UNL     1     -41.848 -51.447  10.726  1.00  0.00     0.315 HD
BRANCH   2   4
HETATM    4  C   UNL     1     -41.994 -52.106  12.644  1.00  0.00     0.279 C 
BRANCH   4   5
HETATM    5  C   UNL     1     -42.213 -53.620  12.956  1.00  0.00     0.045 C 
HETATM    6  C   UNL     1     -43.708 -54.094  13.009  1.00  0.00    -0.009 C 
HETATM    7  C   UNL     1     -44.749 -53.067  12.534  1.00  0.00     0.011 C 
HETATM    8  C   UNL     1     -44.224 -54.755  14.300  1.00  0.00     0.009 C 
HETATM    9  C   UNL     1     -43.232 -55.120  15.397  1.00  0.00     0.028 C 
HETATM   10  C   UNL     1     -41.811 -54.786  15.159  1.00  0.00    -0.024 C 
HETATM   11  C   UNL     1     -41.328 -54.130  14.092  1.00  0.00    -0.081 C 
HETATM   12  C   UNL     1     -39.842 -53.912  13.967  1.00  0.00     0.043 C 
ENDBRANCH   4   5
ENDBRANCH   2   4
ENDBRANCH   1   2
BRANCH   1  13
HETATM   13  C   UNL     1     -40.309 -49.661  12.545  1.00  0.00     0.285 C 
BRANCH  13  14
HETATM   14  N   UNL     1     -39.267 -49.442  13.579  1.00  0.00     0.090 N 
HETATM   15  C   UNL     1     -39.748 -49.502  14.955  1.00  0.00     0.310 C 
HETATM   16  C   UNL     1     -38.078 -50.267  13.394  1.00  0.00     0.310 C 
ENDBRANCH  13  14
BRANCH  13  17
HETATM   17  C   UNL     1     -40.523 -48.430  11.685  1.00  0.00     0.011 A 
HETATM   18  C   UNL     1     -41.490 -48.225  10.668  1.00  0.00     0.118 A 
HETATM   19  N   UNL     1     -41.412 -47.017  10.108  1.00  0.00    -0.310 N 
HETATM   20  N   UNL     1     -40.391 -46.436  10.753  1.00  0.00    -0.308 N 
ATOM     21  HN  UNL     1     -41.993 -46.627   9.366  1.00  0.00     0.186 HD
HETATM   22  C   UNL     1     -39.979 -45.098  10.406  1.00  0.00     0.177 C 
HETATM   23  C   UNL     1     -39.834 -47.230  11.715  1.00  0.00     0.120 A 
ENDBRANCH  13  17
ENDBRANCH   1  13
TORSDOF 6
ENDMDL
MODEL 2
REMARK VINA RESULT:      -5.8      2.570      3.707
REMARK  6 active torsions:
REMARK  status: ('A' for Active; 'I' for Inactive)
REMARK    1  A    between atoms: C_8  and  C_9 
REMARK    2  A    between atoms: C_9  and  N_10 
REMARK    3  A    between atoms: N_10  and  C_11 
REMARK    4  A    between atoms: C_11  and  C_12 
REMARK    5  A    between atoms: C_12  and  N_13 
REMARK    6  A    between atoms: C_12  and  C_16 
ROOT
HETATM    1  C   UNL     1     -41.351 -50.717  12.351  1.00  0.00     0.310 C 
ENDROOT
BRANCH   1   2
HETATM    2  N   UNL     1     -42.725 -51.169  12.061  1.00  0.00     0.086 N 
HETATM    3  H   UNL     1     -43.273 -50.371  11.738  1.00  0.00     0.315 HD
BRANCH   2   4
HETATM    4  C   UNL     1     -43.387 -51.743  13.235  1.00  0.00     0.279 C 
BRANCH   4   5
HETATM    5  C   UNL     1     -44.463 -50.811  13.875  1.00  0.00     0.045 C 
HETATM    6  C   UNL     1     -44.090 -50.198  15.270  1.00  0.00    -0.009 C 
HETATM    7  C   UNL     1     -42.638 -50.413  15.724  1.00  0.00     0.011 C 
HETATM    8  C   UNL     1     -45.023 -50.468  16.464  1.00  0.00     0.009 C 
HETATM    9  C   UNL     1     -46.373 -51.132  16.219  1.00  0.00     0.028 C 
HETATM   10  C   UNL     1     -46.697 -51.506  14.825  1.00  0.00    -0.024 C 
HETATM   11  C   UNL     1     -45.879 -51.374  13.768  1.00  0.00    -0.081 C 
HETATM   12  C   UNL     1     -46.376 -51.751  12.397  1.00  0.00     0.043 C 
ENDBRANCH   4   5
ENDBRANCH   2   4
ENDBRANCH   1   2
BRANCH   1  13
HETATM   13  C   UNL     1     -41.061 -49.168  12.440  1.00  0.00     0.285 C 
BRANCH  13  14
HETATM   14  N   UNL     1     -39.649 -48.784  12.188  1.00  0.00     0.090 N 
HETATM   15  C   UNL     1     -38.997 -48.089  13.293  1.00  0.00     0.310 C 
HETATM   16  C   UNL     1     -38.826 -49.881  11.690  1.00  0.00     0.310 C 
ENDBRANCH  13  14
BRANCH  13  17
HETATM   17  C   UNL     1     -42.025 -48.389  11.566  1.00  0.00     0.011 A 
HETATM   18  C   UNL     1     -43.165 -47.644  11.962  1.00  0.00     0.118 A 
HETATM   19  N   UNL     1     -43.794 -47.067  10.937  1.00  0.00    -0.310 N 
HETATM   20  N   UNL     1     -43.071 -47.441   9.872  1.00  0.00    -0.308 N 
ATOM     21  HN  UNL     1     -44.628 -46.480  10.958  1.00  0.00     0.186 HD
HETATM   22  C   UNL     1     -43.458 -47.022   8.547  1.00  0.00     0.177 C 
HETATM   23  C   UNL     1     -41.995 -48.218  10.193  1.00  0.00     0.120 A 
ENDBRANCH  13  17
ENDBRANCH   1  13
TORSDOF 6
ENDMDL
MODEL 3
REMARK VINA RESULT:      -5.6      1.334      2.540
REMARK  6 active torsions:
REMARK  status: ('A' for Active; 'I' for Inactive)
REMARK    1  A    between atoms: C_8  and  C_9 
REMARK    2  A    between atoms: C_9  and  N_10 
REMARK    3  A    between atoms: N_10  and  C_11 
REMARK    4  A    between atoms: C_11  and  C_12 
REMARK    5  A    between atoms: C_12  and  N_13 
REMARK    6  A    between atoms: C_12  and  C_16 
ROOT
HETATM    1  C   UNL     1     -40.915 -50.976  12.064  1.00  0.00     0.310 C 
ENDROOT
BRANCH   1   2
HETATM    2  N   UNL     1     -41.211 -52.217  11.323  1.00  0.00     0.086 N 
HETATM    3  H   UNL     1     -42.174 -52.180  10.989  1.00  0.00     0.315 HD
BRANCH   2   4
HETATM    4  C   UNL     1     -41.053 -53.416  12.151  1.00  0.00     0.279 C 
BRANCH   4   5
HETATM    5  C   UNL     1     -41.759 -53.324  13.541  1.00  0.00     0.045 C 
HETATM    6  C   UNL     1     -40.850 -53.616  14.786  1.00  0.00    -0.009 C 
HETATM    7  C   UNL     1     -39.345 -53.738  14.498  1.00  0.00     0.011 C 
HETATM    8  C   UNL     1     -41.259 -54.749  15.745  1.00  0.00     0.009 C 
HETATM    9  C   UNL     1     -42.625 -55.404  15.582  1.00  0.00     0.028 C 
HETATM   10  C   UNL     1     -43.478 -54.919  14.475  1.00  0.00    -0.024 C 
HETATM   11  C   UNL     1     -43.128 -54.001  13.561  1.00  0.00    -0.081 C 
HETATM   12  C   UNL     1     -44.132 -53.570  12.523  1.00  0.00     0.043 C 
ENDBRANCH   4   5
ENDBRANCH   2   4
ENDBRANCH   1   2
BRANCH   1  13
HETATM   13  C   UNL     1     -42.050 -49.891  12.217  1.00  0.00     0.285 C 
BRANCH  13  14
HETATM   14  N   UNL     1     -42.450 -49.603  13.618  1.00  0.00     0.090 N 
HETATM   15  C   UNL     1     -43.725 -50.185  14.022  1.00  0.00     0.310 C 
HETATM   16  C   UNL     1     -41.402 -49.886  14.594  1.00  0.00     0.310 C 
ENDBRANCH  13  14
BRANCH  13  17
HETATM   17  C   UNL     1     -41.692 -48.627  11.459  1.00  0.00     0.011 A 
HETATM   18  C   UNL     1     -42.358 -48.049  10.348  1.00  0.00     0.118 A 
HETATM   19  N   UNL     1     -41.785 -46.922   9.922  1.00  0.00    -0.310 N 
HETATM   20  N   UNL     1     -40.740 -46.768  10.749  1.00  0.00    -0.308 N 
ATOM     21  HN  UNL     1     -42.073 -46.321   9.151  1.00  0.00     0.186 HD
HETATM   22  C   UNL     1     -39.846 -45.648  10.589  1.00  0.00     0.177 C 
HETATM   23  C   UNL     1     -40.647 -47.749  11.695  1.00  0.00     0.120 A 
ENDBRANCH  13  17
ENDBRANCH   1  13
TORSDOF 6
ENDMDL
MODEL 4
REMARK VINA RESULT:      -5.6      2.001      3.150
REMARK  6 active torsions:
REMARK  status: ('A' for Active; 'I' for Inactive)
REMARK    1  A    between atoms: C_8  and  C_9 
REMARK    2  A    between atoms: C_9  and  N_10 
REMARK    3  A    between atoms: N_10  and  C_11 
REMARK    4  A    between atoms: C_11  and  C_12 
REMARK    5  A    between atoms: C_12  and  N_13 
REMARK    6  A    between atoms: C_12  and  C_16 
ROOT
HETATM    1  C   UNL     1     -41.912 -52.306  12.178  1.00  0.00     0.310 C 
ENDROOT
BRANCH   1   2
HETATM    2  N   UNL     1     -43.340 -52.004  12.393  1.00  0.00     0.086 N 
HETATM    3  H   UNL     1     -43.444 -51.518  13.284  1.00  0.00     0.315 HD
BRANCH   2   4
HETATM    4  C   UNL     1     -44.170 -53.212  12.423  1.00  0.00     0.279 C 
BRANCH   4   5
HETATM    5  C   UNL     1     -45.163 -53.268  13.626  1.00  0.00     0.045 C 
HETATM    6  C   UNL     1     -46.484 -52.438  13.457  1.00  0.00    -0.009 C 
HETATM    7  C   UNL     1     -46.731 -51.860  12.054  1.00  0.00     0.011 C 
HETATM    8  C   UNL     1     -46.809 -51.353  14.500  1.00  0.00     0.009 C 
HETATM    9  C   UNL     1     -45.965 -51.260  15.765  1.00  0.00     0.028 C 
HETATM   10  C   UNL     1     -44.848 -52.220  15.901  1.00  0.00    -0.024 C 
HETATM   11  C   UNL     1     -44.470 -53.120  14.979  1.00  0.00    -0.081 C 
HETATM   12  C   UNL     1     -43.341 -54.069  15.290  1.00  0.00     0.043 C 
ENDBRANCH   4   5
ENDBRANCH   2   4
ENDBRANCH   1   2
BRANCH   1  13
HETATM   13  C   UNL     1     -40.840 -51.633  13.122  1.00  0.00     0.285 C 
BRANCH  13  14
HETATM   14  N   UNL     1     -39.786 -52.551  13.620  1.00  0.00     0.090 N 
HETATM   15  C   UNL     1     -39.290 -52.246  14.958  1.00  0.00     0.310 C 
HETATM   16  C   UNL     1     -40.133 -53.963  13.490  1.00  0.00     0.310 C 
ENDBRANCH  13  14
BRANCH  13  17
HETATM   17  C   UNL     1     -40.252 -50.395  12.471  1.00  0.00     0.011 A 
HETATM   18  C   UNL     1     -38.983 -50.243  11.858  1.00  0.00     0.118 A 
HETATM   19  N   UNL     1     -38.780 -49.018  11.370  1.00  0.00    -0.310 N 
HETATM   20  N   UNL     1     -39.913 -48.368  11.671  1.00  0.00    -0.308 N 
ATOM     21  HN  UNL     1     -37.958 -48.661  10.883  1.00  0.00     0.186 HD
HETATM   22  C   UNL     1     -40.071 -46.979  11.317  1.00  0.00     0.177 C 
HETATM   23  C   UNL     1     -40.832 -49.148  12.315  1.00  0.00     0.120 A 
ENDBRANCH  13  17
ENDBRANCH   1  13
TORSDOF 6
ENDMDL
MODEL 5
REMARK VINA RESULT:      -5.6      2.606      3.468
REMARK  6 active torsions:
REMARK  status: ('A' for Active; 'I' for Inactive)
REMARK    1  A    between atoms: C_8  and  C_9 
REMARK    2  A    between atoms: C_9  and  N_10 
REMARK    3  A    between atoms: N_10  and  C_11 
REMARK    4  A    between atoms: C_11  and  C_12 
REMARK    5  A    between atoms: C_12  and  N_13 
REMARK    6  A    between atoms: C_12  and  C_16 
ROOT
HETATM    1  C   UNL     1     -42.998 -48.726  13.918  1.00  0.00     0.310 C 
ENDROOT
BRANCH   1   2
HETATM    2  N   UNL     1     -43.720 -49.801  13.211  1.00  0.00     0.086 N 
HETATM    3  H   UNL     1     -44.515 -49.395  12.716  1.00  0.00     0.315 HD
BRANCH   2   4
HETATM    4  C   UNL     1     -44.220 -50.835  14.121  1.00  0.00     0.279 C 
BRANCH   4   5
HETATM    5  C   UNL     1     -45.037 -51.961  13.413  1.00  0.00     0.045 C 
HETATM    6  C   UNL     1     -46.434 -52.290  14.049  1.00  0.00    -0.009 C 
HETATM    7  C   UNL     1     -46.912 -51.320  15.142  1.00  0.00     0.011 C 
HETATM    8  C   UNL     1     -46.708 -53.730  14.516  1.00  0.00     0.009 C 
HETATM    9  C   UNL     1     -45.715 -54.830  14.160  1.00  0.00     0.028 C 
HETATM   10  C   UNL     1     -44.514 -54.431  13.396  1.00  0.00    -0.024 C 
HETATM   11  C   UNL     1     -44.187 -53.176  13.047  1.00  0.00    -0.081 C 
HETATM   12  C   UNL     1     -42.952 -52.936  12.218  1.00  0.00     0.043 C 
ENDBRANCH   4   5
ENDBRANCH   2   4
ENDBRANCH   1   2
BRANCH   1  13
HETATM   13  C   UNL     1     -42.665 -47.393  13.142  1.00  0.00     0.285 C 
BRANCH  13  14
HETATM   14  N   UNL     1     -41.472 -46.665  13.641  1.00  0.00     0.090 N 
HETATM   15  C   UNL     1     -41.571 -45.211  13.577  1.00  0.00     0.310 C 
HETATM   16  C   UNL     1     -41.025 -47.110  14.957  1.00  0.00     0.310 C 
ENDBRANCH  13  14
BRANCH  13  17
HETATM   17  C   UNL     1     -42.591 -47.645  11.648  1.00  0.00     0.011 A 
HETATM   18  C   UNL     1     -41.555 -48.277  10.913  1.00  0.00     0.118 A 
HETATM   19  N   UNL     1     -41.809 -48.347   9.605  1.00  0.00    -0.310 N 
HETATM   20  N   UNL     1     -43.006 -47.754   9.484  1.00  0.00    -0.308 N 
ATOM     21  HN  UNL     1     -41.230 -48.755   8.871  1.00  0.00     0.186 HD
HETATM   22  C   UNL     1     -43.620 -47.615   8.187  1.00  0.00     0.177 C 
HETATM   23  C   UNL     1     -43.524 -47.331  10.675  1.00  0.00     0.120 A 
ENDBRANCH  13  17
ENDBRANCH   1  13
TORSDOF 6
ENDMDL
MODEL 6
REMARK VINA RESULT:      -5.6      0.963      2.307
REMARK  6 active torsions:
REMARK  status: ('A' for Active; 'I' for Inactive)
REMARK    1  A    between atoms: C_8  and  C_9 
REMARK    2  A    between atoms: C_9  and  N_10 
REMARK    3  A    between atoms: N_10  and  C_11 
REMARK    4  A    between atoms: C_11  and  C_12 
REMARK    5  A    between atoms: C_12  and  N_13 
REMARK    6  A    between atoms: C_12  and  C_16 
ROOT
HETATM    1  C   UNL     1     -41.234 -51.152  12.263  1.00  0.00     0.310 C 
ENDROOT
BRANCH   1   2
HETATM    2  N   UNL     1     -40.985 -52.328  11.408  1.00  0.00     0.086 N 
HETATM    3  H   UNL     1     -41.665 -52.333  10.648  1.00  0.00     0.315 HD
BRANCH   2   4
HETATM    4  C   UNL     1     -41.101 -53.591  12.142  1.00  0.00     0.279 C 
BRANCH   4   5
HETATM    5  C   UNL     1     -41.789 -53.452  13.537  1.00  0.00     0.045 C 
HETATM    6  C   UNL     1     -40.896 -53.813  14.776  1.00  0.00    -0.009 C 
HETATM    7  C   UNL     1     -39.406 -54.043  14.476  1.00  0.00     0.011 C 
HETATM    8  C   UNL     1     -41.380 -54.916  15.734  1.00  0.00     0.009 C 
HETATM    9  C   UNL     1     -42.791 -55.469  15.579  1.00  0.00     0.028 C 
HETATM   10  C   UNL     1     -43.614 -54.920  14.479  1.00  0.00    -0.024 C 
HETATM   11  C   UNL     1     -43.204 -54.027  13.565  1.00  0.00    -0.081 C 
HETATM   12  C   UNL     1     -44.181 -53.521  12.534  1.00  0.00     0.043 C 
ENDBRANCH   4   5
ENDBRANCH   2   4
ENDBRANCH   1   2
BRANCH   1  13
HETATM   13  C   UNL     1     -40.065 -50.117  12.495  1.00  0.00     0.285 C 
BRANCH  13  14
HETATM   14  N   UNL     1     -38.704 -50.647  12.232  1.00  0.00     0.090 N 
HETATM   15  C   UNL     1     -37.922 -49.877  11.271  1.00  0.00     0.310 C 
HETATM   16  C   UNL     1     -37.939 -50.918  13.445  1.00  0.00     0.310 C 
ENDBRANCH  13  14
BRANCH  13  17
HETATM   17  C   UNL     1     -40.329 -48.830  11.736  1.00  0.00     0.011 A 
HETATM   18  C   UNL     1     -41.225 -48.612  10.660  1.00  0.00     0.118 A 
HETATM   19  N   UNL     1     -41.223 -47.351  10.223  1.00  0.00    -0.310 N 
HETATM   20  N   UNL     1     -40.319 -46.748  11.008  1.00  0.00    -0.308 N 
ATOM     21  HN  UNL     1     -41.777 -46.943   9.471  1.00  0.00     0.186 HD
HETATM   22  C   UNL     1     -40.014 -45.351  10.825  1.00  0.00     0.177 C 
HETATM   23  C   UNL     1     -39.766 -47.582  11.939  1.00  0.00     0.120 A 
ENDBRANCH  13  17
ENDBRANCH   1  13
TORSDOF 6
ENDMDL
MODEL 7
REMARK VINA RESULT:      -5.6      1.531      3.600
REMARK  6 active torsions:
REMARK  status: ('A' for Active; 'I' for Inactive)
REMARK    1  A    between atoms: C_8  and  C_9 
REMARK    2  A    between atoms: C_9  and  N_10 
REMARK    3  A    between atoms: N_10  and  C_11 
REMARK    4  A    between atoms: C_11  and  C_12 
REMARK    5  A    between atoms: C_12  and  N_13 
REMARK    6  A    between atoms: C_12  and  C_16 
ROOT
HETATM    1  C   UNL     1     -41.487 -51.236  12.111  1.00  0.00     0.310 C 
ENDROOT
BRANCH   1   2
HETATM    2  N   UNL     1     -41.201 -52.465  11.348  1.00  0.00     0.086 N 
HETATM    3  H   UNL     1     -41.958 -52.625  10.683  1.00  0.00     0.315 HD
BRANCH   2   4
HETATM    4  C   UNL     1     -41.084 -53.645  12.209  1.00  0.00     0.279 C 
BRANCH   4   5
HETATM    5  C   UNL     1     -41.744 -53.473  13.613  1.00  0.00     0.045 C 
HETATM    6  C   UNL     1     -40.790 -53.672  14.843  1.00  0.00    -0.009 C 
HETATM    7  C   UNL     1     -39.294 -53.790  14.511  1.00  0.00     0.011 C 
HETATM    8  C   UNL     1     -41.148 -54.746  15.886  1.00  0.00     0.009 C 
HETATM    9  C   UNL     1     -42.508 -55.429  15.812  1.00  0.00     0.028 C 
HETATM   10  C   UNL     1     -43.405 -55.029  14.707  1.00  0.00    -0.024 C 
HETATM   11  C   UNL     1     -43.101 -54.166  13.723  1.00  0.00    -0.081 C 
HETATM   12  C   UNL     1     -44.146 -53.818  12.695  1.00  0.00     0.043 C 
ENDBRANCH   4   5
ENDBRANCH   2   4
ENDBRANCH   1   2
BRANCH   1  13
HETATM   13  C   UNL     1     -40.785 -49.890  11.678  1.00  0.00     0.285 C 
BRANCH  13  14
HETATM   14  N   UNL     1     -41.683 -48.708  11.630  1.00  0.00     0.090 N 
HETATM   15  C   UNL     1     -41.855 -48.123  10.304  1.00  0.00     0.310 C 
HETATM   16  C   UNL     1     -42.968 -48.924  12.287  1.00  0.00     0.310 C 
ENDBRANCH  13  14
BRANCH  13  17
HETATM   17  C   UNL     1     -39.552 -49.630  12.521  1.00  0.00     0.011 A 
HETATM   18  C   UNL     1     -38.527 -50.541  12.883  1.00  0.00     0.118 A 
HETATM   19  N   UNL     1     -37.572 -49.985  13.630  1.00  0.00    -0.310 N 
HETATM   20  N   UNL     1     -37.976 -48.713  13.763  1.00  0.00    -0.308 N 
ATOM     21  HN  UNL     1     -36.733 -50.423  14.010  1.00  0.00     0.186 HD
HETATM   22  C   UNL     1     -37.198 -47.780  14.539  1.00  0.00     0.177 C 
HETATM   23  C   UNL     1     -39.144 -48.444  13.107  1.00  0.00     0.120 A 
ENDBRANCH  13  17
ENDBRANCH   1  13
TORSDOF 6
ENDMDL
MODEL 8
REMARK VINA RESULT:      -5.4      2.010      3.272
REMARK  6 active torsions:
REMARK  status: ('A' for Active; 'I' for Inactive)
REMARK    1  A    between atoms: C_8  and  C_9 
REMARK    2  A    between atoms: C_9  and  N_10 
REMARK    3  A    between atoms: N_10  and  C_11 
REMARK    4  A    between atoms: C_11  and  C_12 
REMARK    5  A    between atoms: C_12  and  N_13 
REMARK    6  A    between atoms: C_12  and  C_16 
ROOT
HETATM    1  C   UNL     1     -42.596 -48.897  11.784  1.00  0.00     0.310 C 
ENDROOT
BRANCH   1   2
HETATM    2  N   UNL     1     -42.218 -50.323  11.788  1.00  0.00     0.086 N 
HETATM    3  H   UNL     1     -42.587 -50.764  10.946  1.00  0.00     0.315 HD
BRANCH   2   4
HETATM    4  C   UNL     1     -42.739 -51.039  12.955  1.00  0.00     0.279 C 
BRANCH   4   5
HETATM    5  C   UNL     1     -43.157 -52.514  12.659  1.00  0.00     0.045 C 
HETATM    6  C   UNL     1     -44.685 -52.832  12.815  1.00  0.00    -0.009 C 
HETATM    7  C   UNL     1     -45.601 -51.615  13.022  1.00  0.00     0.011 C 
HETATM    8  C   UNL     1     -45.109 -53.938  13.798  1.00  0.00     0.009 C 
HETATM    9  C   UNL     1     -44.041 -54.826  14.425  1.00  0.00     0.028 C 
HETATM   10  C   UNL     1     -42.635 -54.547  14.062  1.00  0.00    -0.024 C 
HETATM   11  C   UNL     1     -42.211 -53.538  13.283  1.00  0.00    -0.081 C 
HETATM   12  C   UNL     1     -40.744 -53.418  12.959  1.00  0.00     0.043 C 
ENDBRANCH   4   5
ENDBRANCH   2   4
ENDBRANCH   1   2
BRANCH   1  13
HETATM   13  C   UNL     1     -42.055 -47.967  10.629  1.00  0.00     0.285 C 
BRANCH  13  14
HETATM   14  N   UNL     1     -43.106 -47.369   9.769  1.00  0.00     0.090 N 
HETATM   15  C   UNL     1     -43.060 -47.781   8.370  1.00  0.00     0.310 C 
HETATM   16  C   UNL     1     -44.452 -47.497  10.317  1.00  0.00     0.310 C 
ENDBRANCH  13  14
BRANCH  13  17
HETATM   17  C   UNL     1     -41.109 -46.918  11.182  1.00  0.00     0.011 A 
HETATM   18  C   UNL     1     -40.604 -45.762  10.535  1.00  0.00     0.118 A 
HETATM   19  N   UNL     1     -39.796 -45.038  11.312  1.00  0.00    -0.310 N 
HETATM   20  N   UNL     1     -39.767 -45.725  12.463  1.00  0.00    -0.308 N 
ATOM     21  HN  UNL     1     -39.315 -44.168  11.085  1.00  0.00     0.186 HD
HETATM   22  C   UNL     1     -38.966 -45.260  13.568  1.00  0.00     0.177 C 
HETATM   23  C   UNL     1     -40.546 -46.848  12.444  1.00  0.00     0.120 A 
ENDBRANCH  13  17
ENDBRANCH   1  13
TORSDOF 6
ENDMDL
MODEL 9
REMARK VINA RESULT:      -5.3      2.165      2.928
REMARK  6 active torsions:
REMARK  status: ('A' for Active; 'I' for Inactive)
REMARK    1  A    between atoms: C_8  and  C_9 
REMARK    2  A    between atoms: C_9  and  N_10 
REMARK    3  A    between atoms: N_10  and  C_11 
REMARK    4  A    between atoms: C_11  and  C_12 
REMARK    5  A    between atoms: C_12  and  N_13 
REMARK    6  A    between atoms: C_12  and  C_16 
ROOT
HETATM    1  C   UNL     1     -42.767 -50.223  12.815  1.00  0.00     0.310 C 
ENDROOT
BRANCH   1   2
HETATM    2  N   UNL     1     -43.413 -50.114  14.136  1.00  0.00     0.086 N 
HETATM    3  H   UNL     1     -42.793 -49.603  14.765  1.00  0.00     0.315 HD
BRANCH   2   4
HETATM    4  C   UNL     1     -43.700 -51.423  14.730  1.00  0.00     0.279 C 
BRANCH   4   5
HETATM    5  C   UNL     1     -44.592 -52.342  13.837  1.00  0.00     0.045 C 
HETATM    6  C   UNL     1     -46.131 -52.295  14.137  1.00  0.00    -0.009 C 
HETATM    7  C   UNL     1     -46.586 -51.198  15.113  1.00  0.00     0.011 C 
HETATM    8  C   UNL     1     -46.848 -53.606  14.505  1.00  0.00     0.009 C 
HETATM    9  C   UNL     1     -46.103 -54.928  14.360  1.00  0.00     0.028 C 
HETATM   10  C   UNL     1     -44.702 -54.863  13.893  1.00  0.00    -0.024 C 
HETATM   11  C   UNL     1     -44.007 -53.740  13.649  1.00  0.00    -0.081 C 
HETATM   12  C   UNL     1     -42.599 -53.840  13.122  1.00  0.00     0.043 C 
ENDBRANCH   4   5
ENDBRANCH   2   4
ENDBRANCH   1   2
BRANCH   1  13
HETATM   13  C   UNL     1     -41.692 -49.145  12.400  1.00  0.00     0.285 C 
BRANCH  13  14
HETATM   14  N   UNL     1     -40.467 -49.698  11.770  1.00  0.00     0.090 N 
HETATM   15  C   UNL     1     -39.274 -48.873  11.921  1.00  0.00     0.310 C 
HETATM   16  C   UNL     1     -40.202 -51.087  12.129  1.00  0.00     0.310 C 
ENDBRANCH  13  14
BRANCH  13  17
HETATM   17  C   UNL     1     -42.321 -48.054  11.555  1.00  0.00     0.011 A 
HETATM   18  C   UNL     1     -42.923 -46.845  11.986  1.00  0.00     0.118 A 
HETATM   19  N   UNL     1     -43.374 -46.096  10.978  1.00  0.00    -0.310 N 
HETATM   20  N   UNL     1     -43.075 -46.819   9.890  1.00  0.00    -0.308 N 
ATOM     21  HN  UNL     1     -43.836 -45.188  11.024  1.00  0.00     0.186 HD
HETATM   22  C   UNL     1     -43.431 -46.340   8.578  1.00  0.00     0.177 C 
HETATM   23  C   UNL     1     -42.432 -47.990  10.177  1.00  0.00     0.120 A 
ENDBRANCH  13  17
ENDBRANCH   1  13
TORSDOF 6
ENDMDL
