MODEL 1
REMARK VINA RESULT:      -6.1      0.000      0.000
REMARK  3 active torsions:
REMARK  status: ('A' for Active; 'I' for Inactive)
REMARK    1  A    between atoms: O_2  and  C_3 
REMARK    2  A    between atoms: C_10  and  N_11 
REMARK       I    between atoms: N_11  and  C_12 
REMARK       I    between atoms: C_12  and  N_14 
REMARK    3  A    between atoms: N_14  and  C_15 
ROOT
HETATM    1  N   UNL     1     -42.787 -53.354  12.075  1.00  0.00    -0.292 N 
HETATM    2  C   UNL     1     -43.996 -53.457  12.695  1.00  0.00     0.322 C 
HETATM    3  O   UNL     1     -44.781 -54.341  12.355  1.00  0.00    -0.247 OA
HETATM    4  N   UNL     1     -44.224 -52.616  13.742  1.00  0.00    -0.338 N 
HETATM    5  H   UNL     1     -42.582 -54.105  11.430  1.00  0.00     0.172 HD
HETATM    6  H   UNL     1     -43.623 -51.793  13.765  1.00  0.00     0.164 HD
ENDROOT
BRANCH   1   7
HETATM    7  C   UNL     1     -41.779 -52.400  12.260  1.00  0.00     0.143 A 
HETATM    8  C   UNL     1     -40.655 -52.760  13.016  1.00  0.00     0.112 A 
HETATM    9  C   UNL     1     -39.650 -51.807  13.176  1.00  0.00     0.042 A 
HETATM   10  C   UNL     1     -39.789 -50.550  12.595  1.00  0.00     0.027 A 
HETATM   11  C   UNL     1     -40.933 -50.274  11.858  1.00  0.00     0.007 A 
HETATM   12  C   UNL     1     -41.135 -48.937  11.213  1.00  0.00     0.068 C 
HETATM   13  N   UNL     1     -41.929 -51.175  11.699  1.00  0.00    -0.344 N 
ATOM     14  HN  UNL     1     -42.770 -50.939  11.173  1.00  0.00     0.167 HD
BRANCH   8  15
HETATM   15  O   UNL     1     -40.618 -54.023  13.554  1.00  0.00    -0.352 OA
HETATM   16  C   UNL     1     -39.335 -54.468  13.992  1.00  0.00     0.210 C 
ENDBRANCH   8  15
ENDBRANCH   1   7
BRANCH   4  17
HETATM   17  C   UNL     1     -45.412 -52.673  14.556  1.00  0.00     0.086 C 
HETATM   18  C   UNL     1     -46.421 -51.566  14.250  1.00  0.00     0.025 C 
HETATM   19  C   UNL     1     -47.167 -51.317  15.564  1.00  0.00     0.002 C 
HETATM   20  C   UNL     1     -46.510 -52.220  16.605  1.00  0.00     0.002 C 
HETATM   21  C   UNL     1     -45.123 -52.488  16.042  1.00  0.00     0.025 C 
ENDBRANCH   4  17
TORSDOF 3
ENDMDL
MODEL 2
REMARK VINA RESULT:      -5.7      2.696      4.158
REMARK  3 active torsions:
REMARK  status: ('A' for Active; 'I' for Inactive)
REMARK    1  A    between atoms: O_2  and  C_3 
REMARK    2  A    between atoms: C_10  and  N_11 
REMARK       I    between atoms: N_11  and  C_12 
REMARK       I    between atoms: C_12  and  N_14 
REMARK    3  A    between atoms: N_14  and  C_15 
ROOT
HETATM    1  N   UNL     1     -41.217 -50.048  11.410  1.00  0.00    -0.292 N 
HETATM    2  C   UNL     1     -41.993 -50.894  12.144  1.00  0.00     0.322 C 
HETATM    3  O   UNL     1     -41.612 -52.045  12.351  1.00  0.00    -0.247 OA
HETATM    4  N   UNL     1     -43.123 -50.370  12.696  1.00  0.00    -0.338 N 
HETATM    5  H   UNL     1     -40.306 -50.416  11.171  1.00  0.00     0.172 HD
HETATM    6  H   UNL     1     -43.447 -49.506  12.261  1.00  0.00     0.164 HD
ENDROOT
BRANCH   1   7
HETATM    7  C   UNL     1     -41.481 -48.733  11.008  1.00  0.00     0.143 A 
HETATM    8  C   UNL     1     -40.620 -47.718  11.451  1.00  0.00     0.112 A 
HETATM    9  C   UNL     1     -40.883 -46.416  11.027  1.00  0.00     0.042 A 
HETATM   10  C   UNL     1     -41.972 -46.165  10.198  1.00  0.00     0.027 A 
HETATM   11  C   UNL     1     -42.775 -47.226   9.802  1.00  0.00     0.007 A 
HETATM   12  C   UNL     1     -43.960 -47.012   8.912  1.00  0.00     0.068 C 
HETATM   13  N   UNL     1     -42.551 -48.496  10.210  1.00  0.00    -0.344 N 
ATOM     14  HN  UNL     1     -43.169 -49.255   9.924  1.00  0.00     0.167 HD
BRANCH   8  15
HETATM   15  O   UNL     1     -39.579 -48.070  12.274  1.00  0.00    -0.352 OA
HETATM   16  C   UNL     1     -39.312 -47.168  13.347  1.00  0.00     0.210 C 
ENDBRANCH   8  15
ENDBRANCH   1   7
BRANCH   4  17
HETATM   17  C   UNL     1     -43.989 -51.112  13.576  1.00  0.00     0.086 C 
HETATM   18  C   UNL     1     -45.407 -51.292  13.035  1.00  0.00     0.025 C 
HETATM   19  C   UNL     1     -46.308 -51.392  14.270  1.00  0.00     0.002 C 
HETATM   20  C   UNL     1     -45.398 -51.181  15.478  1.00  0.00     0.002 C 
HETATM   21  C   UNL     1     -44.207 -50.421  14.918  1.00  0.00     0.025 C 
ENDBRANCH   4  17
TORSDOF 3
ENDMDL
MODEL 3
REMARK VINA RESULT:      -5.6      1.358      2.758
REMARK  3 active torsions:
REMARK  status: ('A' for Active; 'I' for Inactive)
REMARK    1  A    between atoms: O_2  and  C_3 
REMARK    2  A    between atoms: C_10  and  N_11 
REMARK       I    between atoms: N_11  and  C_12 
REMARK       I    between atoms: C_12  and  N_14 
REMARK    3  A    between atoms: N_14  and  C_15 
ROOT
HETATM    1  N   UNL     1     -43.287 -52.943  12.070  1.00  0.00    -0.292 N 
HETATM    2  C   UNL     1     -44.500 -52.884  12.688  1.00  0.00     0.322 C 
HETATM    3  O   UNL     1     -45.525 -53.084  12.038  1.00  0.00    -0.247 OA
HETATM    4  N   UNL     1     -44.494 -52.699  14.038  1.00  0.00    -0.338 N 
HETATM    5  H   UNL     1     -43.321 -53.259  11.110  1.00  0.00     0.172 HD
HETATM    6  H   UNL     1     -43.627 -52.311  14.410  1.00  0.00     0.164 HD
ENDROOT
BRANCH   1   7
HETATM    7  C   UNL     1     -42.014 -52.693  12.598  1.00  0.00     0.143 A 
HETATM    8  C   UNL     1     -41.558 -51.366  12.630  1.00  0.00     0.112 A 
HETATM    9  C   UNL     1     -40.298 -51.129  13.177  1.00  0.00     0.042 A 
HETATM   10  C   UNL     1     -39.542 -52.192  13.662  1.00  0.00     0.027 A 
HETATM   11  C   UNL     1     -40.068 -53.475  13.596  1.00  0.00     0.007 A 
HETATM   12  C   UNL     1     -39.297 -54.655  14.102  1.00  0.00     0.068 C 
HETATM   13  N   UNL     1     -41.281 -53.735  13.058  1.00  0.00    -0.344 N 
ATOM     14  HN  UNL     1     -41.635 -54.690  13.000  1.00  0.00     0.167 HD
BRANCH   8  15
HETATM   15  O   UNL     1     -42.377 -50.391  12.117  1.00  0.00    -0.352 OA
HETATM   16  C   UNL     1     -41.714 -49.226  11.626  1.00  0.00     0.210 C 
ENDBRANCH   8  15
ENDBRANCH   1   7
BRANCH   4  17
HETATM   17  C   UNL     1     -45.689 -52.715  14.842  1.00  0.00     0.086 C 
HETATM   18  C   UNL     1     -46.523 -51.439  14.728  1.00  0.00     0.025 C 
HETATM   19  C   UNL     1     -47.245 -51.300  16.072  1.00  0.00     0.002 C 
HETATM   20  C   UNL     1     -46.742 -52.446  16.946  1.00  0.00     0.002 C 
HETATM   21  C   UNL     1     -45.400 -52.817  16.336  1.00  0.00     0.025 C 
ENDBRANCH   4  17
TORSDOF 3
ENDMDL
MODEL 4
REMARK VINA RESULT:      -5.5      2.369      4.822
REMARK  3 active torsions:
REMARK  status: ('A' for Active; 'I' for Inactive)
REMARK    1  A    between atoms: O_2  and  C_3 
REMARK    2  A    between atoms: C_10  and  N_11 
REMARK       I    between atoms: N_11  and  C_12 
REMARK       I    between atoms: C_12  and  N_14 
REMARK    3  A    between atoms: N_14  and  C_15 
ROOT
HETATM    1  N   UNL     1     -41.039 -51.733  11.488  1.00  0.00    -0.292 N 
HETATM    2  C   UNL     1     -40.885 -50.387  11.630  1.00  0.00     0.322 C 
HETATM    3  O   UNL     1     -40.111 -49.781  10.890  1.00  0.00    -0.247 OA
HETATM    4  N   UNL     1     -41.688 -49.768  12.540  1.00  0.00    -0.338 N 
HETATM    5  H   UNL     1     -40.564 -52.126  10.687  1.00  0.00     0.172 HD
HETATM    6  H   UNL     1     -42.093 -50.388  13.241  1.00  0.00     0.164 HD
ENDROOT
BRANCH   1   7
HETATM    7  C   UNL     1     -41.811 -52.618  12.251  1.00  0.00     0.143 A 
HETATM    8  C   UNL     1     -41.149 -53.470  13.148  1.00  0.00     0.112 A 
HETATM    9  C   UNL     1     -41.931 -54.332  13.917  1.00  0.00     0.042 A 
HETATM   10  C   UNL     1     -43.315 -54.326  13.772  1.00  0.00     0.027 A 
HETATM   11  C   UNL     1     -43.892 -53.450  12.863  1.00  0.00     0.007 A 
HETATM   12  C   UNL     1     -45.376 -53.403  12.667  1.00  0.00     0.068 C 
HETATM   13  N   UNL     1     -43.157 -52.613  12.096  1.00  0.00    -0.344 N 
ATOM     14  HN  UNL     1     -43.603 -51.995  11.418  1.00  0.00     0.167 HD
BRANCH   8  15
HETATM   15  O   UNL     1     -39.779 -53.404  13.208  1.00  0.00    -0.352 OA
HETATM   16  C   UNL     1     -39.155 -54.358  14.066  1.00  0.00     0.210 C 
ENDBRANCH   8  15
ENDBRANCH   1   7
BRANCH   4  17
HETATM   17  C   UNL     1     -41.711 -48.340  12.731  1.00  0.00     0.086 C 
HETATM   18  C   UNL     1     -42.156 -47.914  14.130  1.00  0.00     0.025 C 
HETATM   19  C   UNL     1     -42.810 -46.541  13.952  1.00  0.00     0.002 C 
HETATM   20  C   UNL     1     -42.801 -46.257  12.452  1.00  0.00     0.002 C 
HETATM   21  C   UNL     1     -42.702 -47.633  11.813  1.00  0.00     0.025 C 
ENDBRANCH   4  17
TORSDOF 3
ENDMDL
MODEL 5
REMARK VINA RESULT:      -5.5      2.563      3.922
REMARK  3 active torsions:
REMARK  status: ('A' for Active; 'I' for Inactive)
REMARK    1  A    between atoms: O_2  and  C_3 
REMARK    2  A    between atoms: C_10  and  N_11 
REMARK       I    between atoms: N_11  and  C_12 
REMARK       I    between atoms: C_12  and  N_14 
REMARK    3  A    between atoms: N_14  and  C_15 
ROOT
HETATM    1  N   UNL     1     -40.916 -50.596  11.869  1.00  0.00    -0.292 N 
HETATM    2  C   UNL     1     -41.310 -51.883  12.079  1.00  0.00     0.322 C 
HETATM    3  O   UNL     1     -40.479 -52.789  12.040  1.00  0.00    -0.247 OA
HETATM    4  N   UNL     1     -42.614 -52.079  12.424  1.00  0.00    -0.338 N 
HETATM    5  H   UNL     1     -39.915 -50.471  11.796  1.00  0.00     0.172 HD
HETATM    6  H   UNL     1     -43.237 -51.307  12.187  1.00  0.00     0.164 HD
ENDROOT
BRANCH   1   7
HETATM    7  C   UNL     1     -41.694 -49.433  11.810  1.00  0.00     0.143 A 
HETATM    8  C   UNL     1     -42.055 -48.815  13.016  1.00  0.00     0.112 A 
HETATM    9  C   UNL     1     -42.813 -47.647  12.942  1.00  0.00     0.042 A 
HETATM   10  C   UNL     1     -43.186 -47.141  11.701  1.00  0.00     0.027 A 
HETATM   11  C   UNL     1     -42.785 -47.812  10.553  1.00  0.00     0.007 A 
HETATM   12  C   UNL     1     -43.159 -47.312   9.192  1.00  0.00     0.068 C 
HETATM   13  N   UNL     1     -42.061 -48.954  10.597  1.00  0.00    -0.344 N 
ATOM     14  HN  UNL     1     -41.799 -49.441   9.740  1.00  0.00     0.167 HD
BRANCH   8  15
HETATM   15  O   UNL     1     -41.645 -49.400  14.189  1.00  0.00    -0.352 OA
HETATM   16  C   UNL     1     -40.716 -48.642  14.962  1.00  0.00     0.210 C 
ENDBRANCH   8  15
ENDBRANCH   1   7
BRANCH   4  17
HETATM   17  C   UNL     1     -43.153 -53.369  12.774  1.00  0.00     0.086 C 
HETATM   18  C   UNL     1     -44.657 -53.492  12.533  1.00  0.00     0.025 C 
HETATM   19  C   UNL     1     -45.155 -54.510  13.564  1.00  0.00     0.002 C 
HETATM   20  C   UNL     1     -43.945 -54.875  14.420  1.00  0.00     0.002 C 
HETATM   21  C   UNL     1     -43.003 -53.693  14.257  1.00  0.00     0.025 C 
ENDBRANCH   4  17
TORSDOF 3
ENDMDL
MODEL 6
REMARK VINA RESULT:      -5.4      2.855      5.817
REMARK  3 active torsions:
REMARK  status: ('A' for Active; 'I' for Inactive)
REMARK    1  A    between atoms: O_2  and  C_3 
REMARK    2  A    between atoms: C_10  and  N_11 
REMARK       I    between atoms: N_11  and  C_12 
REMARK       I    between atoms: C_12  and  N_14 
REMARK    3  A    between atoms: N_14  and  C_15 
ROOT
HETATM    1  N   UNL     1     -42.473 -50.079  13.173  1.00  0.00    -0.292 N 
HETATM    2  C   UNL     1     -42.505 -48.904  12.485  1.00  0.00     0.322 C 
HETATM    3  O   UNL     1     -41.614 -48.073  12.657  1.00  0.00    -0.247 OA
HETATM    4  N   UNL     1     -43.491 -48.762  11.555  1.00  0.00    -0.338 N 
HETATM    5  H   UNL     1     -41.633 -50.224  13.717  1.00  0.00     0.172 HD
HETATM    6  H   UNL     1     -44.285 -49.390  11.678  1.00  0.00     0.164 HD
ENDROOT
BRANCH   1   7
HETATM    7  C   UNL     1     -43.404 -51.126  13.175  1.00  0.00     0.143 A 
HETATM    8  C   UNL     1     -43.054 -52.326  12.538  1.00  0.00     0.112 A 
HETATM    9  C   UNL     1     -43.981 -53.367  12.565  1.00  0.00     0.042 A 
HETATM   10  C   UNL     1     -45.204 -53.188  13.206  1.00  0.00     0.027 A 
HETATM   11  C   UNL     1     -45.472 -51.970  13.815  1.00  0.00     0.007 A 
HETATM   12  C   UNL     1     -46.771 -51.724  14.518  1.00  0.00     0.068 C 
HETATM   13  N   UNL     1     -44.596 -50.939  13.793  1.00  0.00    -0.344 N 
ATOM     14  HN  UNL     1     -44.826 -50.046  14.228  1.00  0.00     0.167 HD
BRANCH   8  15
HETATM   15  O   UNL     1     -41.827 -52.397  11.927  1.00  0.00    -0.352 OA
HETATM   16  C   UNL     1     -40.883 -53.273  12.542  1.00  0.00     0.210 C 
ENDBRANCH   8  15
ENDBRANCH   1   7
BRANCH   4  17
HETATM   17  C   UNL     1     -43.593 -47.621  10.681  1.00  0.00     0.086 C 
HETATM   18  C   UNL     1     -44.976 -47.449  10.054  1.00  0.00     0.025 C 
HETATM   19  C   UNL     1     -44.734 -46.755   8.710  1.00  0.00     0.002 C 
HETATM   20  C   UNL     1     -43.220 -46.627   8.564  1.00  0.00     0.002 C 
HETATM   21  C   UNL     1     -42.665 -47.712   9.474  1.00  0.00     0.025 C 
ENDBRANCH   4  17
TORSDOF 3
ENDMDL
MODEL 7
REMARK VINA RESULT:      -5.2      2.474      5.638
REMARK  3 active torsions:
REMARK  status: ('A' for Active; 'I' for Inactive)
REMARK    1  A    between atoms: O_2  and  C_3 
REMARK    2  A    between atoms: C_10  and  N_11 
REMARK       I    between atoms: N_11  and  C_12 
REMARK       I    between atoms: C_12  and  N_14 
REMARK    3  A    between atoms: N_14  and  C_15 
ROOT
HETATM    1  N   UNL     1     -40.705 -51.501  11.497  1.00  0.00    -0.292 N 
HETATM    2  C   UNL     1     -39.946 -50.506  12.036  1.00  0.00     0.322 C 
HETATM    3  O   UNL     1     -39.215 -49.835  11.308  1.00  0.00    -0.247 OA
HETATM    4  N   UNL     1     -40.122 -50.247  13.362  1.00  0.00    -0.338 N 
HETATM    5  H   UNL     1     -40.683 -51.543  10.487  1.00  0.00     0.172 HD
HETATM    6  H   UNL     1     -40.553 -51.006  13.890  1.00  0.00     0.164 HD
ENDROOT
BRANCH   1   7
HETATM    7  C   UNL     1     -41.550 -52.413  12.141  1.00  0.00     0.143 A 
HETATM    8  C   UNL     1     -40.967 -53.398  12.952  1.00  0.00     0.112 A 
HETATM    9  C   UNL     1     -41.820 -54.288  13.603  1.00  0.00     0.042 A 
HETATM   10  C   UNL     1     -43.197 -54.178  13.431  1.00  0.00     0.027 A 
HETATM   11  C   UNL     1     -43.694 -53.173  12.613  1.00  0.00     0.007 A 
HETATM   12  C   UNL     1     -45.166 -53.010  12.391  1.00  0.00     0.068 C 
HETATM   13  N   UNL     1     -42.888 -52.305  11.958  1.00  0.00    -0.344 N 
ATOM     14  HN  UNL     1     -43.277 -51.590  11.344  1.00  0.00     0.167 HD
BRANCH   8  15
HETATM   15  O   UNL     1     -39.598 -53.426  13.048  1.00  0.00    -0.352 OA
HETATM   16  C   UNL     1     -39.076 -54.079  14.205  1.00  0.00     0.210 C 
ENDBRANCH   8  15
ENDBRANCH   1   7
BRANCH   4  17
HETATM   17  C   UNL     1     -39.466 -49.163  14.049  1.00  0.00     0.086 C 
HETATM   18  C   UNL     1     -39.932 -47.779  13.598  1.00  0.00     0.025 C 
HETATM   19  C   UNL     1     -38.732 -46.852  13.816  1.00  0.00     0.002 C 
HETATM   20  C   UNL     1     -37.590 -47.741  14.301  1.00  0.00     0.002 C 
HETATM   21  C   UNL     1     -37.961 -49.128  13.802  1.00  0.00     0.025 C 
ENDBRANCH   4  17
TORSDOF 3
ENDMDL
MODEL 8
REMARK VINA RESULT:      -4.9      3.134      5.400
REMARK  3 active torsions:
REMARK  status: ('A' for Active; 'I' for Inactive)
REMARK    1  A    between atoms: O_2  and  C_3 
REMARK    2  A    between atoms: C_10  and  N_11 
REMARK       I    between atoms: N_11  and  C_12 
REMARK       I    between atoms: C_12  and  N_14 
REMARK    3  A    between atoms: N_14  and  C_15 
ROOT
HETATM    1  N   UNL     1     -43.015 -48.736  12.894  1.00  0.00    -0.292 N 
HETATM    2  C   UNL     1     -42.577 -50.010  13.099  1.00  0.00     0.322 C 
HETATM    3  O   UNL     1     -42.574 -50.477  14.236  1.00  0.00    -0.247 OA
HETATM    4  N   UNL     1     -42.254 -50.735  11.991  1.00  0.00    -0.338 N 
HETATM    5  H   UNL     1     -43.415 -48.294  13.711  1.00  0.00     0.172 HD
HETATM    6  H   UNL     1     -42.066 -50.177  11.158  1.00  0.00     0.164 HD
ENDROOT
BRANCH   1   7
HETATM    7  C   UNL     1     -43.047 -47.994  11.706  1.00  0.00     0.143 A 
HETATM    8  C   UNL     1     -41.955 -47.163  11.414  1.00  0.00     0.112 A 
HETATM    9  C   UNL     1     -41.991 -46.445  10.219  1.00  0.00     0.042 A 
HETATM   10  C   UNL     1     -43.086 -46.568   9.370  1.00  0.00     0.027 A 
HETATM   11  C   UNL     1     -44.125 -47.415   9.731  1.00  0.00     0.007 A 
HETATM   12  C   UNL     1     -45.328 -47.584   8.856  1.00  0.00     0.068 C 
HETATM   13  N   UNL     1     -44.123 -48.112  10.891  1.00  0.00    -0.344 N 
ATOM     14  HN  UNL     1     -44.909 -48.710  11.145  1.00  0.00     0.167 HD
BRANCH   8  15
HETATM   15  O   UNL     1     -40.928 -47.106  12.323  1.00  0.00    -0.352 OA
HETATM   16  C   UNL     1     -39.691 -47.671  11.890  1.00  0.00     0.210 C 
ENDBRANCH   8  15
ENDBRANCH   1   7
BRANCH   4  17
HETATM   17  C   UNL     1     -41.872 -52.123  12.041  1.00  0.00     0.086 C 
HETATM   18  C   UNL     1     -42.907 -53.022  12.717  1.00  0.00     0.025 C 
HETATM   19  C   UNL     1     -42.109 -54.179  13.327  1.00  0.00     0.002 C 
HETATM   20  C   UNL     1     -40.639 -53.869  13.060  1.00  0.00     0.002 C 
HETATM   21  C   UNL     1     -40.606 -52.362  12.858  1.00  0.00     0.025 C 
ENDBRANCH   4  17
TORSDOF 3
ENDMDL
MODEL 9
REMARK VINA RESULT:      -4.8      2.638      6.046
REMARK  3 active torsions:
REMARK  status: ('A' for Active; 'I' for Inactive)
REMARK    1  A    between atoms: O_2  and  C_3 
REMARK    2  A    between atoms: C_10  and  N_11 
REMARK       I    between atoms: N_11  and  C_12 
REMARK       I    between atoms: C_12  and  N_14 
REMARK    3  A    between atoms: N_14  and  C_15 
ROOT
HETATM    1  N   UNL     1     -41.639 -51.074  11.677  1.00  0.00    -0.292 N 
HETATM    2  C   UNL     1     -40.865 -49.954  11.725  1.00  0.00     0.322 C 
HETATM    3  O   UNL     1     -40.913 -49.140  10.804  1.00  0.00    -0.247 OA
HETATM    4  N   UNL     1     -40.142 -49.754  12.862  1.00  0.00    -0.338 N 
HETATM    5  H   UNL     1     -42.293 -51.098  10.907  1.00  0.00     0.172 HD
HETATM    6  H   UNL     1     -39.996 -50.591  13.426  1.00  0.00     0.164 HD
ENDROOT
BRANCH   1   7
HETATM    7  C   UNL     1     -41.695 -52.147  12.575  1.00  0.00     0.143 A 
HETATM    8  C   UNL     1     -42.921 -52.428  13.196  1.00  0.00     0.112 A 
HETATM    9  C   UNL     1     -42.969 -53.512  14.073  1.00  0.00     0.042 A 
HETATM   10  C   UNL     1     -41.822 -54.264  14.305  1.00  0.00     0.027 A 
HETATM   11  C   UNL     1     -40.647 -53.921  13.648  1.00  0.00     0.007 A 
HETATM   12  C   UNL     1     -39.384 -54.696  13.863  1.00  0.00     0.068 C 
HETATM   13  N   UNL     1     -40.570 -52.868  12.804  1.00  0.00    -0.344 N 
ATOM     14  HN  UNL     1     -39.690 -52.622  12.351  1.00  0.00     0.167 HD
BRANCH   8  15
HETATM   15  O   UNL     1     -43.992 -51.619  12.905  1.00  0.00    -0.352 OA
HETATM   16  C   UNL     1     -44.776 -51.210  14.025  1.00  0.00     0.210 C 
ENDBRANCH   8  15
ENDBRANCH   1   7
BRANCH   4  17
HETATM   17  C   UNL     1     -39.356 -48.570  13.100  1.00  0.00     0.086 C 
HETATM   18  C   UNL     1     -37.891 -48.859  13.426  1.00  0.00     0.025 C 
HETATM   19  C   UNL     1     -37.433 -47.703  14.320  1.00  0.00     0.002 C 
HETATM   20  C   UNL     1     -38.666 -46.833  14.554  1.00  0.00     0.002 C 
HETATM   21  C   UNL     1     -39.836 -47.771  14.308  1.00  0.00     0.025 C 
ENDBRANCH   4  17
TORSDOF 3
ENDMDL
