MODEL 1
REMARK VINA RESULT:      -5.8      0.000      0.000
REMARK  5 active torsions:
REMARK  status: ('A' for Active; 'I' for Inactive)
REMARK    1  A    between atoms: C_2  and  O_3 
REMARK    2  A    between atoms: O_3  and  C_4 
REMARK    3  A    between atoms: C_6  and  N_7 
REMARK       I    between atoms: N_7  and  C_8 
REMARK    4  A    between atoms: C_8  and  C_10 
REMARK    5  A    between atoms: C_10  and  C_11 
ROOT
HETATM    1  N   UNL     1     -43.517 -49.675  13.669  1.00  0.00    -0.355 N 
HETATM    2  C   UNL     1     -42.687 -48.559  13.761  1.00  0.00     0.222 C 
HETATM    3  O   UNL     1     -41.676 -48.528  14.463  1.00  0.00    -0.273 OA
HETATM    4  H   UNL     1     -44.395 -49.566  13.177  1.00  0.00     0.162 HD
ENDROOT
BRANCH   1   5
HETATM    5  C   UNL     1     -43.305 -50.836  14.544  1.00  0.00     0.097 C 
HETATM    6  C   UNL     1     -42.218 -51.853  14.137  1.00  0.00     0.059 C 
HETATM    7  C   UNL     1     -43.129 -52.932  14.808  1.00  0.00     0.133 C 
HETATM    8  C   UNL     1     -44.334 -52.010  14.378  1.00  0.00     0.006 C 
HETATM    9  C   UNL     1     -45.559 -51.829  15.270  1.00  0.00     0.014 C 
HETATM   10  C   UNL     1     -44.913 -52.362  13.001  1.00  0.00     0.014 C 
HETATM   11  C   UNL     1     -46.672 -51.355  14.324  1.00  0.00     0.001 C 
HETATM   12  C   UNL     1     -46.150 -51.491  12.895  1.00  0.00     0.001 C 
BRANCH   7  13
HETATM   13  O   UNL     1     -43.126 -54.259  14.237  1.00  0.00    -0.385 OA
BRANCH  13  14
HETATM   14  C   UNL     1     -43.112 -55.351  15.151  1.00  0.00     0.163 C 
HETATM   15  C   UNL     1     -42.709 -54.825  16.514  1.00  0.00     0.033 C 
ENDBRANCH  13  14
ENDBRANCH   7  13
ENDBRANCH   1   5
BRANCH   2  16
HETATM   16  C   UNL     1     -43.116 -47.378  12.905  1.00  0.00     0.144 C 
BRANCH  16  17
HETATM   17  C   UNL     1     -42.885 -47.613  11.454  1.00  0.00    -0.015 A 
HETATM   18  C   UNL     1     -41.742 -48.183  10.835  1.00  0.00     0.116 A 
HETATM   19  N   UNL     1     -41.872 -48.289   9.512  1.00  0.00    -0.310 N 
HETATM   20  N   UNL     1     -43.088 -47.776   9.268  1.00  0.00    -0.308 N 
ATOM     21  HN  UNL     1     -41.203 -48.671   8.843  1.00  0.00     0.186 HD
HETATM   22  C   UNL     1     -43.591 -47.713   7.917  1.00  0.00     0.177 C 
HETATM   23  C   UNL     1     -43.737 -47.363  10.396  1.00  0.00     0.118 A 
ENDBRANCH  16  17
ENDBRANCH   2  16
TORSDOF 5
ENDMDL
MODEL 2
REMARK VINA RESULT:      -5.7      3.816      6.423
REMARK  5 active torsions:
REMARK  status: ('A' for Active; 'I' for Inactive)
REMARK    1  A    between atoms: C_2  and  O_3 
REMARK    2  A    between atoms: O_3  and  C_4 
REMARK    3  A    between atoms: C_6  and  N_7 
REMARK       I    between atoms: N_7  and  C_8 
REMARK    4  A    between atoms: C_8  and  C_10 
REMARK    5  A    between atoms: C_10  and  C_11 
ROOT
HETATM    1  N   UNL     1     -43.237 -54.266  13.740  1.00  0.00    -0.355 N 
HETATM    2  C   UNL     1     -44.514 -54.218  13.187  1.00  0.00     0.222 C 
HETATM    3  O   UNL     1     -44.750 -53.729  12.081  1.00  0.00    -0.273 OA
HETATM    4  H   UNL     1     -43.156 -54.561  14.706  1.00  0.00     0.162 HD
ENDROOT
BRANCH   1   5
HETATM    5  C   UNL     1     -42.113 -53.583  13.086  1.00  0.00     0.097 C 
HETATM    6  C   UNL     1     -40.685 -53.972  13.522  1.00  0.00     0.059 C 
HETATM    7  C   UNL     1     -40.301 -52.489  13.209  1.00  0.00     0.133 C 
HETATM    8  C   UNL     1     -41.784 -52.145  13.622  1.00  0.00     0.006 C 
HETATM    9  C   UNL     1     -42.585 -51.066  12.896  1.00  0.00     0.014 C 
HETATM   10  C   UNL     1     -41.943 -51.802  15.108  1.00  0.00     0.014 C 
HETATM   11  C   UNL     1     -43.691 -50.663  13.882  1.00  0.00     0.001 C 
HETATM   12  C   UNL     1     -43.379 -51.330  15.220  1.00  0.00     0.001 C 
BRANCH   7  13
HETATM   13  O   UNL     1     -39.273 -51.879  14.019  1.00  0.00    -0.385 OA
BRANCH  13  14
HETATM   14  C   UNL     1     -38.205 -51.241  13.327  1.00  0.00     0.163 C 
HETATM   15  C   UNL     1     -38.790 -50.450  12.174  1.00  0.00     0.033 C 
ENDBRANCH  13  14
ENDBRANCH   7  13
ENDBRANCH   1   5
BRANCH   2  16
HETATM   16  C   UNL     1     -45.603 -54.838  14.047  1.00  0.00     0.144 C 
BRANCH  16  17
HETATM   17  C   UNL     1     -46.054 -53.931  15.137  1.00  0.00    -0.015 A 
HETATM   18  C   UNL     1     -45.703 -53.980  16.512  1.00  0.00     0.116 A 
HETATM   19  N   UNL     1     -46.252 -52.992  17.218  1.00  0.00    -0.310 N 
HETATM   20  N   UNL     1     -46.972 -52.310  16.312  1.00  0.00    -0.308 N 
ATOM     21  HN  UNL     1     -46.150 -52.798  18.215  1.00  0.00     0.186 HD
HETATM   22  C   UNL     1     -47.729 -51.149  16.710  1.00  0.00     0.177 C 
HETATM   23  C   UNL     1     -46.882 -52.828  15.052  1.00  0.00     0.118 A 
ENDBRANCH  16  17
ENDBRANCH   2  16
TORSDOF 5
ENDMDL
MODEL 3
REMARK VINA RESULT:      -5.6      3.113      7.382
REMARK  5 active torsions:
REMARK  status: ('A' for Active; 'I' for Inactive)
REMARK    1  A    between atoms: C_2  and  O_3 
REMARK    2  A    between atoms: O_3  and  C_4 
REMARK    3  A    between atoms: C_6  and  N_7 
REMARK       I    between atoms: N_7  and  C_8 
REMARK    4  A    between atoms: C_8  and  C_10 
REMARK    5  A    between atoms: C_10  and  C_11 
ROOT
HETATM    1  N   UNL     1     -41.605 -50.377  11.525  1.00  0.00    -0.355 N 
HETATM    2  C   UNL     1     -42.035 -51.213  12.553  1.00  0.00     0.222 C 
HETATM    3  O   UNL     1     -42.633 -50.803  13.549  1.00  0.00    -0.273 OA
HETATM    4  H   UNL     1     -41.006 -50.778  10.815  1.00  0.00     0.162 HD
ENDROOT
BRANCH   1   5
HETATM    5  C   UNL     1     -41.710 -48.917  11.657  1.00  0.00     0.097 C 
HETATM    6  C   UNL     1     -41.654 -48.074  10.366  1.00  0.00     0.059 C 
HETATM    7  C   UNL     1     -40.970 -46.974  11.242  1.00  0.00     0.133 C 
HETATM    8  C   UNL     1     -40.396 -48.175  12.088  1.00  0.00     0.006 C 
HETATM    9  C   UNL     1     -40.258 -48.089  13.606  1.00  0.00     0.014 C 
HETATM   10  C   UNL     1     -39.023 -48.661  11.607  1.00  0.00     0.014 C 
HETATM   11  C   UNL     1     -39.211 -49.152  13.970  1.00  0.00     0.001 C 
HETATM   12  C   UNL     1     -38.602 -49.662  12.666  1.00  0.00     0.001 C 
BRANCH   7  13
HETATM   13  O   UNL     1     -39.983 -46.132  10.609  1.00  0.00    -0.385 OA
BRANCH  13  14
HETATM   14  C   UNL     1     -40.055 -44.738  10.888  1.00  0.00     0.163 C 
HETATM   15  C   UNL     1     -39.512 -44.503  12.284  1.00  0.00     0.033 C 
ENDBRANCH  13  14
ENDBRANCH   7  13
ENDBRANCH   1   5
BRANCH   2  16
HETATM   16  C   UNL     1     -41.726 -52.686  12.343  1.00  0.00     0.144 C 
BRANCH  16  17
HETATM   17  C   UNL     1     -42.664 -53.576  13.078  1.00  0.00    -0.015 A 
HETATM   18  C   UNL     1     -42.410 -54.323  14.259  1.00  0.00     0.116 A 
HETATM   19  N   UNL     1     -43.483 -54.991  14.686  1.00  0.00    -0.310 N 
HETATM   20  N   UNL     1     -44.427 -54.694  13.779  1.00  0.00    -0.308 N 
ATOM     21  HN  UNL     1     -43.566 -55.588  15.509  1.00  0.00     0.186 HD
HETATM   22  C   UNL     1     -45.754 -55.248  13.903  1.00  0.00     0.177 C 
HETATM   23  C   UNL     1     -43.990 -53.847  12.801  1.00  0.00     0.118 A 
ENDBRANCH  16  17
ENDBRANCH   2  16
TORSDOF 5
ENDMDL
MODEL 4
REMARK VINA RESULT:      -5.5      4.208      7.023
REMARK  5 active torsions:
REMARK  status: ('A' for Active; 'I' for Inactive)
REMARK    1  A    between atoms: C_2  and  O_3 
REMARK    2  A    between atoms: O_3  and  C_4 
REMARK    3  A    between atoms: C_6  and  N_7 
REMARK       I    between atoms: N_7  and  C_8 
REMARK    4  A    between atoms: C_8  and  C_10 
REMARK    5  A    between atoms: C_10  and  C_11 
ROOT
HETATM    1  N   UNL     1     -40.359 -51.115  13.700  1.00  0.00    -0.355 N 
HETATM    2  C   UNL     1     -40.618 -52.211  12.880  1.00  0.00     0.222 C 
HETATM    3  O   UNL     1     -39.916 -53.223  12.868  1.00  0.00    -0.273 OA
HETATM    4  H   UNL     1     -40.906 -50.276  13.548  1.00  0.00     0.162 HD
ENDROOT
BRANCH   1   5
HETATM    5  C   UNL     1     -39.122 -51.050  14.491  1.00  0.00     0.097 C 
HETATM    6  C   UNL     1     -39.100 -50.106  15.711  1.00  0.00     0.059 C 
HETATM    7  C   UNL     1     -37.579 -49.918  15.402  1.00  0.00     0.133 C 
HETATM    8  C   UNL     1     -37.979 -50.156  13.895  1.00  0.00     0.006 C 
HETATM    9  C   UNL     1     -37.077 -50.938  12.943  1.00  0.00     0.014 C 
HETATM   10  C   UNL     1     -38.303 -48.862  13.137  1.00  0.00     0.014 C 
HETATM   11  C   UNL     1     -37.505 -50.494  11.537  1.00  0.00     0.001 C 
HETATM   12  C   UNL     1     -38.464 -49.316  11.699  1.00  0.00     0.001 C 
BRANCH   7  13
HETATM   13  O   UNL     1     -36.990 -48.632  15.694  1.00  0.00    -0.385 OA
BRANCH  13  14
HETATM   14  C   UNL     1     -35.774 -48.636  16.435  1.00  0.00     0.163 C 
HETATM   15  C   UNL     1     -35.431 -50.072  16.778  1.00  0.00     0.033 C 
ENDBRANCH  13  14
ENDBRANCH   7  13
ENDBRANCH   1   5
BRANCH   2  16
HETATM   16  C   UNL     1     -41.856 -52.073  12.009  1.00  0.00     0.144 C 
BRANCH  16  17
HETATM   17  C   UNL     1     -43.081 -52.594  12.672  1.00  0.00    -0.015 A 
HETATM   18  C   UNL     1     -44.131 -51.850  13.272  1.00  0.00     0.116 A 
HETATM   19  N   UNL     1     -45.107 -52.625  13.745  1.00  0.00    -0.310 N 
HETATM   20  N   UNL     1     -44.688 -53.871  13.469  1.00  0.00    -0.308 N 
ATOM     21  HN  UNL     1     -45.970 -52.339  14.208  1.00  0.00     0.186 HD
HETATM   22  C   UNL     1     -45.495 -55.008  13.842  1.00  0.00     0.177 C 
HETATM   23  C   UNL     1     -43.486 -53.906  12.823  1.00  0.00     0.118 A 
ENDBRANCH  16  17
ENDBRANCH   2  16
TORSDOF 5
ENDMDL
MODEL 5
REMARK VINA RESULT:      -5.5      3.211      4.941
REMARK  5 active torsions:
REMARK  status: ('A' for Active; 'I' for Inactive)
REMARK    1  A    between atoms: C_2  and  O_3 
REMARK    2  A    between atoms: O_3  and  C_4 
REMARK    3  A    between atoms: C_6  and  N_7 
REMARK       I    between atoms: N_7  and  C_8 
REMARK    4  A    between atoms: C_8  and  C_10 
REMARK    5  A    between atoms: C_10  and  C_11 
ROOT
HETATM    1  N   UNL     1     -43.716 -53.731  14.781  1.00  0.00    -0.355 N 
HETATM    2  C   UNL     1     -42.330 -53.757  14.916  1.00  0.00     0.222 C 
HETATM    3  O   UNL     1     -41.752 -53.505  15.974  1.00  0.00    -0.273 OA
HETATM    4  H   UNL     1     -44.098 -53.819  13.847  1.00  0.00     0.162 HD
ENDROOT
BRANCH   1   5
HETATM    5  C   UNL     1     -44.564 -53.240  15.876  1.00  0.00     0.097 C 
HETATM    6  C   UNL     1     -46.046 -53.669  15.884  1.00  0.00     0.059 C 
HETATM    7  C   UNL     1     -46.333 -52.282  16.546  1.00  0.00     0.133 C 
HETATM    8  C   UNL     1     -45.087 -51.768  15.725  1.00  0.00     0.006 C 
HETATM    9  C   UNL     1     -44.110 -50.751  16.309  1.00  0.00     0.014 C 
HETATM   10  C   UNL     1     -45.454 -51.199  14.349  1.00  0.00     0.014 C 
HETATM   11  C   UNL     1     -43.417 -50.123  15.092  1.00  0.00     0.001 C 
HETATM   12  C   UNL     1     -44.152 -50.607  13.844  1.00  0.00     0.001 C 
BRANCH   7  13
HETATM   13  O   UNL     1     -47.589 -51.640  16.237  1.00  0.00    -0.385 OA
BRANCH  13  14
HETATM   14  C   UNL     1     -48.315 -51.092  17.332  1.00  0.00     0.163 C 
HETATM   15  C   UNL     1     -47.450 -50.041  17.999  1.00  0.00     0.033 C 
ENDBRANCH  13  14
ENDBRANCH   7  13
ENDBRANCH   1   5
BRANCH   2  16
HETATM   16  C   UNL     1     -41.577 -54.144  13.654  1.00  0.00     0.144 C 
BRANCH  16  17
HETATM   17  C   UNL     1     -41.035 -52.964  12.928  1.00  0.00    -0.015 A 
HETATM   18  C   UNL     1     -41.549 -52.352  11.755  1.00  0.00     0.116 A 
HETATM   19  N   UNL     1     -40.846 -51.282  11.382  1.00  0.00    -0.310 N 
HETATM   20  N   UNL     1     -39.868 -51.206  12.300  1.00  0.00    -0.308 N 
ATOM     21  HN  UNL     1     -41.011 -50.666  10.587  1.00  0.00     0.186 HD
HETATM   22  C   UNL     1     -38.882 -50.155  12.225  1.00  0.00     0.177 C 
HETATM   23  C   UNL     1     -39.940 -52.185  13.249  1.00  0.00     0.118 A 
ENDBRANCH  16  17
ENDBRANCH   2  16
TORSDOF 5
ENDMDL
MODEL 6
REMARK VINA RESULT:      -5.4      1.742      2.054
REMARK  5 active torsions:
REMARK  status: ('A' for Active; 'I' for Inactive)
REMARK    1  A    between atoms: C_2  and  O_3 
REMARK    2  A    between atoms: O_3  and  C_4 
REMARK    3  A    between atoms: C_6  and  N_7 
REMARK       I    between atoms: N_7  and  C_8 
REMARK    4  A    between atoms: C_8  and  C_10 
REMARK    5  A    between atoms: C_10  and  C_11 
ROOT
HETATM    1  N   UNL     1     -43.640 -50.006  12.636  1.00  0.00    -0.355 N 
HETATM    2  C   UNL     1     -42.813 -48.898  12.466  1.00  0.00     0.222 C 
HETATM    3  O   UNL     1     -41.729 -48.774  13.036  1.00  0.00    -0.273 OA
HETATM    4  H   UNL     1     -44.570 -49.962  12.236  1.00  0.00     0.162 HD
ENDROOT
BRANCH   1   5
HETATM    5  C   UNL     1     -43.323 -51.027  13.644  1.00  0.00     0.097 C 
HETATM    6  C   UNL     1     -42.375 -52.172  13.231  1.00  0.00     0.059 C 
HETATM    7  C   UNL     1     -43.193 -53.062  14.222  1.00  0.00     0.133 C 
HETATM    8  C   UNL     1     -44.415 -52.134  13.859  1.00  0.00     0.006 C 
HETATM    9  C   UNL     1     -45.447 -51.725  14.907  1.00  0.00     0.014 C 
HETATM   10  C   UNL     1     -45.251 -52.655  12.684  1.00  0.00     0.014 C 
HETATM   11  C   UNL     1     -46.692 -51.326  14.103  1.00  0.00     0.001 C 
HETATM   12  C   UNL     1     -46.448 -51.724  12.649  1.00  0.00     0.001 C 
BRANCH   7  13
HETATM   13  O   UNL     1     -43.353 -54.459  13.892  1.00  0.00    -0.385 OA
BRANCH  13  14
HETATM   14  C   UNL     1     -43.360 -55.379  14.978  1.00  0.00     0.163 C 
HETATM   15  C   UNL     1     -42.241 -55.002  15.929  1.00  0.00     0.033 C 
ENDBRANCH  13  14
ENDBRANCH   7  13
ENDBRANCH   1   5
BRANCH   2  16
HETATM   16  C   UNL     1     -43.344 -47.853  11.498  1.00  0.00     0.144 C 
BRANCH  16  17
HETATM   17  C   UNL     1     -42.411 -46.707  11.328  1.00  0.00    -0.015 A 
HETATM   18  C   UNL     1     -42.436 -45.456  11.999  1.00  0.00     0.116 A 
HETATM   19  N   UNL     1     -41.427 -44.660  11.642  1.00  0.00    -0.310 N 
HETATM   20  N   UNL     1     -40.757 -45.383  10.730  1.00  0.00    -0.308 N 
ATOM     21  HN  UNL     1     -41.215 -43.723  11.982  1.00  0.00     0.186 HD
HETATM   22  C   UNL     1     -39.579 -44.840  10.097  1.00  0.00     0.177 C 
HETATM   23  C   UNL     1     -41.301 -46.615  10.511  1.00  0.00     0.118 A 
ENDBRANCH  16  17
ENDBRANCH   2  16
TORSDOF 5
ENDMDL
MODEL 7
REMARK VINA RESULT:      -5.3      4.196      7.810
REMARK  5 active torsions:
REMARK  status: ('A' for Active; 'I' for Inactive)
REMARK    1  A    between atoms: C_2  and  O_3 
REMARK    2  A    between atoms: O_3  and  C_4 
REMARK    3  A    between atoms: C_6  and  N_7 
REMARK       I    between atoms: N_7  and  C_8 
REMARK    4  A    between atoms: C_8  and  C_10 
REMARK    5  A    between atoms: C_10  and  C_11 
ROOT
HETATM    1  N   UNL     1     -41.686 -54.519  14.521  1.00  0.00    -0.355 N 
HETATM    2  C   UNL     1     -40.670 -54.134  15.393  1.00  0.00     0.222 C 
HETATM    3  O   UNL     1     -40.847 -53.354  16.329  1.00  0.00    -0.273 OA
HETATM    4  H   UNL     1     -41.424 -55.054  13.702  1.00  0.00     0.162 HD
ENDROOT
BRANCH   1   5
HETATM    5  C   UNL     1     -43.008 -53.878  14.585  1.00  0.00     0.097 C 
HETATM    6  C   UNL     1     -44.192 -54.609  13.919  1.00  0.00     0.059 C 
HETATM    7  C   UNL     1     -44.764 -53.185  13.622  1.00  0.00     0.133 C 
HETATM    8  C   UNL     1     -43.257 -52.726  13.548  1.00  0.00     0.006 C 
HETATM    9  C   UNL     1     -42.808 -51.368  14.083  1.00  0.00     0.014 C 
HETATM   10  C   UNL     1     -42.664 -52.795  12.135  1.00  0.00     0.014 C 
HETATM   11  C   UNL     1     -41.482 -51.079  13.366  1.00  0.00     0.001 C 
HETATM   12  C   UNL     1     -41.305 -52.138  12.280  1.00  0.00     0.001 C 
BRANCH   7  13
HETATM   13  O   UNL     1     -45.527 -53.010  12.408  1.00  0.00    -0.385 OA
BRANCH  13  14
HETATM   14  C   UNL     1     -46.539 -52.009  12.425  1.00  0.00     0.163 C 
HETATM   15  C   UNL     1     -46.645 -51.463  13.835  1.00  0.00     0.033 C 
ENDBRANCH  13  14
ENDBRANCH   7  13
ENDBRANCH   1   5
BRANCH   2  16
HETATM   16  C   UNL     1     -39.319 -54.771  15.112  1.00  0.00     0.144 C 
BRANCH  16  17
HETATM   17  C   UNL     1     -38.882 -55.684  16.202  1.00  0.00    -0.015 A 
HETATM   18  C   UNL     1     -37.620 -55.723  16.853  1.00  0.00     0.116 A 
HETATM   19  N   UNL     1     -37.568 -56.639  17.819  1.00  0.00    -0.310 N 
HETATM   20  N   UNL     1     -38.784 -57.208  17.789  1.00  0.00    -0.308 N 
ATOM     21  HN  UNL     1     -36.786 -56.858  18.437  1.00  0.00     0.186 HD
HETATM   22  C   UNL     1     -39.112 -58.272  18.707  1.00  0.00     0.177 C 
HETATM   23  C   UNL     1     -39.609 -56.668  16.844  1.00  0.00     0.118 A 
ENDBRANCH  16  17
ENDBRANCH   2  16
TORSDOF 5
ENDMDL
MODEL 8
REMARK VINA RESULT:      -5.2      2.215      3.201
REMARK  5 active torsions:
REMARK  status: ('A' for Active; 'I' for Inactive)
REMARK    1  A    between atoms: C_2  and  O_3 
REMARK    2  A    between atoms: O_3  and  C_4 
REMARK    3  A    between atoms: C_6  and  N_7 
REMARK       I    between atoms: N_7  and  C_8 
REMARK    4  A    between atoms: C_8  and  C_10 
REMARK    5  A    between atoms: C_10  and  C_11 
ROOT
HETATM    1  N   UNL     1     -42.033 -51.629  11.871  1.00  0.00    -0.355 N 
HETATM    2  C   UNL     1     -40.733 -51.174  12.080  1.00  0.00     0.222 C 
HETATM    3  O   UNL     1     -39.976 -51.662  12.920  1.00  0.00    -0.273 OA
HETATM    4  H   UNL     1     -42.627 -51.085  11.258  1.00  0.00     0.162 HD
ENDROOT
BRANCH   1   5
HETATM    5  C   UNL     1     -42.627 -52.630  12.769  1.00  0.00     0.097 C 
HETATM    6  C   UNL     1     -43.879 -53.384  12.274  1.00  0.00     0.059 C 
HETATM    7  C   UNL     1     -44.314 -53.428  13.775  1.00  0.00     0.133 C 
HETATM    8  C   UNL     1     -43.537 -52.063  13.915  1.00  0.00     0.006 C 
HETATM    9  C   UNL     1     -42.734 -51.726  15.169  1.00  0.00     0.014 C 
HETATM   10  C   UNL     1     -44.419 -50.830  13.684  1.00  0.00     0.014 C 
HETATM   11  C   UNL     1     -42.610 -50.195  15.161  1.00  0.00     0.001 C 
HETATM   12  C   UNL     1     -43.520 -49.666  14.055  1.00  0.00     0.001 C 
BRANCH   7  13
HETATM   13  O   UNL     1     -45.728 -53.372  14.064  1.00  0.00    -0.385 OA
BRANCH  13  14
HETATM   14  C   UNL     1     -46.222 -54.291  15.032  1.00  0.00     0.163 C 
HETATM   15  C   UNL     1     -45.745 -53.844  16.400  1.00  0.00     0.033 C 
ENDBRANCH  13  14
ENDBRANCH   7  13
ENDBRANCH   1   5
BRANCH   2  16
HETATM   16  C   UNL     1     -40.307 -50.034  11.170  1.00  0.00     0.144 C 
BRANCH  16  17
HETATM   17  C   UNL     1     -41.026 -48.766  11.469  1.00  0.00    -0.015 A 
HETATM   18  C   UNL     1     -42.125 -48.203  10.769  1.00  0.00     0.116 A 
HETATM   19  N   UNL     1     -42.563 -47.072  11.323  1.00  0.00    -0.310 N 
HETATM   20  N   UNL     1     -41.743 -46.890  12.370  1.00  0.00    -0.308 N 
ATOM     21  HN  UNL     1     -43.339 -46.483  11.021  1.00  0.00     0.186 HD
HETATM   22  C   UNL     1     -41.904 -45.741  13.228  1.00  0.00     0.177 C 
HETATM   23  C   UNL     1     -40.810 -47.878  12.505  1.00  0.00     0.118 A 
ENDBRANCH  16  17
ENDBRANCH   2  16
TORSDOF 5
ENDMDL
MODEL 9
REMARK VINA RESULT:      -5.2      3.214      6.287
REMARK  5 active torsions:
REMARK  status: ('A' for Active; 'I' for Inactive)
REMARK    1  A    between atoms: C_2  and  O_3 
REMARK    2  A    between atoms: O_3  and  C_4 
REMARK    3  A    between atoms: C_6  and  N_7 
REMARK       I    between atoms: N_7  and  C_8 
REMARK    4  A    between atoms: C_8  and  C_10 
REMARK    5  A    between atoms: C_10  and  C_11 
ROOT
HETATM    1  N   UNL     1     -40.841 -53.095  14.851  1.00  0.00    -0.355 N 
HETATM    2  C   UNL     1     -41.308 -54.023  13.923  1.00  0.00     0.222 C 
HETATM    3  O   UNL     1     -40.654 -54.382  12.943  1.00  0.00    -0.273 OA
HETATM    4  H   UNL     1     -41.495 -52.760  15.548  1.00  0.00     0.162 HD
ENDROOT
BRANCH   1   5
HETATM    5  C   UNL     1     -39.585 -52.369  14.614  1.00  0.00     0.097 C 
HETATM    6  C   UNL     1     -38.915 -51.682  15.822  1.00  0.00     0.059 C 
HETATM    7  C   UNL     1     -38.414 -50.613  14.799  1.00  0.00     0.133 C 
HETATM    8  C   UNL     1     -39.735 -50.933  13.999  1.00  0.00     0.006 C 
HETATM    9  C   UNL     1     -39.757 -50.964  12.472  1.00  0.00     0.014 C 
HETATM   10  C   UNL     1     -40.915 -50.031  14.380  1.00  0.00     0.014 C 
HETATM   11  C   UNL     1     -41.231 -50.760  12.094  1.00  0.00     0.001 C 
HETATM   12  C   UNL     1     -41.986 -50.390  13.368  1.00  0.00     0.001 C 
BRANCH   7  13
HETATM   13  O   UNL     1     -38.283 -49.251  15.263  1.00  0.00    -0.385 OA
BRANCH  13  14
HETATM   14  C   UNL     1     -37.419 -48.399  14.518  1.00  0.00     0.163 C 
HETATM   15  C   UNL     1     -38.108 -47.060  14.342  1.00  0.00     0.033 C 
ENDBRANCH  13  14
ENDBRANCH   7  13
ENDBRANCH   1   5
BRANCH   2  16
HETATM   16  C   UNL     1     -42.689 -54.583  14.225  1.00  0.00     0.144 C 
BRANCH  16  17
HETATM   17  C   UNL     1     -43.781 -53.690  13.753  1.00  0.00    -0.015 A 
HETATM   18  C   UNL     1     -44.162 -53.413  12.413  1.00  0.00     0.116 A 
HETATM   19  N   UNL     1     -45.213 -52.597  12.335  1.00  0.00    -0.310 N 
HETATM   20  N   UNL     1     -45.506 -52.329  13.618  1.00  0.00    -0.308 N 
ATOM     21  HN  UNL     1     -45.684 -52.255  11.498  1.00  0.00     0.186 HD
HETATM   22  C   UNL     1     -46.607 -51.454  13.944  1.00  0.00     0.177 C 
HETATM   23  C   UNL     1     -44.684 -52.963  14.504  1.00  0.00     0.118 A 
ENDBRANCH  16  17
ENDBRANCH   2  16
TORSDOF 5
ENDMDL
