MODEL 1
REMARK VINA RESULT:      -6.1      0.000      0.000
REMARK  7 active torsions:
REMARK  status: ('A' for Active; 'I' for Inactive)
REMARK    1  A    between atoms: C_2  and  N_3 
REMARK    2  A    between atoms: C_2  and  C_14 
REMARK    3  A    between atoms: N_3  and  C_4 
REMARK    4  A    between atoms: C_4  and  C_5 
REMARK    5  A    between atoms: C_5  and  C_6 
REMARK       I    between atoms: C_6  and  N_8 
REMARK    6  A    between atoms: N_8  and  C_9 
REMARK    7  A    between atoms: C_14  and  N_16 
ROOT
HETATM    1  N   UNL     1     -40.464 -50.151  10.830  1.00  0.00     0.090 N 
HETATM    2  H   UNL     1     -39.474 -50.254  10.604  1.00  0.00     0.316 HD
ENDROOT
BRANCH   1   3
HETATM    3  C   UNL     1     -40.794 -48.703  10.916  1.00  0.00     0.240 C 
HETATM    4  C   UNL     1     -39.909 -48.023  11.975  1.00  0.00     0.045 C 
BRANCH   3   5
HETATM    5  C   UNL     1     -42.311 -48.387  11.120  1.00  0.00     0.136 C 
HETATM    6  C   UNL     1     -42.612 -47.641  12.426  1.00  0.00     0.036 C 
BRANCH   5   7
HETATM    7  N   UNL     1     -42.868 -47.649   9.985  1.00  0.00    -0.297 N 
HETATM    8  C   UNL     1     -43.404 -46.388  10.021  1.00  0.00     0.112 A 
HETATM    9  C   UNL     1     -43.805 -46.106   8.738  1.00  0.00     0.037 A 
HETATM   10  C   UNL     1     -43.441 -47.242   7.994  1.00  0.00     0.108 A 
HETATM   11  N   UNL     1     -42.836 -48.171   8.740  1.00  0.00    -0.310 N 
ATOM     12  HN  UNL     1     -42.442 -49.063   8.440  1.00  0.00     0.186 HD
ENDBRANCH   5   7
ENDBRANCH   3   5
ENDBRANCH   1   3
BRANCH   1  13
HETATM   13  C   UNL     1     -40.775 -50.906  12.045  1.00  0.00     0.279 C 
BRANCH  13  14
HETATM   14  C   UNL     1     -41.107 -52.367  11.747  1.00  0.00     0.132 C 
BRANCH  14  15
HETATM   15  C   UNL     1     -42.253 -52.772  12.647  1.00  0.00     0.219 C 
HETATM   16  O   UNL     1     -42.238 -53.805  13.315  1.00  0.00    -0.274 OA
HETATM   17  N   UNL     1     -43.311 -51.893  12.656  1.00  0.00    -0.356 N 
HETATM   18  H   UNL     1     -43.368 -51.195  11.926  1.00  0.00     0.162 HD
BRANCH  17  19
HETATM   19  C   UNL     1     -44.480 -52.161  13.465  1.00  0.00     0.084 C 
HETATM   20  C   UNL     1     -45.768 -52.229  12.641  1.00  0.00     0.025 C 
HETATM   21  C   UNL     1     -46.853 -51.580  13.503  1.00  0.00     0.002 C 
HETATM   22  C   UNL     1     -46.201 -51.281  14.846  1.00  0.00     0.002 C 
HETATM   23  C   UNL     1     -44.734 -51.081  14.506  1.00  0.00     0.025 C 
ENDBRANCH  17  19
ENDBRANCH  14  15
ENDBRANCH  13  14
ENDBRANCH   1  13
TORSDOF 7
ENDMDL
MODEL 2
REMARK VINA RESULT:      -5.8      2.159      5.984
REMARK  7 active torsions:
REMARK  status: ('A' for Active; 'I' for Inactive)
REMARK    1  A    between atoms: C_2  and  N_3 
REMARK    2  A    between atoms: C_2  and  C_14 
REMARK    3  A    between atoms: N_3  and  C_4 
REMARK    4  A    between atoms: C_4  and  C_5 
REMARK    5  A    between atoms: C_5  and  C_6 
REMARK       I    between atoms: C_6  and  N_8 
REMARK    6  A    between atoms: N_8  and  C_9 
REMARK    7  A    between atoms: C_14  and  N_16 
ROOT
HETATM    1  N   UNL     1     -42.341 -52.359  11.816  1.00  0.00     0.090 N 
HETATM    2  H   UNL     1     -43.202 -52.285  11.273  1.00  0.00     0.316 HD
ENDROOT
BRANCH   1   3
HETATM    3  C   UNL     1     -42.598 -53.199  13.018  1.00  0.00     0.240 C 
HETATM    4  C   UNL     1     -41.452 -54.208  13.210  1.00  0.00     0.045 C 
BRANCH   3   5
HETATM    5  C   UNL     1     -44.002 -53.884  13.052  1.00  0.00     0.136 C 
HETATM    6  C   UNL     1     -44.148 -54.931  14.163  1.00  0.00     0.036 C 
BRANCH   5   7
HETATM    7  N   UNL     1     -45.082 -52.900  13.151  1.00  0.00    -0.297 N 
HETATM    8  C   UNL     1     -45.527 -52.295  14.297  1.00  0.00     0.112 A 
HETATM    9  C   UNL     1     -46.550 -51.461  13.917  1.00  0.00     0.037 A 
HETATM   10  C   UNL     1     -46.627 -51.606  12.521  1.00  0.00     0.108 A 
HETATM   11  N   UNL     1     -45.711 -52.452  12.042  1.00  0.00    -0.310 N 
ATOM     12  HN  UNL     1     -45.530 -52.702  11.070  1.00  0.00     0.186 HD
ENDBRANCH   5   7
ENDBRANCH   3   5
ENDBRANCH   1   3
BRANCH   1  13
HETATM   13  C   UNL     1     -41.830 -51.022  12.121  1.00  0.00     0.279 C 
BRANCH  13  14
HETATM   14  C   UNL     1     -42.598 -50.358  13.263  1.00  0.00     0.132 C 
BRANCH  14  15
HETATM   15  C   UNL     1     -42.957 -48.956  12.823  1.00  0.00     0.219 C 
HETATM   16  O   UNL     1     -43.020 -48.011  13.608  1.00  0.00    -0.274 OA
HETATM   17  N   UNL     1     -43.208 -48.827  11.477  1.00  0.00    -0.356 N 
HETATM   18  H   UNL     1     -43.367 -49.662  10.930  1.00  0.00     0.162 HD
BRANCH  17  19
HETATM   19  C   UNL     1     -43.573 -47.543  10.920  1.00  0.00     0.084 C 
HETATM   20  C   UNL     1     -44.759 -47.630   9.956  1.00  0.00     0.025 C 
HETATM   21  C   UNL     1     -44.459 -46.638   8.830  1.00  0.00     0.002 C 
HETATM   22  C   UNL     1     -43.187 -45.909   9.239  1.00  0.00     0.002 C 
HETATM   23  C   UNL     1     -42.450 -46.913  10.108  1.00  0.00     0.025 C 
ENDBRANCH  17  19
ENDBRANCH  14  15
ENDBRANCH  13  14
ENDBRANCH   1  13
TORSDOF 7
ENDMDL
MODEL 3
REMARK VINA RESULT:      -5.8      1.396      1.730
REMARK  7 active torsions:
REMARK  status: ('A' for Active; 'I' for Inactive)
REMARK    1  A    between atoms: C_2  and  N_3 
REMARK    2  A    between atoms: C_2  and  C_14 
REMARK    3  A    between atoms: N_3  and  C_4 
REMARK    4  A    between atoms: C_4  and  C_5 
REMARK    5  A    between atoms: C_5  and  C_6 
REMARK       I    between atoms: C_6  and  N_8 
REMARK    6  A    between atoms: N_8  and  C_9 
REMARK    7  A    between atoms: C_14  and  N_16 
ROOT
HETATM    1  N   UNL     1     -40.445 -50.289  11.044  1.00  0.00     0.090 N 
HETATM    2  H   UNL     1     -40.095 -50.613  10.142  1.00  0.00     0.316 HD
ENDROOT
BRANCH   1   3
HETATM    3  C   UNL     1     -40.848 -48.861  10.923  1.00  0.00     0.240 C 
HETATM    4  C   UNL     1     -39.907 -47.977  11.760  1.00  0.00     0.045 C 
BRANCH   3   5
HETATM    5  C   UNL     1     -42.354 -48.577  11.227  1.00  0.00     0.136 C 
HETATM    6  C   UNL     1     -42.583 -47.812  12.537  1.00  0.00     0.036 C 
BRANCH   5   7
HETATM    7  N   UNL     1     -43.006 -47.874  10.120  1.00  0.00    -0.297 N 
HETATM    8  C   UNL     1     -43.893 -46.835  10.229  1.00  0.00     0.112 A 
HETATM    9  C   UNL     1     -44.249 -46.501   8.945  1.00  0.00     0.037 A 
HETATM   10  C   UNL     1     -43.501 -47.370   8.131  1.00  0.00     0.108 A 
HETATM   11  N   UNL     1     -42.714 -48.184   8.839  1.00  0.00    -0.310 N 
ATOM     12  HN  UNL     1     -42.050 -48.876   8.493  1.00  0.00     0.186 HD
ENDBRANCH   5   7
ENDBRANCH   3   5
ENDBRANCH   1   3
BRANCH   1  13
HETATM   13  C   UNL     1     -39.445 -50.540  12.082  1.00  0.00     0.279 C 
BRANCH  13  14
HETATM   14  C   UNL     1     -40.064 -51.127  13.349  1.00  0.00     0.132 C 
BRANCH  14  15
HETATM   15  C   UNL     1     -40.907 -52.316  12.943  1.00  0.00     0.219 C 
HETATM   16  O   UNL     1     -40.492 -53.200  12.196  1.00  0.00    -0.274 OA
HETATM   17  N   UNL     1     -42.175 -52.325  13.477  1.00  0.00    -0.356 N 
HETATM   18  H   UNL     1     -42.536 -51.474  13.887  1.00  0.00     0.162 HD
BRANCH  17  19
HETATM   19  C   UNL     1     -43.094 -53.397  13.164  1.00  0.00     0.084 C 
HETATM   20  C   UNL     1     -44.487 -52.893  12.780  1.00  0.00     0.025 C 
HETATM   21  C   UNL     1     -45.477 -53.890  13.384  1.00  0.00     0.002 C 
HETATM   22  C   UNL     1     -44.636 -55.011  13.978  1.00  0.00     0.002 C 
HETATM   23  C   UNL     1     -43.325 -54.335  14.341  1.00  0.00     0.025 C 
ENDBRANCH  17  19
ENDBRANCH  14  15
ENDBRANCH  13  14
ENDBRANCH   1  13
TORSDOF 7
ENDMDL
MODEL 4
REMARK VINA RESULT:      -5.7      2.301      3.723
REMARK  7 active torsions:
REMARK  status: ('A' for Active; 'I' for Inactive)
REMARK    1  A    between atoms: C_2  and  N_3 
REMARK    2  A    between atoms: C_2  and  C_14 
REMARK    3  A    between atoms: N_3  and  C_4 
REMARK    4  A    between atoms: C_4  and  C_5 
REMARK    5  A    between atoms: C_5  and  C_6 
REMARK       I    between atoms: C_6  and  N_8 
REMARK    6  A    between atoms: N_8  and  C_9 
REMARK    7  A    between atoms: C_14  and  N_16 
ROOT
HETATM    1  N   UNL     1     -42.391 -51.780  11.975  1.00  0.00     0.090 N 
HETATM    2  H   UNL     1     -42.676 -51.758  10.995  1.00  0.00     0.316 HD
ENDROOT
BRANCH   1   3
HETATM    3  C   UNL     1     -41.884 -50.436  12.362  1.00  0.00     0.240 C 
HETATM    4  C   UNL     1     -43.054 -49.541  12.808  1.00  0.00     0.045 C 
BRANCH   3   5
HETATM    5  C   UNL     1     -40.983 -49.741  11.291  1.00  0.00     0.136 C 
HETATM    6  C   UNL     1     -41.412 -48.305  10.965  1.00  0.00     0.036 C 
BRANCH   5   7
HETATM    7  N   UNL     1     -39.570 -49.762  11.676  1.00  0.00    -0.297 N 
HETATM    8  C   UNL     1     -39.073 -49.653  12.948  1.00  0.00     0.112 A 
HETATM    9  C   UNL     1     -37.706 -49.715  12.832  1.00  0.00     0.037 A 
HETATM   10  C   UNL     1     -37.474 -49.896  11.457  1.00  0.00     0.108 A 
HETATM   11  N   UNL     1     -38.606 -49.964  10.751  1.00  0.00    -0.310 N 
ATOM     12  HN  UNL     1     -38.716 -50.128   9.751  1.00  0.00     0.186 HD
ENDBRANCH   5   7
ENDBRANCH   3   5
ENDBRANCH   1   3
BRANCH   1  13
HETATM   13  C   UNL     1     -41.430 -52.863  12.186  1.00  0.00     0.279 C 
BRANCH  13  14
HETATM   14  C   UNL     1     -41.946 -53.908  13.174  1.00  0.00     0.132 C 
BRANCH  14  15
HETATM   15  C   UNL     1     -43.453 -53.786  13.229  1.00  0.00     0.219 C 
HETATM   16  O   UNL     1     -44.181 -54.147  12.306  1.00  0.00    -0.274 OA
HETATM   17  N   UNL     1     -43.938 -53.239  14.394  1.00  0.00    -0.356 N 
HETATM   18  H   UNL     1     -43.297 -52.755  15.008  1.00  0.00     0.162 HD
BRANCH  17  19
HETATM   19  C   UNL     1     -45.361 -53.054  14.579  1.00  0.00     0.084 C 
HETATM   20  C   UNL     1     -45.871 -51.740  13.983  1.00  0.00     0.025 C 
HETATM   21  C   UNL     1     -46.937 -51.225  14.952  1.00  0.00     0.002 C 
HETATM   22  C   UNL     1     -47.114 -52.314  16.001  1.00  0.00     0.002 C 
HETATM   23  C   UNL     1     -45.762 -53.005  16.046  1.00  0.00     0.025 C 
ENDBRANCH  17  19
ENDBRANCH  14  15
ENDBRANCH  13  14
ENDBRANCH   1  13
TORSDOF 7
ENDMDL
MODEL 5
REMARK VINA RESULT:      -5.6      2.046      2.743
REMARK  7 active torsions:
REMARK  status: ('A' for Active; 'I' for Inactive)
REMARK    1  A    between atoms: C_2  and  N_3 
REMARK    2  A    between atoms: C_2  and  C_14 
REMARK    3  A    between atoms: N_3  and  C_4 
REMARK    4  A    between atoms: C_4  and  C_5 
REMARK    5  A    between atoms: C_5  and  C_6 
REMARK       I    between atoms: C_6  and  N_8 
REMARK    6  A    between atoms: N_8  and  C_9 
REMARK    7  A    between atoms: C_14  and  N_16 
ROOT
HETATM    1  N   UNL     1     -41.201 -50.039  11.208  1.00  0.00     0.090 N 
HETATM    2  H   UNL     1     -41.116 -50.112  10.194  1.00  0.00     0.316 HD
ENDROOT
BRANCH   1   3
HETATM    3  C   UNL     1     -41.800 -48.721  11.551  1.00  0.00     0.240 C 
HETATM    4  C   UNL     1     -43.091 -48.926  12.364  1.00  0.00     0.045 C 
BRANCH   3   5
HETATM    5  C   UNL     1     -42.011 -47.760  10.337  1.00  0.00     0.136 C 
HETATM    6  C   UNL     1     -43.486 -47.541   9.977  1.00  0.00     0.036 C 
BRANCH   5   7
HETATM    7  N   UNL     1     -41.353 -46.469  10.548  1.00  0.00    -0.297 N 
HETATM    8  C   UNL     1     -41.939 -45.328  11.030  1.00  0.00     0.112 A 
HETATM    9  C   UNL     1     -40.954 -44.372  11.050  1.00  0.00     0.037 A 
HETATM   10  C   UNL     1     -39.802 -45.038  10.595  1.00  0.00     0.108 A 
HETATM   11  N   UNL     1     -40.029 -46.325  10.322  1.00  0.00    -0.310 N 
ATOM     12  HN  UNL     1     -39.361 -47.032  10.016  1.00  0.00     0.186 HD
ENDBRANCH   5   7
ENDBRANCH   3   5
ENDBRANCH   1   3
BRANCH   1  13
HETATM   13  C   UNL     1     -39.900 -50.283  11.832  1.00  0.00     0.279 C 
BRANCH  13  14
HETATM   14  C   UNL     1     -40.016 -51.133  13.096  1.00  0.00     0.132 C 
BRANCH  14  15
HETATM   15  C   UNL     1     -40.839 -52.356  12.756  1.00  0.00     0.219 C 
HETATM   16  O   UNL     1     -40.579 -53.086  11.802  1.00  0.00    -0.274 OA
HETATM   17  N   UNL     1     -41.901 -52.581  13.601  1.00  0.00    -0.356 N 
HETATM   18  H   UNL     1     -42.201 -51.836  14.215  1.00  0.00     0.162 HD
BRANCH  17  19
HETATM   19  C   UNL     1     -42.779 -53.711  13.388  1.00  0.00     0.084 C 
HETATM   20  C   UNL     1     -44.036 -53.344  12.594  1.00  0.00     0.025 C 
HETATM   21  C   UNL     1     -45.175 -54.160  13.209  1.00  0.00     0.002 C 
HETATM   22  C   UNL     1     -44.529 -55.073  14.242  1.00  0.00     0.002 C 
HETATM   23  C   UNL     1     -43.296 -54.307  14.690  1.00  0.00     0.025 C 
ENDBRANCH  17  19
ENDBRANCH  14  15
ENDBRANCH  13  14
ENDBRANCH   1  13
TORSDOF 7
ENDMDL
MODEL 6
REMARK VINA RESULT:      -5.5      3.121      3.687
REMARK  7 active torsions:
REMARK  status: ('A' for Active; 'I' for Inactive)
REMARK    1  A    between atoms: C_2  and  N_3 
REMARK    2  A    between atoms: C_2  and  C_14 
REMARK    3  A    between atoms: N_3  and  C_4 
REMARK    4  A    between atoms: C_4  and  C_5 
REMARK    5  A    between atoms: C_5  and  C_6 
REMARK       I    between atoms: C_6  and  N_8 
REMARK    6  A    between atoms: N_8  and  C_9 
REMARK    7  A    between atoms: C_14  and  N_16 
ROOT
HETATM    1  N   UNL     1     -39.707 -48.324  11.034  1.00  0.00     0.090 N 
HETATM    2  H   UNL     1     -38.908 -47.915  10.549  1.00  0.00     0.316 HD
ENDROOT
BRANCH   1   3
HETATM    3  C   UNL     1     -40.806 -47.323  11.088  1.00  0.00     0.240 C 
HETATM    4  C   UNL     1     -40.472 -46.229  12.118  1.00  0.00     0.045 C 
BRANCH   3   5
HETATM    5  C   UNL     1     -42.232 -47.925  11.304  1.00  0.00     0.136 C 
HETATM    6  C   UNL     1     -42.963 -47.348  12.523  1.00  0.00     0.036 C 
BRANCH   5   7
HETATM    7  N   UNL     1     -43.067 -47.782  10.110  1.00  0.00    -0.297 N 
HETATM    8  C   UNL     1     -44.398 -47.455  10.084  1.00  0.00     0.112 A 
HETATM    9  C   UNL     1     -44.764 -47.444   8.760  1.00  0.00     0.037 A 
HETATM   10  C   UNL     1     -43.580 -47.743   8.063  1.00  0.00     0.108 A 
HETATM   11  N   UNL     1     -42.535 -47.913   8.876  1.00  0.00    -0.310 N 
ATOM     12  HN  UNL     1     -41.564 -48.099   8.625  1.00  0.00     0.186 HD
ENDBRANCH   5   7
ENDBRANCH   3   5
ENDBRANCH   1   3
BRANCH   1  13
HETATM   13  C   UNL     1     -39.289 -48.821  12.345  1.00  0.00     0.279 C 
BRANCH  13  14
HETATM   14  C   UNL     1     -37.882 -49.413  12.316  1.00  0.00     0.132 C 
BRANCH  14  15
HETATM   15  C   UNL     1     -37.996 -50.891  12.619  1.00  0.00     0.219 C 
HETATM   16  O   UNL     1     -37.038 -51.658  12.552  1.00  0.00    -0.274 OA
HETATM   17  N   UNL     1     -39.259 -51.304  12.974  1.00  0.00    -0.356 N 
HETATM   18  H   UNL     1     -40.041 -50.689  12.790  1.00  0.00     0.162 HD
BRANCH  17  19
HETATM   19  C   UNL     1     -39.516 -52.694  13.281  1.00  0.00     0.084 C 
HETATM   20  C   UNL     1     -40.864 -53.181  12.743  1.00  0.00     0.025 C 
HETATM   21  C   UNL     1     -41.421 -54.133  13.804  1.00  0.00     0.002 C 
HETATM   22  C   UNL     1     -40.329 -54.278  14.854  1.00  0.00     0.002 C 
HETATM   23  C   UNL     1     -39.568 -52.966  14.778  1.00  0.00     0.025 C 
ENDBRANCH  17  19
ENDBRANCH  14  15
ENDBRANCH  13  14
ENDBRANCH   1  13
TORSDOF 7
ENDMDL
MODEL 7
REMARK VINA RESULT:      -5.5      2.220      3.459
REMARK  7 active torsions:
REMARK  status: ('A' for Active; 'I' for Inactive)
REMARK    1  A    between atoms: C_2  and  N_3 
REMARK    2  A    between atoms: C_2  and  C_14 
REMARK    3  A    between atoms: N_3  and  C_4 
REMARK    4  A    between atoms: C_4  and  C_5 
REMARK    5  A    between atoms: C_5  and  C_6 
REMARK       I    between atoms: C_6  and  N_8 
REMARK    6  A    between atoms: N_8  and  C_9 
REMARK    7  A    between atoms: C_14  and  N_16 
ROOT
HETATM    1  N   UNL     1     -39.422 -51.149  13.608  1.00  0.00     0.090 N 
HETATM    2  H   UNL     1     -39.932 -51.254  12.730  1.00  0.00     0.316 HD
ENDROOT
BRANCH   1   3
HETATM    3  C   UNL     1     -38.036 -50.695  13.311  1.00  0.00     0.240 C 
HETATM    4  C   UNL     1     -37.344 -50.236  14.606  1.00  0.00     0.045 C 
BRANCH   3   5
HETATM    5  C   UNL     1     -37.924 -49.632  12.171  1.00  0.00     0.136 C 
HETATM    6  C   UNL     1     -37.207 -50.148  10.917  1.00  0.00     0.036 C 
BRANCH   5   7
HETATM    7  N   UNL     1     -39.235 -49.089  11.807  1.00  0.00    -0.297 N 
HETATM    8  C   UNL     1     -39.816 -47.958  12.319  1.00  0.00     0.112 A 
HETATM    9  C   UNL     1     -41.036 -47.841  11.698  1.00  0.00     0.037 A 
HETATM   10  C   UNL     1     -41.086 -48.926  10.806  1.00  0.00     0.108 A 
HETATM   11  N   UNL     1     -39.977 -49.669  10.839  1.00  0.00    -0.310 N 
ATOM     12  HN  UNL     1     -39.745 -50.483  10.269  1.00  0.00     0.186 HD
ENDBRANCH   5   7
ENDBRANCH   3   5
ENDBRANCH   1   3
BRANCH   1  13
HETATM   13  C   UNL     1     -39.490 -52.395  14.372  1.00  0.00     0.279 C 
BRANCH  13  14
HETATM   14  C   UNL     1     -40.226 -53.498  13.614  1.00  0.00     0.132 C 
BRANCH  14  15
HETATM   15  C   UNL     1     -41.374 -52.856  12.865  1.00  0.00     0.219 C 
HETATM   16  O   UNL     1     -41.256 -52.416  11.722  1.00  0.00    -0.274 OA
HETATM   17  N   UNL     1     -42.555 -52.805  13.567  1.00  0.00    -0.356 N 
HETATM   18  H   UNL     1     -42.535 -52.966  14.565  1.00  0.00     0.162 HD
BRANCH  17  19
HETATM   19  C   UNL     1     -43.733 -52.209  12.976  1.00  0.00     0.084 C 
HETATM   20  C   UNL     1     -44.446 -51.239  13.922  1.00  0.00     0.025 C 
HETATM   21  C   UNL     1     -45.943 -51.436  13.676  1.00  0.00     0.002 C 
HETATM   22  C   UNL     1     -46.054 -52.405  12.507  1.00  0.00     0.002 C 
HETATM   23  C   UNL     1     -44.788 -53.239  12.599  1.00  0.00     0.025 C 
ENDBRANCH  17  19
ENDBRANCH  14  15
ENDBRANCH  13  14
ENDBRANCH   1  13
TORSDOF 7
ENDMDL
MODEL 8
REMARK VINA RESULT:      -5.4      1.822      2.093
REMARK  7 active torsions:
REMARK  status: ('A' for Active; 'I' for Inactive)
REMARK    1  A    between atoms: C_2  and  N_3 
REMARK    2  A    between atoms: C_2  and  C_14 
REMARK    3  A    between atoms: N_3  and  C_4 
REMARK    4  A    between atoms: C_4  and  C_5 
REMARK    5  A    between atoms: C_5  and  C_6 
REMARK       I    between atoms: C_6  and  N_8 
REMARK    6  A    between atoms: N_8  and  C_9 
REMARK    7  A    between atoms: C_14  and  N_16 
ROOT
HETATM    1  N   UNL     1     -39.499 -50.382  11.678  1.00  0.00     0.090 N 
HETATM    2  H   UNL     1     -38.480 -50.432  11.646  1.00  0.00     0.316 HD
ENDROOT
BRANCH   1   3
HETATM    3  C   UNL     1     -39.903 -49.029  12.149  1.00  0.00     0.240 C 
HETATM    4  C   UNL     1     -40.365 -49.099  13.615  1.00  0.00     0.045 C 
BRANCH   3   5
HETATM    5  C   UNL     1     -40.940 -48.300  11.235  1.00  0.00     0.136 C 
HETATM    6  C   UNL     1     -42.399 -48.583  11.615  1.00  0.00     0.036 C 
BRANCH   5   7
HETATM    7  N   UNL     1     -40.707 -46.854  11.199  1.00  0.00    -0.297 N 
HETATM    8  C   UNL     1     -41.264 -45.921  12.034  1.00  0.00     0.112 A 
HETATM    9  C   UNL     1     -40.772 -44.704  11.630  1.00  0.00     0.037 A 
HETATM   10  C   UNL     1     -39.901 -45.008  10.568  1.00  0.00     0.108 A 
HETATM   11  N   UNL     1     -39.828 -46.319  10.324  1.00  0.00    -0.310 N 
ATOM     12  HN  UNL     1     -39.247 -46.802   9.640  1.00  0.00     0.186 HD
ENDBRANCH   5   7
ENDBRANCH   3   5
ENDBRANCH   1   3
BRANCH   1  13
HETATM   13  C   UNL     1     -40.023 -51.478  12.493  1.00  0.00     0.279 C 
BRANCH  13  14
HETATM   14  C   UNL     1     -41.119 -52.261  11.773  1.00  0.00     0.132 C 
BRANCH  14  15
HETATM   15  C   UNL     1     -42.192 -52.593  12.786  1.00  0.00     0.219 C 
HETATM   16  O   UNL     1     -42.007 -53.379  13.714  1.00  0.00    -0.274 OA
HETATM   17  N   UNL     1     -43.388 -51.945  12.583  1.00  0.00    -0.356 N 
HETATM   18  H   UNL     1     -43.555 -51.500  11.690  1.00  0.00     0.162 HD
BRANCH  17  19
HETATM   19  C   UNL     1     -44.507 -52.177  13.470  1.00  0.00     0.084 C 
HETATM   20  C   UNL     1     -45.850 -52.207  12.738  1.00  0.00     0.025 C 
HETATM   21  C   UNL     1     -46.853 -51.524  13.670  1.00  0.00     0.002 C 
HETATM   22  C   UNL     1     -46.102 -51.244  14.964  1.00  0.00     0.002 C 
HETATM   23  C   UNL     1     -44.656 -51.088  14.524  1.00  0.00     0.025 C 
ENDBRANCH  17  19
ENDBRANCH  14  15
ENDBRANCH  13  14
ENDBRANCH   1  13
TORSDOF 7
ENDMDL
MODEL 9
REMARK VINA RESULT:      -5.2      1.670      2.262
REMARK  7 active torsions:
REMARK  status: ('A' for Active; 'I' for Inactive)
REMARK    1  A    between atoms: C_2  and  N_3 
REMARK    2  A    between atoms: C_2  and  C_14 
REMARK    3  A    between atoms: N_3  and  C_4 
REMARK    4  A    between atoms: C_4  and  C_5 
REMARK    5  A    between atoms: C_5  and  C_6 
REMARK       I    between atoms: C_6  and  N_8 
REMARK    6  A    between atoms: N_8  and  C_9 
REMARK    7  A    between atoms: C_14  and  N_16 
ROOT
HETATM    1  N   UNL     1     -40.973 -51.847  11.455  1.00  0.00     0.090 N 
HETATM    2  H   UNL     1     -40.338 -52.618  11.663  1.00  0.00     0.316 HD
ENDROOT
BRANCH   1   3
HETATM    3  C   UNL     1     -40.278 -50.559  11.725  1.00  0.00     0.240 C 
HETATM    4  C   UNL     1     -38.956 -50.821  12.467  1.00  0.00     0.045 C 
BRANCH   3   5
HETATM    5  C   UNL     1     -41.153 -49.478  12.438  1.00  0.00     0.136 C 
HETATM    6  C   UNL     1     -40.479 -48.855  13.666  1.00  0.00     0.036 C 
BRANCH   5   7
HETATM    7  N   UNL     1     -41.573 -48.425  11.512  1.00  0.00    -0.297 N 
HETATM    8  C   UNL     1     -40.933 -47.232  11.296  1.00  0.00     0.112 A 
HETATM    9  C   UNL     1     -41.682 -46.561  10.360  1.00  0.00     0.037 A 
HETATM   10  C   UNL     1     -42.732 -47.442  10.047  1.00  0.00     0.108 A 
HETATM   11  N   UNL     1     -42.652 -48.594  10.718  1.00  0.00    -0.310 N 
ATOM     12  HN  UNL     1     -43.261 -49.409  10.647  1.00  0.00     0.186 HD
ENDBRANCH   5   7
ENDBRANCH   3   5
ENDBRANCH   1   3
BRANCH   1  13
HETATM   13  C   UNL     1     -42.221 -52.019  12.201  1.00  0.00     0.279 C 
BRANCH  13  14
HETATM   14  C   UNL     1     -42.399 -53.449  12.707  1.00  0.00     0.132 C 
BRANCH  14  15
HETATM   15  C   UNL     1     -43.825 -53.594  13.190  1.00  0.00     0.219 C 
HETATM   16  O   UNL     1     -44.634 -54.347  12.651  1.00  0.00    -0.274 OA
HETATM   17  N   UNL     1     -44.141 -52.813  14.277  1.00  0.00    -0.356 N 
HETATM   18  H   UNL     1     -43.520 -52.056  14.529  1.00  0.00     0.162 HD
BRANCH  17  19
HETATM   19  C   UNL     1     -45.474 -52.844  14.838  1.00  0.00     0.084 C 
HETATM   20  C   UNL     1     -46.339 -51.668  14.377  1.00  0.00     0.025 C 
HETATM   21  C   UNL     1     -47.182 -51.266  15.588  1.00  0.00     0.002 C 
HETATM   22  C   UNL     1     -46.888 -52.298  16.668  1.00  0.00     0.002 C 
HETATM   23  C   UNL     1     -45.475 -52.762  16.358  1.00  0.00     0.025 C 
ENDBRANCH  17  19
ENDBRANCH  14  15
ENDBRANCH  13  14
ENDBRANCH   1  13
TORSDOF 7
ENDMDL
