MODEL 1
REMARK VINA RESULT:      -5.5      0.000      0.000
REMARK  1 active torsions:
REMARK  status: ('A' for Active; 'I' for Inactive)
REMARK    1  A    between atoms: C_5  and  N_6 
ROOT
HETATM    1  O   UNL     1     -46.629 -47.867   8.407  1.00  0.00    -0.247 OA
HETATM    2  C   UNL     1     -45.624 -47.438   8.965  1.00  0.00     0.327 C 
HETATM    3  N   UNL     1     -45.005 -48.125   9.965  1.00  0.00    -0.316 N 
HETATM    4  C   UNL     1     -43.900 -47.668  10.629  1.00  0.00     0.128 C 
HETATM    5  C   UNL     1     -43.328 -46.475  10.383  1.00  0.00     0.115 C 
HETATM    6  C   UNL     1     -44.047 -45.636   9.330  1.00  0.00     0.277 C 
HETATM    7  O   UNL     1     -43.779 -44.456   9.110  1.00  0.00    -0.266 OA
HETATM    8  N   UNL     1     -45.060 -46.244   8.638  1.00  0.00    -0.274 N 
HETATM    9  H   UNL     1     -45.411 -49.024  10.198  1.00  0.00     0.170 HD
HETATM   10  H   UNL     1     -45.544 -45.683   7.956  1.00  0.00     0.173 HD
ENDROOT
BRANCH   5  11
HETATM   11  N   UNL     1     -42.190 -45.978  11.036  1.00  0.00    -0.371 N 
HETATM   12  C   UNL     1     -42.230 -44.933  12.085  1.00  0.00     0.149 C 
HETATM   13  C   UNL     1     -41.429 -43.702  11.617  1.00  0.00     0.187 C 
HETATM   14  O   UNL     1     -40.080 -44.039  11.249  1.00  0.00    -0.388 OA
HETATM   15  C   UNL     1     -40.075 -45.030  10.210  1.00  0.00     0.187 C 
HETATM   16  C   UNL     1     -40.800 -46.304  10.663  1.00  0.00     0.149 C 
ENDBRANCH   5  11
TORSDOF 1
ENDMDL
MODEL 2
REMARK VINA RESULT:      -5.4      1.653      1.810
REMARK  1 active torsions:
REMARK  status: ('A' for Active; 'I' for Inactive)
REMARK    1  A    between atoms: C_5  and  N_6 
ROOT
HETATM    1  O   UNL     1     -44.001 -48.368   7.312  1.00  0.00    -0.247 OA
HETATM    2  C   UNL     1     -43.496 -47.653   8.172  1.00  0.00     0.327 C 
HETATM    3  N   UNL     1     -42.664 -48.153   9.128  1.00  0.00    -0.316 N 
HETATM    4  C   UNL     1     -42.102 -47.394  10.117  1.00  0.00     0.128 C 
HETATM    5  C   UNL     1     -42.342 -46.078  10.269  1.00  0.00     0.115 C 
HETATM    6  C   UNL     1     -43.341 -45.500   9.271  1.00  0.00     0.277 C 
HETATM    7  O   UNL     1     -43.816 -44.371   9.371  1.00  0.00    -0.266 OA
HETATM    8  N   UNL     1     -43.736 -46.316   8.244  1.00  0.00    -0.274 N 
HETATM    9  H   UNL     1     -42.467 -49.145   9.065  1.00  0.00     0.170 HD
HETATM   10  H   UNL     1     -44.408 -45.938   7.597  1.00  0.00     0.173 HD
ENDROOT
BRANCH   5  11
HETATM   11  N   UNL     1     -41.778 -45.268  11.265  1.00  0.00    -0.371 N 
HETATM   12  C   UNL     1     -42.421 -44.995  12.571  1.00  0.00     0.149 C 
HETATM   13  C   UNL     1     -42.683 -43.482  12.710  1.00  0.00     0.187 C 
HETATM   14  O   UNL     1     -41.488 -42.704  12.531  1.00  0.00    -0.388 OA
HETATM   15  C   UNL     1     -40.904 -42.967  11.245  1.00  0.00     0.187 C 
HETATM   16  C   UNL     1     -40.558 -44.454  11.093  1.00  0.00     0.149 C 
ENDBRANCH   5  11
TORSDOF 1
ENDMDL
MODEL 3
REMARK VINA RESULT:      -5.1      1.412      2.351
REMARK  1 active torsions:
REMARK  status: ('A' for Active; 'I' for Inactive)
REMARK    1  A    between atoms: C_5  and  N_6 
ROOT
HETATM    1  O   UNL     1     -46.661 -47.779   8.514  1.00  0.00    -0.247 OA
HETATM    2  C   UNL     1     -45.673 -47.274   9.038  1.00  0.00     0.327 C 
HETATM    3  N   UNL     1     -45.258 -46.013   8.731  1.00  0.00    -0.316 N 
HETATM    4  C   UNL     1     -44.149 -45.425   9.273  1.00  0.00     0.128 C 
HETATM    5  C   UNL     1     -43.331 -46.047  10.142  1.00  0.00     0.115 C 
HETATM    6  C   UNL     1     -43.712 -47.494  10.442  1.00  0.00     0.277 C 
HETATM    7  O   UNL     1     -42.985 -48.267  11.064  1.00  0.00    -0.266 OA
HETATM    8  N   UNL     1     -44.912 -47.935   9.951  1.00  0.00    -0.274 N 
HETATM    9  H   UNL     1     -45.835 -45.511   8.065  1.00  0.00     0.170 HD
HETATM   10  H   UNL     1     -45.152 -48.895  10.136  1.00  0.00     0.173 HD
ENDROOT
BRANCH   5  11
HETATM   11  N   UNL     1     -42.191 -45.474  10.725  1.00  0.00    -0.371 N 
HETATM   12  C   UNL     1     -40.814 -45.676  10.219  1.00  0.00     0.149 C 
HETATM   13  C   UNL     1     -39.960 -46.356  11.307  1.00  0.00     0.187 C 
HETATM   14  O   UNL     1     -39.972 -45.624  12.544  1.00  0.00    -0.388 OA
HETATM   15  C   UNL     1     -41.316 -45.471  13.025  1.00  0.00     0.187 C 
HETATM   16  C   UNL     1     -42.185 -44.730  12.000  1.00  0.00     0.149 C 
ENDBRANCH   5  11
TORSDOF 1
ENDMDL
MODEL 4
REMARK VINA RESULT:      -4.8      6.630      8.495
REMARK  1 active torsions:
REMARK  status: ('A' for Active; 'I' for Inactive)
REMARK    1  A    between atoms: C_5  and  N_6 
ROOT
HETATM    1  O   UNL     1     -40.923 -49.065  11.112  1.00  0.00    -0.247 OA
HETATM    2  C   UNL     1     -41.414 -50.075  11.607  1.00  0.00     0.327 C 
HETATM    3  N   UNL     1     -42.541 -50.029  12.371  1.00  0.00    -0.316 N 
HETATM    4  C   UNL     1     -43.103 -51.127  12.961  1.00  0.00     0.128 C 
HETATM    5  C   UNL     1     -42.579 -52.364  12.875  1.00  0.00     0.115 C 
HETATM    6  C   UNL     1     -41.265 -52.441  12.103  1.00  0.00     0.277 C 
HETATM    7  O   UNL     1     -40.555 -53.444  12.079  1.00  0.00    -0.266 OA
HETATM    8  N   UNL     1     -40.866 -51.309  11.443  1.00  0.00    -0.274 N 
HETATM    9  H   UNL     1     -42.962 -49.114  12.478  1.00  0.00     0.170 HD
HETATM   10  H   UNL     1     -39.990 -51.357  10.949  1.00  0.00     0.173 HD
ENDROOT
BRANCH   5  11
HETATM   11  N   UNL     1     -43.131 -53.514  13.459  1.00  0.00    -0.371 N 
HETATM   12  C   UNL     1     -44.290 -54.248  12.901  1.00  0.00     0.149 C 
HETATM   13  C   UNL     1     -45.448 -54.235  13.919  1.00  0.00     0.187 C 
HETATM   14  O   UNL     1     -45.052 -54.755  15.199  1.00  0.00    -0.388 OA
HETATM   15  C   UNL     1     -43.948 -54.004  15.728  1.00  0.00     0.187 C 
HETATM   16  C   UNL     1     -42.745 -54.054  14.777  1.00  0.00     0.149 C 
ENDBRANCH   5  11
TORSDOF 1
ENDMDL
MODEL 5
REMARK VINA RESULT:      -4.6      4.443      5.518
REMARK  1 active torsions:
REMARK  status: ('A' for Active; 'I' for Inactive)
REMARK    1  A    between atoms: C_5  and  N_6 
ROOT
HETATM    1  O   UNL     1     -43.213 -47.473   9.360  1.00  0.00    -0.247 OA
HETATM    2  C   UNL     1     -42.267 -47.772  10.082  1.00  0.00     0.327 C 
HETATM    3  N   UNL     1     -41.205 -46.939  10.262  1.00  0.00    -0.316 N 
HETATM    4  C   UNL     1     -40.121 -47.247  11.038  1.00  0.00     0.128 C 
HETATM    5  C   UNL     1     -39.978 -48.422  11.677  1.00  0.00     0.115 C 
HETATM    6  C   UNL     1     -41.106 -49.419  11.426  1.00  0.00     0.277 C 
HETATM    7  O   UNL     1     -41.055 -50.596  11.776  1.00  0.00    -0.266 OA
HETATM    8  N   UNL     1     -42.201 -48.958  10.745  1.00  0.00    -0.274 N 
HETATM    9  H   UNL     1     -41.260 -46.047   9.785  1.00  0.00     0.170 HD
HETATM   10  H   UNL     1     -42.937 -49.622  10.566  1.00  0.00     0.173 HD
ENDROOT
BRANCH   5  11
HETATM   11  N   UNL     1     -38.887 -48.770  12.487  1.00  0.00    -0.371 N 
HETATM   12  C   UNL     1     -37.690 -49.491  11.997  1.00  0.00     0.149 C 
HETATM   13  C   UNL     1     -37.555 -50.833  12.743  1.00  0.00     0.187 C 
HETATM   14  O   UNL     1     -37.527 -50.661  14.170  1.00  0.00    -0.388 OA
HETATM   15  C   UNL     1     -38.713 -49.987  14.619  1.00  0.00     0.187 C 
HETATM   16  C   UNL     1     -38.846 -48.610  13.954  1.00  0.00     0.149 C 
ENDBRANCH   5  11
TORSDOF 1
ENDMDL
MODEL 6
REMARK VINA RESULT:      -4.6      5.801      6.623
REMARK  1 active torsions:
REMARK  status: ('A' for Active; 'I' for Inactive)
REMARK    1  A    between atoms: C_5  and  N_6 
ROOT
HETATM    1  O   UNL     1     -44.865 -53.876  12.374  1.00  0.00    -0.247 OA
HETATM    2  C   UNL     1     -43.925 -53.102  12.526  1.00  0.00     0.327 C 
HETATM    3  N   UNL     1     -44.115 -51.783  12.810  1.00  0.00    -0.316 N 
HETATM    4  C   UNL     1     -43.095 -50.884  12.960  1.00  0.00     0.128 C 
HETATM    5  C   UNL     1     -41.797 -51.205  12.807  1.00  0.00     0.115 C 
HETATM    6  C   UNL     1     -41.548 -52.654  12.398  1.00  0.00     0.277 C 
HETATM    7  O   UNL     1     -40.450 -53.074  12.039  1.00  0.00    -0.266 OA
HETATM    8  N   UNL     1     -42.629 -53.496  12.408  1.00  0.00    -0.274 N 
HETATM    9  H   UNL     1     -45.080 -51.491  12.917  1.00  0.00     0.170 HD
HETATM   10  H   UNL     1     -42.465 -54.447  12.122  1.00  0.00     0.173 HD
ENDROOT
BRANCH   5  11
HETATM   11  N   UNL     1     -40.725 -50.313  12.962  1.00  0.00    -0.371 N 
HETATM   12  C   UNL     1     -40.159 -49.503  11.859  1.00  0.00     0.149 C 
HETATM   13  C   UNL     1     -38.679 -49.880  11.649  1.00  0.00     0.187 C 
HETATM   14  O   UNL     1     -37.908 -49.751  12.855  1.00  0.00    -0.388 OA
HETATM   15  C   UNL     1     -38.463 -50.571  13.896  1.00  0.00     0.187 C 
HETATM   16  C   UNL     1     -39.917 -50.178  14.189  1.00  0.00     0.149 C 
ENDBRANCH   5  11
TORSDOF 1
ENDMDL
MODEL 7
REMARK VINA RESULT:      -4.6      7.231      7.917
REMARK  1 active torsions:
REMARK  status: ('A' for Active; 'I' for Inactive)
REMARK    1  A    between atoms: C_5  and  N_6 
ROOT
HETATM    1  O   UNL     1     -47.181 -51.237  14.928  1.00  0.00    -0.247 OA
HETATM    2  C   UNL     1     -46.108 -51.644  14.496  1.00  0.00     0.327 C 
HETATM    3  N   UNL     1     -44.956 -50.929  14.633  1.00  0.00    -0.316 N 
HETATM    4  C   UNL     1     -43.746 -51.337  14.144  1.00  0.00     0.128 C 
HETATM    5  C   UNL     1     -43.575 -52.474  13.444  1.00  0.00     0.115 C 
HETATM    6  C   UNL     1     -44.859 -53.258  13.191  1.00  0.00     0.277 C 
HETATM    7  O   UNL     1     -44.924 -54.215  12.422  1.00  0.00    -0.266 OA
HETATM    8  N   UNL     1     -45.987 -52.829  13.839  1.00  0.00    -0.274 N 
HETATM    9  H   UNL     1     -45.040 -50.055  15.139  1.00  0.00     0.170 HD
HETATM   10  H   UNL     1     -46.836 -53.338  13.657  1.00  0.00     0.173 HD
ENDROOT
BRANCH   5  11
HETATM   11  N   UNL     1     -42.350 -52.928  12.935  1.00  0.00    -0.371 N 
HETATM   12  C   UNL     1     -41.663 -54.154  13.404  1.00  0.00     0.149 C 
HETATM   13  C   UNL     1     -40.288 -53.782  13.992  1.00  0.00     0.187 C 
HETATM   14  O   UNL     1     -39.480 -53.041  13.060  1.00  0.00    -0.388 OA
HETATM   15  C   UNL     1     -40.159 -51.844  12.648  1.00  0.00     0.187 C 
HETATM   16  C   UNL     1     -41.504 -52.175  11.988  1.00  0.00     0.149 C 
ENDBRANCH   5  11
TORSDOF 1
ENDMDL
MODEL 8
REMARK VINA RESULT:      -4.6      7.979      8.825
REMARK  1 active torsions:
REMARK  status: ('A' for Active; 'I' for Inactive)
REMARK    1  A    between atoms: C_5  and  N_6 
ROOT
HETATM    1  O   UNL     1     -45.368 -53.424  12.137  1.00  0.00    -0.247 OA
HETATM    2  C   UNL     1     -44.225 -53.448  12.581  1.00  0.00     0.327 C 
HETATM    3  N   UNL     1     -43.929 -54.017  13.783  1.00  0.00    -0.316 N 
HETATM    4  C   UNL     1     -42.673 -54.041  14.323  1.00  0.00     0.128 C 
HETATM    5  C   UNL     1     -41.603 -53.473  13.736  1.00  0.00     0.115 C 
HETATM    6  C   UNL     1     -41.911 -52.746  12.430  1.00  0.00     0.277 C 
HETATM    7  O   UNL     1     -41.102 -52.021  11.855  1.00  0.00    -0.266 OA
HETATM    8  N   UNL     1     -43.172 -52.901  11.917  1.00  0.00    -0.274 N 
HETATM    9  H   UNL     1     -44.708 -54.443  14.272  1.00  0.00     0.170 HD
HETATM   10  H   UNL     1     -43.378 -52.406  11.064  1.00  0.00     0.173 HD
ENDROOT
BRANCH   5  11
HETATM   11  N   UNL     1     -40.300 -53.485  14.255  1.00  0.00    -0.371 N 
HETATM   12  C   UNL     1     -39.331 -54.582  14.029  1.00  0.00     0.149 C 
HETATM   13  C   UNL     1     -38.941 -55.212  15.381  1.00  0.00     0.187 C 
HETATM   14  O   UNL     1     -38.437 -54.237  16.310  1.00  0.00    -0.388 OA
HETATM   15  C   UNL     1     -39.409 -53.204  16.532  1.00  0.00     0.187 C 
HETATM   16  C   UNL     1     -39.771 -52.499  15.218  1.00  0.00     0.149 C 
ENDBRANCH   5  11
TORSDOF 1
ENDMDL
MODEL 9
REMARK VINA RESULT:      -4.5      3.084      3.894
REMARK  1 active torsions:
REMARK  status: ('A' for Active; 'I' for Inactive)
REMARK    1  A    between atoms: C_5  and  N_6 
ROOT
HETATM    1  O   UNL     1     -44.105 -46.225   9.065  1.00  0.00    -0.247 OA
HETATM    2  C   UNL     1     -43.268 -46.807   9.748  1.00  0.00     0.327 C 
HETATM    3  N   UNL     1     -43.591 -47.874  10.531  1.00  0.00    -0.316 N 
HETATM    4  C   UNL     1     -42.694 -48.532  11.325  1.00  0.00     0.128 C 
HETATM    5  C   UNL     1     -41.402 -48.171  11.442  1.00  0.00     0.115 C 
HETATM    6  C   UNL     1     -41.023 -46.923  10.650  1.00  0.00     0.277 C 
HETATM    7  O   UNL     1     -39.946 -46.344  10.778  1.00  0.00    -0.266 OA
HETATM    8  N   UNL     1     -41.963 -46.426   9.786  1.00  0.00    -0.274 N 
HETATM    9  H   UNL     1     -44.559 -48.173  10.489  1.00  0.00     0.170 HD
HETATM   10  H   UNL     1     -41.716 -45.593   9.278  1.00  0.00     0.173 HD
ENDROOT
BRANCH   5  11
HETATM   11  N   UNL     1     -40.452 -48.826  12.239  1.00  0.00    -0.371 N 
HETATM   12  C   UNL     1     -40.111 -48.419  13.621  1.00  0.00     0.149 C 
HETATM   13  C   UNL     1     -38.620 -48.031  13.691  1.00  0.00     0.187 C 
HETATM   14  O   UNL     1     -37.762 -49.082  13.217  1.00  0.00    -0.388 OA
HETATM   15  C   UNL     1     -38.097 -49.434  11.865  1.00  0.00     0.187 C 
HETATM   16  C   UNL     1     -39.556 -49.899  11.764  1.00  0.00     0.149 C 
ENDBRANCH   5  11
TORSDOF 1
ENDMDL
