MODEL 1
REMARK VINA RESULT:      -6.0      0.000      0.000
REMARK  2 active torsions:
REMARK  status: ('A' for Active; 'I' for Inactive)
REMARK    1  A    between atoms: C_6  and  N_7 
REMARK       I    between atoms: N_7  and  C_8 
REMARK       I    between atoms: C_8  and  N_10 
REMARK    2  A    between atoms: N_10  and  C_11 
ROOT
HETATM    1  N   UNL     1     -42.773 -53.527  12.279  1.00  0.00    -0.295 N 
HETATM    2  C   UNL     1     -44.051 -53.536  12.764  1.00  0.00     0.322 C 
HETATM    3  O   UNL     1     -44.835 -54.394  12.372  1.00  0.00    -0.247 OA
HETATM    4  N   UNL     1     -44.344 -52.607  13.700  1.00  0.00    -0.334 N 
HETATM    5  H   UNL     1     -42.596 -54.308  11.663  1.00  0.00     0.172 HD
HETATM    6  H   UNL     1     -43.619 -51.892  13.751  1.00  0.00     0.165 HD
ENDROOT
BRANCH   1   7
HETATM    7  C   UNL     1     -41.762 -52.574  12.427  1.00  0.00     0.109 A 
HETATM    8  C   UNL     1     -40.692 -52.898  13.251  1.00  0.00     0.049 A 
HETATM    9  C   UNL     1     -39.638 -51.996  13.380  1.00  0.00     0.006 A 
HETATM   10  C   UNL     1     -39.680 -50.797  12.680  1.00  0.00     0.025 A 
HETATM   11  C   UNL     1     -40.781 -50.536  11.873  1.00  0.00     0.007 A 
HETATM   12  C   UNL     1     -40.878 -49.250  11.109  1.00  0.00     0.068 C 
HETATM   13  N   UNL     1     -41.822 -51.402  11.746  1.00  0.00    -0.346 N 
ATOM     14  HN  UNL     1     -42.624 -51.177  11.158  1.00  0.00     0.167 HD
ENDBRANCH   1   7
BRANCH   4  15
HETATM   15  C   UNL     1     -45.663 -52.202  14.221  1.00  0.00     0.035 C 
HETATM   16  C   UNL     1     -46.470 -51.628  13.043  1.00  0.00     0.039 C 
HETATM   17  C   UNL     1     -45.377 -51.138  15.302  1.00  0.00     0.057 C 
HETATM   18  C   UNL     1     -44.763 -51.825  16.525  1.00  0.00     0.170 C 
HETATM   19  O   UNL     1     -45.708 -52.731  17.090  1.00  0.00    -0.391 OA
HETATM   20  C   UNL     1     -46.001 -53.810  16.201  1.00  0.00     0.170 C 
HETATM   21  C   UNL     1     -46.532 -53.305  14.869  1.00  0.00     0.057 C 
ENDBRANCH   4  15
TORSDOF 2
ENDMDL
MODEL 2
REMARK VINA RESULT:      -5.7      2.464      5.542
REMARK  2 active torsions:
REMARK  status: ('A' for Active; 'I' for Inactive)
REMARK    1  A    between atoms: C_6  and  N_7 
REMARK       I    between atoms: N_7  and  C_8 
REMARK       I    between atoms: C_8  and  N_10 
REMARK    2  A    between atoms: N_10  and  C_11 
ROOT
HETATM    1  N   UNL     1     -43.247 -52.750  12.070  1.00  0.00    -0.295 N 
HETATM    2  C   UNL     1     -41.915 -52.651  12.362  1.00  0.00     0.322 C 
HETATM    3  O   UNL     1     -41.111 -52.492  11.450  1.00  0.00    -0.247 OA
HETATM    4  N   UNL     1     -41.584 -52.686  13.671  1.00  0.00    -0.334 N 
HETATM    5  H   UNL     1     -43.429 -52.615  11.086  1.00  0.00     0.172 HD
HETATM    6  H   UNL     1     -42.369 -52.999  14.243  1.00  0.00     0.165 HD
ENDROOT
BRANCH   1   7
HETATM    7  C   UNL     1     -44.323 -53.102  12.888  1.00  0.00     0.109 A 
HETATM    8  C   UNL     1     -44.536 -54.454  13.121  1.00  0.00     0.049 A 
HETATM    9  C   UNL     1     -45.566 -54.842  13.976  1.00  0.00     0.006 A 
HETATM   10  C   UNL     1     -46.352 -53.867  14.578  1.00  0.00     0.025 A 
HETATM   11  C   UNL     1     -46.084 -52.532  14.301  1.00  0.00     0.007 A 
HETATM   12  C   UNL     1     -46.915 -51.446  14.915  1.00  0.00     0.068 C 
HETATM   13  N   UNL     1     -45.091 -52.140  13.459  1.00  0.00    -0.346 N 
ATOM     14  HN  UNL     1     -44.927 -51.152  13.264  1.00  0.00     0.167 HD
ENDBRANCH   1   7
BRANCH   4  15
HETATM   15  C   UNL     1     -40.254 -52.853  14.286  1.00  0.00     0.035 C 
HETATM   16  C   UNL     1     -39.762 -54.271  13.945  1.00  0.00     0.039 C 
HETATM   17  C   UNL     1     -40.467 -52.661  15.802  1.00  0.00     0.057 C 
HETATM   18  C   UNL     1     -40.748 -51.182  16.081  1.00  0.00     0.170 C 
HETATM   19  O   UNL     1     -39.607 -50.403  15.732  1.00  0.00    -0.391 OA
HETATM   20  C   UNL     1     -39.349 -50.445  14.328  1.00  0.00     0.170 C 
HETATM   21  C   UNL     1     -39.146 -51.870  13.841  1.00  0.00     0.057 C 
ENDBRANCH   4  15
TORSDOF 2
ENDMDL
MODEL 3
REMARK VINA RESULT:      -5.7      2.700      5.735
REMARK  2 active torsions:
REMARK  status: ('A' for Active; 'I' for Inactive)
REMARK    1  A    between atoms: C_6  and  N_7 
REMARK       I    between atoms: N_7  and  C_8 
REMARK       I    between atoms: C_8  and  N_10 
REMARK    2  A    between atoms: N_10  and  C_11 
ROOT
HETATM    1  N   UNL     1     -44.417 -54.889  14.669  1.00  0.00    -0.295 N 
HETATM    2  C   UNL     1     -43.140 -55.009  15.141  1.00  0.00     0.322 C 
HETATM    3  O   UNL     1     -42.754 -56.096  15.558  1.00  0.00    -0.247 OA
HETATM    4  N   UNL     1     -42.366 -53.904  15.064  1.00  0.00    -0.334 N 
HETATM    5  H   UNL     1     -44.903 -55.775  14.663  1.00  0.00     0.172 HD
HETATM    6  H   UNL     1     -42.924 -53.075  14.857  1.00  0.00     0.165 HD
ENDROOT
BRANCH   1   7
HETATM    7  C   UNL     1     -45.141 -53.749  14.312  1.00  0.00     0.109 A 
HETATM    8  C   UNL     1     -45.185 -53.413  12.965  1.00  0.00     0.049 A 
HETATM    9  C   UNL     1     -45.941 -52.314  12.564  1.00  0.00     0.006 A 
HETATM   10  C   UNL     1     -46.636 -51.583  13.518  1.00  0.00     0.025 A 
HETATM   11  C   UNL     1     -46.549 -51.974  14.849  1.00  0.00     0.007 A 
HETATM   12  C   UNL     1     -47.269 -51.207  15.917  1.00  0.00     0.068 C 
HETATM   13  N   UNL     1     -45.805 -53.037  15.257  1.00  0.00    -0.346 N 
ATOM     14  HN  UNL     1     -45.748 -53.291  16.243  1.00  0.00     0.167 HD
ENDBRANCH   1   7
BRANCH   4  15
HETATM   15  C   UNL     1     -41.063 -53.640  15.701  1.00  0.00     0.035 C 
HETATM   16  C   UNL     1     -41.288 -53.617  17.223  1.00  0.00     0.039 C 
HETATM   17  C   UNL     1     -40.602 -52.270  15.161  1.00  0.00     0.057 C 
HETATM   18  C   UNL     1     -40.198 -52.425  13.693  1.00  0.00     0.170 C 
HETATM   19  O   UNL     1     -39.074 -53.296  13.594  1.00  0.00    -0.391 OA
HETATM   20  C   UNL     1     -39.399 -54.625  14.003  1.00  0.00     0.170 C 
HETATM   21  C   UNL     1     -39.929 -54.656  15.428  1.00  0.00     0.057 C 
ENDBRANCH   4  15
TORSDOF 2
ENDMDL
MODEL 4
REMARK VINA RESULT:      -5.5      2.294      3.366
REMARK  2 active torsions:
REMARK  status: ('A' for Active; 'I' for Inactive)
REMARK    1  A    between atoms: C_6  and  N_7 
REMARK       I    between atoms: N_7  and  C_8 
REMARK       I    between atoms: C_8  and  N_10 
REMARK    2  A    between atoms: N_10  and  C_11 
ROOT
HETATM    1  N   UNL     1     -40.167 -51.218  11.612  1.00  0.00    -0.295 N 
HETATM    2  C   UNL     1     -40.904 -52.191  12.227  1.00  0.00     0.322 C 
HETATM    3  O   UNL     1     -40.572 -53.365  12.100  1.00  0.00    -0.247 OA
HETATM    4  N   UNL     1     -41.938 -51.770  12.988  1.00  0.00    -0.334 N 
HETATM    5  H   UNL     1     -39.355 -51.596  11.146  1.00  0.00     0.172 HD
HETATM    6  H   UNL     1     -42.146 -50.786  12.817  1.00  0.00     0.165 HD
ENDROOT
BRANCH   1   7
HETATM    7  C   UNL     1     -40.429 -49.854  11.458  1.00  0.00     0.109 A 
HETATM    8  C   UNL     1     -39.543 -48.961  12.047  1.00  0.00     0.049 A 
HETATM    9  C   UNL     1     -39.741 -47.593  11.869  1.00  0.00     0.006 A 
HETATM   10  C   UNL     1     -40.815 -47.155  11.104  1.00  0.00     0.025 A 
HETATM   11  C   UNL     1     -41.663 -48.104  10.544  1.00  0.00     0.007 A 
HETATM   12  C   UNL     1     -42.844 -47.679   9.723  1.00  0.00     0.068 C 
HETATM   13  N   UNL     1     -41.489 -49.441  10.719  1.00  0.00    -0.346 N 
ATOM     14  HN  UNL     1     -42.136 -50.113  10.307  1.00  0.00     0.167 HD
ENDBRANCH   1   7
BRANCH   4  15
HETATM   15  C   UNL     1     -43.046 -52.556  13.561  1.00  0.00     0.035 C 
HETATM   16  C   UNL     1     -43.899 -53.075  12.390  1.00  0.00     0.039 C 
HETATM   17  C   UNL     1     -43.829 -51.580  14.464  1.00  0.00     0.057 C 
HETATM   18  C   UNL     1     -42.994 -51.276  15.710  1.00  0.00     0.170 C 
HETATM   19  O   UNL     1     -42.813 -52.470  16.468  1.00  0.00    -0.391 OA
HETATM   20  C   UNL     1     -42.034 -53.433  15.759  1.00  0.00     0.170 C 
HETATM   21  C   UNL     1     -42.665 -53.785  14.421  1.00  0.00     0.057 C 
ENDBRANCH   4  15
TORSDOF 2
ENDMDL
MODEL 5
REMARK VINA RESULT:      -5.5      2.402      5.671
REMARK  2 active torsions:
REMARK  status: ('A' for Active; 'I' for Inactive)
REMARK    1  A    between atoms: C_6  and  N_7 
REMARK       I    between atoms: N_7  and  C_8 
REMARK       I    between atoms: C_8  and  N_10 
REMARK    2  A    between atoms: N_10  and  C_11 
ROOT
HETATM    1  N   UNL     1     -42.670 -53.698  12.461  1.00  0.00    -0.295 N 
HETATM    2  C   UNL     1     -41.539 -52.946  12.618  1.00  0.00     0.322 C 
HETATM    3  O   UNL     1     -40.454 -53.424  12.304  1.00  0.00    -0.247 OA
HETATM    4  N   UNL     1     -41.714 -51.686  13.071  1.00  0.00    -0.334 N 
HETATM    5  H   UNL     1     -42.476 -54.588  12.026  1.00  0.00     0.172 HD
HETATM    6  H   UNL     1     -42.657 -51.551  13.435  1.00  0.00     0.165 HD
ENDROOT
BRANCH   1   7
HETATM    7  C   UNL     1     -43.976 -53.458  12.898  1.00  0.00     0.109 A 
HETATM    8  C   UNL     1     -44.332 -53.942  14.150  1.00  0.00     0.049 A 
HETATM    9  C   UNL     1     -45.608 -53.675  14.642  1.00  0.00     0.006 A 
HETATM   10  C   UNL     1     -46.492 -52.930  13.872  1.00  0.00     0.025 A 
HETATM   11  C   UNL     1     -46.070 -52.477  12.627  1.00  0.00     0.007 A 
HETATM   12  C   UNL     1     -46.993 -51.682  11.754  1.00  0.00     0.068 C 
HETATM   13  N   UNL     1     -44.832 -52.740  12.129  1.00  0.00    -0.346 N 
ATOM     14  HN  UNL     1     -44.557 -52.407  11.205  1.00  0.00     0.167 HD
ENDBRANCH   1   7
BRANCH   4  15
HETATM   15  C   UNL     1     -40.705 -50.734  13.572  1.00  0.00     0.035 C 
HETATM   16  C   UNL     1     -40.212 -51.257  14.933  1.00  0.00     0.039 C 
HETATM   17  C   UNL     1     -41.435 -49.380  13.700  1.00  0.00     0.057 C 
HETATM   18  C   UNL     1     -41.706 -48.827  12.299  1.00  0.00     0.170 C 
HETATM   19  O   UNL     1     -40.469 -48.559  11.643  1.00  0.00    -0.391 OA
HETATM   20  C   UNL     1     -39.729 -49.756  11.402  1.00  0.00     0.170 C 
HETATM   21  C   UNL     1     -39.453 -50.509  12.693  1.00  0.00     0.057 C 
ENDBRANCH   4  15
TORSDOF 2
ENDMDL
MODEL 6
REMARK VINA RESULT:      -5.4      3.413      5.837
REMARK  2 active torsions:
REMARK  status: ('A' for Active; 'I' for Inactive)
REMARK    1  A    between atoms: C_6  and  N_7 
REMARK       I    between atoms: N_7  and  C_8 
REMARK       I    between atoms: C_8  and  N_10 
REMARK    2  A    between atoms: N_10  and  C_11 
ROOT
HETATM    1  N   UNL     1     -40.594 -51.574  11.393  1.00  0.00    -0.295 N 
HETATM    2  C   UNL     1     -40.286 -50.262  11.620  1.00  0.00     0.322 C 
HETATM    3  O   UNL     1     -39.383 -49.738  10.976  1.00  0.00    -0.247 OA
HETATM    4  N   UNL     1     -41.051 -49.613  12.524  1.00  0.00    -0.334 N 
HETATM    5  H   UNL     1     -40.051 -51.965  10.637  1.00  0.00     0.172 HD
HETATM    6  H   UNL     1     -41.618 -50.266  13.066  1.00  0.00     0.165 HD
ENDROOT
BRANCH   1   7
HETATM    7  C   UNL     1     -41.439 -52.434  12.100  1.00  0.00     0.109 A 
HETATM    8  C   UNL     1     -40.850 -53.320  12.993  1.00  0.00     0.049 A 
HETATM    9  C   UNL     1     -41.663 -54.155  13.755  1.00  0.00     0.006 A 
HETATM   10  C   UNL     1     -43.042 -54.080  13.608  1.00  0.00     0.025 A 
HETATM   11  C   UNL     1     -43.565 -53.171  12.696  1.00  0.00     0.007 A 
HETATM   12  C   UNL     1     -45.047 -53.064  12.492  1.00  0.00     0.068 C 
HETATM   13  N   UNL     1     -42.783 -52.358  11.936  1.00  0.00    -0.346 N 
ATOM     14  HN  UNL     1     -43.195 -51.711  11.264  1.00  0.00     0.167 HD
ENDBRANCH   1   7
BRANCH   4  15
HETATM   15  C   UNL     1     -40.823 -48.303  13.161  1.00  0.00     0.035 C 
HETATM   16  C   UNL     1     -39.832 -48.518  14.318  1.00  0.00     0.039 C 
HETATM   17  C   UNL     1     -42.206 -47.833  13.660  1.00  0.00     0.057 C 
HETATM   18  C   UNL     1     -43.063 -47.441  12.454  1.00  0.00     0.170 C 
HETATM   19  O   UNL     1     -42.473 -46.326  11.790  1.00  0.00    -0.391 OA
HETATM   20  C   UNL     1     -41.208 -46.660  11.218  1.00  0.00     0.170 C 
HETATM   21  C   UNL     1     -40.241 -47.180  12.270  1.00  0.00     0.057 C 
ENDBRANCH   4  15
TORSDOF 2
ENDMDL
MODEL 7
REMARK VINA RESULT:      -5.1      2.428      5.277
REMARK  2 active torsions:
REMARK  status: ('A' for Active; 'I' for Inactive)
REMARK    1  A    between atoms: C_6  and  N_7 
REMARK       I    between atoms: N_7  and  C_8 
REMARK       I    between atoms: C_8  and  N_10 
REMARK    2  A    between atoms: N_10  and  C_11 
ROOT
HETATM    1  N   UNL     1     -42.867 -53.032  12.175  1.00  0.00    -0.295 N 
HETATM    2  C   UNL     1     -41.593 -52.824  12.627  1.00  0.00     0.322 C 
HETATM    3  O   UNL     1     -40.667 -52.807  11.824  1.00  0.00    -0.247 OA
HETATM    4  N   UNL     1     -41.456 -52.600  13.952  1.00  0.00    -0.334 N 
HETATM    5  H   UNL     1     -42.905 -53.091  11.168  1.00  0.00     0.172 HD
HETATM    6  H   UNL     1     -42.311 -52.832  14.458  1.00  0.00     0.165 HD
ENDROOT
BRANCH   1   7
HETATM    7  C   UNL     1     -44.046 -53.268  12.887  1.00  0.00     0.109 A 
HETATM    8  C   UNL     1     -44.357 -54.586  13.193  1.00  0.00     0.049 A 
HETATM    9  C   UNL     1     -45.496 -54.857  13.948  1.00  0.00     0.006 A 
HETATM   10  C   UNL     1     -46.291 -53.803  14.380  1.00  0.00     0.025 A 
HETATM   11  C   UNL     1     -45.921 -52.507  14.038  1.00  0.00     0.007 A 
HETATM   12  C   UNL     1     -46.756 -51.339  14.470  1.00  0.00     0.068 C 
HETATM   13  N   UNL     1     -44.819 -52.229  13.292  1.00  0.00    -0.346 N 
ATOM     14  HN  UNL     1     -44.582 -51.269  13.044  1.00  0.00     0.167 HD
ENDBRANCH   1   7
BRANCH   4  15
HETATM   15  C   UNL     1     -40.228 -52.593  14.768  1.00  0.00     0.035 C 
HETATM   16  C   UNL     1     -39.246 -51.602  14.118  1.00  0.00     0.039 C 
HETATM   17  C   UNL     1     -39.696 -54.042  14.737  1.00  0.00     0.057 C 
HETATM   18  C   UNL     1     -40.617 -54.928  15.579  1.00  0.00     0.170 C 
HETATM   19  O   UNL     1     -40.569 -54.510  16.941  1.00  0.00    -0.391 OA
HETATM   20  C   UNL     1     -41.106 -53.197  17.110  1.00  0.00     0.170 C 
HETATM   21  C   UNL     1     -40.371 -52.180  16.252  1.00  0.00     0.057 C 
ENDBRANCH   4  15
TORSDOF 2
ENDMDL
MODEL 8
REMARK VINA RESULT:      -5.1      2.519      5.704
REMARK  2 active torsions:
REMARK  status: ('A' for Active; 'I' for Inactive)
REMARK    1  A    between atoms: C_6  and  N_7 
REMARK       I    between atoms: N_7  and  C_8 
REMARK       I    between atoms: C_8  and  N_10 
REMARK    2  A    between atoms: N_10  and  C_11 
ROOT
HETATM    1  N   UNL     1     -44.271 -50.749  12.932  1.00  0.00    -0.295 N 
HETATM    2  C   UNL     1     -42.917 -50.566  12.970  1.00  0.00     0.322 C 
HETATM    3  O   UNL     1     -42.393 -49.797  12.171  1.00  0.00    -0.247 OA
HETATM    4  N   UNL     1     -42.250 -51.225  13.942  1.00  0.00    -0.334 N 
HETATM    5  H   UNL     1     -44.715 -50.151  12.249  1.00  0.00     0.172 HD
HETATM    6  H   UNL     1     -42.837 -51.937  14.377  1.00  0.00     0.165 HD
ENDROOT
BRANCH   1   7
HETATM    7  C   UNL     1     -45.072 -51.680  13.599  1.00  0.00     0.109 A 
HETATM    8  C   UNL     1     -46.067 -51.188  14.433  1.00  0.00     0.049 A 
HETATM    9  C   UNL     1     -46.920 -52.085  15.073  1.00  0.00     0.006 A 
HETATM   10  C   UNL     1     -46.759 -53.448  14.857  1.00  0.00     0.025 A 
HETATM   11  C   UNL     1     -45.743 -53.872  14.009  1.00  0.00     0.007 A 
HETATM   12  C   UNL     1     -45.520 -55.333  13.757  1.00  0.00     0.068 C 
HETATM   13  N   UNL     1     -44.894 -53.009  13.388  1.00  0.00    -0.346 N 
ATOM     14  HN  UNL     1     -44.148 -53.350  12.783  1.00  0.00     0.167 HD
ENDBRANCH   1   7
BRANCH   4  15
HETATM   15  C   UNL     1     -40.797 -51.433  14.091  1.00  0.00     0.035 C 
HETATM   16  C   UNL     1     -40.156 -50.056  14.337  1.00  0.00     0.039 C 
HETATM   17  C   UNL     1     -40.326 -52.064  12.764  1.00  0.00     0.057 C 
HETATM   18  C   UNL     1     -40.835 -53.506  12.691  1.00  0.00     0.170 C 
HETATM   19  O   UNL     1     -40.244 -54.275  13.736  1.00  0.00    -0.391 OA
HETATM   20  C   UNL     1     -40.665 -53.827  15.025  1.00  0.00     0.170 C 
HETATM   21  C   UNL     1     -40.334 -52.359  15.240  1.00  0.00     0.057 C 
ENDBRANCH   4  15
TORSDOF 2
ENDMDL
MODEL 9
REMARK VINA RESULT:      -5.1      3.340      6.415
REMARK  2 active torsions:
REMARK  status: ('A' for Active; 'I' for Inactive)
REMARK    1  A    between atoms: C_6  and  N_7 
REMARK       I    between atoms: N_7  and  C_8 
REMARK       I    between atoms: C_8  and  N_10 
REMARK    2  A    between atoms: N_10  and  C_11 
ROOT
HETATM    1  N   UNL     1     -42.757 -50.978  14.031  1.00  0.00    -0.295 N 
HETATM    2  C   UNL     1     -42.038 -49.843  13.779  1.00  0.00     0.322 C 
HETATM    3  O   UNL     1     -40.827 -49.844  13.973  1.00  0.00    -0.247 OA
HETATM    4  N   UNL     1     -42.727 -48.796  13.275  1.00  0.00    -0.334 N 
HETATM    5  H   UNL     1     -42.164 -51.747  14.308  1.00  0.00     0.172 HD
HETATM    6  H   UNL     1     -43.734 -48.941  13.357  1.00  0.00     0.165 HD
ENDROOT
BRANCH   1   7
HETATM    7  C   UNL     1     -44.139 -51.179  14.059  1.00  0.00     0.109 A 
HETATM    8  C   UNL     1     -44.775 -51.086  15.291  1.00  0.00     0.049 A 
HETATM    9  C   UNL     1     -46.160 -51.226  15.351  1.00  0.00     0.006 A 
HETATM   10  C   UNL     1     -46.872 -51.451  14.180  1.00  0.00     0.025 A 
HETATM   11  C   UNL     1     -46.173 -51.533  12.982  1.00  0.00     0.007 A 
HETATM   12  C   UNL     1     -46.896 -51.789  11.694  1.00  0.00     0.068 C 
HETATM   13  N   UNL     1     -44.820 -51.410  12.909  1.00  0.00    -0.346 N 
ATOM     14  HN  UNL     1     -44.333 -51.490  12.017  1.00  0.00     0.167 HD
ENDBRANCH   1   7
BRANCH   4  15
HETATM   15  C   UNL     1     -42.305 -47.390  13.137  1.00  0.00     0.035 C 
HETATM   16  C   UNL     1     -42.593 -46.687  14.475  1.00  0.00     0.039 C 
HETATM   17  C   UNL     1     -43.151 -46.810  11.983  1.00  0.00     0.057 C 
HETATM   18  C   UNL     1     -42.662 -47.406  10.660  1.00  0.00     0.170 C 
HETATM   19  O   UNL     1     -41.318 -46.999  10.419  1.00  0.00    -0.391 OA
HETATM   20  C   UNL     1     -40.420 -47.538  11.391  1.00  0.00     0.170 C 
HETATM   21  C   UNL     1     -40.817 -47.132  12.801  1.00  0.00     0.057 C 
ENDBRANCH   4  15
TORSDOF 2
ENDMDL
