MODEL 1
REMARK VINA RESULT:      -5.5      0.000      0.000
REMARK  5 active torsions:
REMARK  status: ('A' for Active; 'I' for Inactive)
REMARK       I    between atoms: C_2  and  N_3 
REMARK       I    between atoms: C_2  and  N_12 
REMARK    1  A    between atoms: N_3  and  C_4 
REMARK    2  A    between atoms: C_4  and  C_5 
REMARK    3  A    between atoms: C_5  and  N_6 
REMARK    4  A    between atoms: N_12  and  C_13 
REMARK    5  A    between atoms: C_13  and  C_14 
ROOT
HETATM    1  O   UNL     1     -42.063 -49.957  13.486  1.00  0.00    -0.247 OA
HETATM    2  C   UNL     1     -42.099 -50.353  12.329  1.00  0.00     0.316 C 
HETATM    3  N   UNL     1     -42.092 -49.516  11.245  1.00  0.00    -0.342 N 
HETATM    4  N   UNL     1     -42.110 -51.673  11.970  1.00  0.00    -0.343 N 
HETATM    5  H   UNL     1     -42.475 -49.888  10.389  1.00  0.00     0.164 HD
HETATM    6  H   UNL     1     -42.136 -51.917  10.991  1.00  0.00     0.164 HD
ENDROOT
BRANCH   3   7
HETATM    7  C   UNL     1     -42.167 -48.073  11.437  1.00  0.00     0.144 C 
BRANCH   7   8
HETATM    8  C   UNL     1     -42.200 -47.290  10.123  1.00  0.00     0.149 C 
BRANCH   8   9
HETATM    9  N   UNL     1     -43.434 -47.485   9.393  1.00  0.00    -0.350 N 
HETATM   10  C   UNL     1     -44.699 -47.421   9.905  1.00  0.00     0.108 A 
HETATM   11  C   UNL     1     -45.521 -47.747   8.851  1.00  0.00     0.106 A 
HETATM   12  N   UNL     1     -44.789 -47.995   7.720  1.00  0.00    -0.361 N 
HETATM   13  C   UNL     1     -43.534 -47.842   8.079  1.00  0.00     0.182 A 
ATOM     14  HN  UNL     1     -45.142 -48.246   6.797  1.00  0.00     0.166 HD
ENDBRANCH   8   9
ENDBRANCH   7   8
ENDBRANCH   3   7
BRANCH   4  15
HETATM   15  C   UNL     1     -42.038 -52.737  12.952  1.00  0.00     0.131 C 
BRANCH  15  16
HETATM   16  C   UNL     1     -43.410 -53.130  13.484  1.00  0.00     0.029 C 
HETATM   17  C   UNL     1     -43.443 -54.413  14.296  1.00  0.00     0.034 C 
HETATM   18  C   UNL     1     -44.802 -55.020  13.994  1.00  0.00     0.168 C 
HETATM   19  O   UNL     1     -45.429 -54.201  12.998  1.00  0.00    -0.391 OA
HETATM   20  C   UNL     1     -44.400 -53.429  12.375  1.00  0.00     0.173 C 
ENDBRANCH  15  16
ENDBRANCH   4  15
TORSDOF 5
ENDMDL
MODEL 2
REMARK VINA RESULT:      -5.4      2.807      6.950
REMARK  5 active torsions:
REMARK  status: ('A' for Active; 'I' for Inactive)
REMARK       I    between atoms: C_2  and  N_3 
REMARK       I    between atoms: C_2  and  N_12 
REMARK    1  A    between atoms: N_3  and  C_4 
REMARK    2  A    between atoms: C_4  and  C_5 
REMARK    3  A    between atoms: C_5  and  N_6 
REMARK    4  A    between atoms: N_12  and  C_13 
REMARK    5  A    between atoms: C_13  and  C_14 
ROOT
HETATM    1  O   UNL     1     -42.356 -48.012  11.849  1.00  0.00    -0.247 OA
HETATM    2  C   UNL     1     -41.835 -48.289  10.777  1.00  0.00     0.316 C 
HETATM    3  N   UNL     1     -40.976 -49.341  10.606  1.00  0.00    -0.342 N 
HETATM    4  N   UNL     1     -42.071 -47.612   9.612  1.00  0.00    -0.343 N 
HETATM    5  H   UNL     1     -40.341 -49.279   9.825  1.00  0.00     0.164 HD
HETATM    6  H   UNL     1     -41.603 -47.907   8.768  1.00  0.00     0.164 HD
ENDROOT
BRANCH   3   7
HETATM    7  C   UNL     1     -40.541 -50.123  11.757  1.00  0.00     0.144 C 
BRANCH   7   8
HETATM    8  C   UNL     1     -41.229 -51.487  11.856  1.00  0.00     0.149 C 
BRANCH   8   9
HETATM    9  N   UNL     1     -40.513 -52.407  12.713  1.00  0.00    -0.350 N 
HETATM   10  C   UNL     1     -40.737 -53.749  12.829  1.00  0.00     0.108 A 
HETATM   11  C   UNL     1     -39.866 -54.167  13.808  1.00  0.00     0.106 A 
HETATM   12  N   UNL     1     -39.119 -53.118  14.276  1.00  0.00    -0.361 N 
HETATM   13  C   UNL     1     -39.538 -52.068  13.606  1.00  0.00     0.182 A 
ATOM     14  HN  UNL     1     -38.392 -53.146  14.991  1.00  0.00     0.166 HD
ENDBRANCH   8   9
ENDBRANCH   7   8
ENDBRANCH   3   7
BRANCH   4  15
HETATM   15  C   UNL     1     -43.012 -46.511   9.540  1.00  0.00     0.131 C 
BRANCH  15  16
HETATM   16  C   UNL     1     -44.229 -46.842   8.687  1.00  0.00     0.029 C 
HETATM   17  C   UNL     1     -45.468 -47.255   9.463  1.00  0.00     0.034 C 
HETATM   18  C   UNL     1     -46.160 -48.267   8.567  1.00  0.00     0.168 C 
HETATM   19  O   UNL     1     -45.311 -48.492   7.434  1.00  0.00    -0.391 OA
HETATM   20  C   UNL     1     -44.001 -48.044   7.790  1.00  0.00     0.173 C 
ENDBRANCH  15  16
ENDBRANCH   4  15
TORSDOF 5
ENDMDL
MODEL 3
REMARK VINA RESULT:      -5.3      3.775      4.282
REMARK  5 active torsions:
REMARK  status: ('A' for Active; 'I' for Inactive)
REMARK       I    between atoms: C_2  and  N_3 
REMARK       I    between atoms: C_2  and  N_12 
REMARK    1  A    between atoms: N_3  and  C_4 
REMARK    2  A    between atoms: C_4  and  C_5 
REMARK    3  A    between atoms: C_5  and  N_6 
REMARK    4  A    between atoms: N_12  and  C_13 
REMARK    5  A    between atoms: C_13  and  C_14 
ROOT
HETATM    1  O   UNL     1     -39.638 -48.101  12.230  1.00  0.00    -0.247 OA
HETATM    2  C   UNL     1     -39.874 -48.989  11.422  1.00  0.00     0.316 C 
HETATM    3  N   UNL     1     -41.039 -49.067  10.706  1.00  0.00    -0.342 N 
HETATM    4  N   UNL     1     -38.996 -49.988  11.101  1.00  0.00    -0.343 N 
HETATM    5  H   UNL     1     -41.290 -49.980  10.357  1.00  0.00     0.164 HD
HETATM    6  H   UNL     1     -39.266 -50.681  10.420  1.00  0.00     0.164 HD
ENDROOT
BRANCH   3   7
HETATM    7  C   UNL     1     -42.126 -48.135  10.978  1.00  0.00     0.144 C 
BRANCH   7   8
HETATM    8  C   UNL     1     -42.411 -47.184   9.813  1.00  0.00     0.149 C 
BRANCH   8   9
HETATM    9  N   UNL     1     -43.634 -47.517   9.114  1.00  0.00    -0.350 N 
HETATM   10  C   UNL     1     -44.896 -47.506   9.635  1.00  0.00     0.108 A 
HETATM   11  C   UNL     1     -45.701 -47.963   8.617  1.00  0.00     0.106 A 
HETATM   12  N   UNL     1     -44.960 -48.238   7.497  1.00  0.00    -0.361 N 
HETATM   13  C   UNL     1     -43.717 -47.971   7.829  1.00  0.00     0.182 A 
ATOM     14  HN  UNL     1     -45.301 -48.578   6.598  1.00  0.00     0.166 HD
ENDBRANCH   8   9
ENDBRANCH   7   8
ENDBRANCH   3   7
BRANCH   4  15
HETATM   15  C   UNL     1     -37.666 -50.056  11.677  1.00  0.00     0.131 C 
BRANCH  15  16
HETATM   16  C   UNL     1     -37.628 -50.887  12.953  1.00  0.00     0.029 C 
HETATM   17  C   UNL     1     -38.899 -51.660  13.257  1.00  0.00     0.034 C 
HETATM   18  C   UNL     1     -38.985 -51.673  14.772  1.00  0.00     0.168 C 
HETATM   19  O   UNL     1     -37.910 -50.866  15.273  1.00  0.00    -0.391 OA
HETATM   20  C   UNL     1     -37.469 -50.035  14.197  1.00  0.00     0.173 C 
ENDBRANCH  15  16
ENDBRANCH   4  15
TORSDOF 5
ENDMDL
MODEL 4
REMARK VINA RESULT:      -5.3      2.285      2.857
REMARK  5 active torsions:
REMARK  status: ('A' for Active; 'I' for Inactive)
REMARK       I    between atoms: C_2  and  N_3 
REMARK       I    between atoms: C_2  and  N_12 
REMARK    1  A    between atoms: N_3  and  C_4 
REMARK    2  A    between atoms: C_4  and  C_5 
REMARK    3  A    between atoms: C_5  and  N_6 
REMARK    4  A    between atoms: N_12  and  C_13 
REMARK    5  A    between atoms: C_13  and  C_14 
ROOT
HETATM    1  O   UNL     1     -40.937 -51.275  13.439  1.00  0.00    -0.247 OA
HETATM    2  C   UNL     1     -41.081 -51.778  12.333  1.00  0.00     0.316 C 
HETATM    3  N   UNL     1     -40.765 -51.136  11.165  1.00  0.00    -0.342 N 
HETATM    4  N   UNL     1     -41.535 -53.051  12.122  1.00  0.00    -0.343 N 
HETATM    5  H   UNL     1     -41.234 -51.460  10.333  1.00  0.00     0.164 HD
HETATM    6  H   UNL     1     -41.622 -53.393  11.176  1.00  0.00     0.164 HD
ENDROOT
BRANCH   3   7
HETATM    7  C   UNL     1     -40.346 -49.740  11.191  1.00  0.00     0.144 C 
BRANCH   7   8
HETATM    8  C   UNL     1     -41.513 -48.757  11.071  1.00  0.00     0.149 C 
BRANCH   8   9
HETATM    9  N   UNL     1     -41.070 -47.387  10.925  1.00  0.00    -0.350 N 
HETATM   10  C   UNL     1     -39.884 -46.866  11.361  1.00  0.00     0.108 A 
HETATM   11  C   UNL     1     -39.957 -45.526  11.058  1.00  0.00     0.106 A 
HETATM   12  N   UNL     1     -41.146 -45.229  10.445  1.00  0.00    -0.361 N 
HETATM   13  C   UNL     1     -41.802 -46.367  10.389  1.00  0.00     0.182 A 
ATOM     14  HN  UNL     1     -41.457 -44.319  10.106  1.00  0.00     0.166 HD
ENDBRANCH   8   9
ENDBRANCH   7   8
ENDBRANCH   3   7
BRANCH   4  15
HETATM   15  C   UNL     1     -41.853 -53.945  13.219  1.00  0.00     0.131 C 
BRANCH  15  16
HETATM   16  C   UNL     1     -43.309 -53.836  13.654  1.00  0.00     0.029 C 
HETATM   17  C   UNL     1     -43.875 -55.076  14.324  1.00  0.00     0.034 C 
HETATM   18  C   UNL     1     -45.335 -55.100  13.908  1.00  0.00     0.168 C 
HETATM   19  O   UNL     1     -45.538 -54.026  12.980  1.00  0.00    -0.391 OA
HETATM   20  C   UNL     1     -44.253 -53.648  12.482  1.00  0.00     0.173 C 
ENDBRANCH  15  16
ENDBRANCH   4  15
TORSDOF 5
ENDMDL
MODEL 5
REMARK VINA RESULT:      -5.3      2.452      2.786
REMARK  5 active torsions:
REMARK  status: ('A' for Active; 'I' for Inactive)
REMARK       I    between atoms: C_2  and  N_3 
REMARK       I    between atoms: C_2  and  N_12 
REMARK    1  A    between atoms: N_3  and  C_4 
REMARK    2  A    between atoms: C_4  and  C_5 
REMARK    3  A    between atoms: C_5  and  N_6 
REMARK    4  A    between atoms: N_12  and  C_13 
REMARK    5  A    between atoms: C_13  and  C_14 
ROOT
HETATM    1  O   UNL     1     -40.793 -48.062  12.030  1.00  0.00    -0.247 OA
HETATM    2  C   UNL     1     -40.925 -48.774  11.044  1.00  0.00     0.316 C 
HETATM    3  N   UNL     1     -41.610 -48.390   9.922  1.00  0.00    -0.342 N 
HETATM    4  N   UNL     1     -40.377 -50.021  10.920  1.00  0.00    -0.343 N 
HETATM    5  H   UNL     1     -41.965 -49.131   9.338  1.00  0.00     0.164 HD
HETATM    6  H   UNL     1     -40.530 -50.545  10.071  1.00  0.00     0.164 HD
ENDROOT
BRANCH   3   7
HETATM    7  C   UNL     1     -42.333 -47.124   9.906  1.00  0.00     0.144 C 
BRANCH   7   8
HETATM    8  C   UNL     1     -43.791 -47.257  10.351  1.00  0.00     0.149 C 
BRANCH   8   9
HETATM    9  N   UNL     1     -44.654 -47.727   9.287  1.00  0.00    -0.350 N 
HETATM   10  C   UNL     1     -45.973 -48.061   9.401  1.00  0.00     0.108 A 
HETATM   11  C   UNL     1     -46.329 -48.513   8.151  1.00  0.00     0.106 A 
HETATM   12  N   UNL     1     -45.265 -48.452   7.289  1.00  0.00    -0.361 N 
HETATM   13  C   UNL     1     -44.266 -47.985   8.004  1.00  0.00     0.182 A 
ATOM     14  HN  UNL     1     -45.252 -48.712   6.303  1.00  0.00     0.166 HD
ENDBRANCH   8   9
ENDBRANCH   7   8
ENDBRANCH   3   7
BRANCH   4  15
HETATM   15  C   UNL     1     -39.541 -50.599  11.955  1.00  0.00     0.131 C 
BRANCH  15  16
HETATM   16  C   UNL     1     -40.295 -51.606  12.815  1.00  0.00     0.029 C 
HETATM   17  C   UNL     1     -39.419 -52.513  13.661  1.00  0.00     0.034 C 
HETATM   18  C   UNL     1     -40.175 -53.828  13.717  1.00  0.00     0.168 C 
HETATM   19  O   UNL     1     -41.324 -53.703  12.869  1.00  0.00    -0.391 OA
HETATM   20  C   UNL     1     -41.081 -52.604  11.988  1.00  0.00     0.173 C 
ENDBRANCH  15  16
ENDBRANCH   4  15
TORSDOF 5
ENDMDL
MODEL 6
REMARK VINA RESULT:      -5.3      2.512      7.010
REMARK  5 active torsions:
REMARK  status: ('A' for Active; 'I' for Inactive)
REMARK       I    between atoms: C_2  and  N_3 
REMARK       I    between atoms: C_2  and  N_12 
REMARK    1  A    between atoms: N_3  and  C_4 
REMARK    2  A    between atoms: C_4  and  C_5 
REMARK    3  A    between atoms: C_5  and  N_6 
REMARK    4  A    between atoms: N_12  and  C_13 
REMARK    5  A    between atoms: C_13  and  C_14 
ROOT
HETATM    1  O   UNL     1     -41.797 -49.902  13.392  1.00  0.00    -0.247 OA
HETATM    2  C   UNL     1     -41.958 -50.374  12.274  1.00  0.00     0.316 C 
HETATM    3  N   UNL     1     -42.483 -51.620  12.051  1.00  0.00    -0.342 N 
HETATM    4  N   UNL     1     -41.674 -49.711  11.113  1.00  0.00    -0.343 N 
HETATM    5  H   UNL     1     -42.250 -52.053  11.170  1.00  0.00     0.164 HD
HETATM    6  H   UNL     1     -41.839 -50.171  10.229  1.00  0.00     0.164 HD
ENDROOT
BRANCH   3   7
HETATM    7  C   UNL     1     -42.765 -52.505  13.174  1.00  0.00     0.144 C 
BRANCH   7   8
HETATM    8  C   UNL     1     -43.550 -53.756  12.775  1.00  0.00     0.149 C 
BRANCH   8   9
HETATM    9  N   UNL     1     -44.843 -53.828  13.422  1.00  0.00    -0.350 N 
HETATM   10  C   UNL     1     -45.614 -52.770  13.813  1.00  0.00     0.108 A 
HETATM   11  C   UNL     1     -46.700 -53.340  14.437  1.00  0.00     0.106 A 
HETATM   12  N   UNL     1     -46.608 -54.707  14.424  1.00  0.00    -0.361 N 
HETATM   13  C   UNL     1     -45.473 -54.973  13.816  1.00  0.00     0.182 A 
ATOM     14  HN  UNL     1     -47.277 -55.376  14.805  1.00  0.00     0.166 HD
ENDBRANCH   8   9
ENDBRANCH   7   8
ENDBRANCH   3   7
BRANCH   4  15
HETATM   15  C   UNL     1     -41.186 -48.345  11.107  1.00  0.00     0.131 C 
BRANCH  15  16
HETATM   16  C   UNL     1     -42.263 -47.345  10.707  1.00  0.00     0.029 C 
HETATM   17  C   UNL     1     -43.019 -47.687   9.435  1.00  0.00     0.034 C 
HETATM   18  C   UNL     1     -43.340 -46.342   8.809  1.00  0.00     0.168 C 
HETATM   19  O   UNL     1     -42.708 -45.332   9.607  1.00  0.00    -0.391 OA
HETATM   20  C   UNL     1     -41.695 -45.978  10.382  1.00  0.00     0.173 C 
ENDBRANCH  15  16
ENDBRANCH   4  15
TORSDOF 5
ENDMDL
MODEL 7
REMARK VINA RESULT:      -5.2      3.443      5.079
REMARK  5 active torsions:
REMARK  status: ('A' for Active; 'I' for Inactive)
REMARK       I    between atoms: C_2  and  N_3 
REMARK       I    between atoms: C_2  and  N_12 
REMARK    1  A    between atoms: N_3  and  C_4 
REMARK    2  A    between atoms: C_4  and  C_5 
REMARK    3  A    between atoms: C_5  and  N_6 
REMARK    4  A    between atoms: N_12  and  C_13 
REMARK    5  A    between atoms: C_13  and  C_14 
ROOT
HETATM    1  O   UNL     1     -40.884 -51.392  13.574  1.00  0.00    -0.247 OA
HETATM    2  C   UNL     1     -40.984 -51.875  12.454  1.00  0.00     0.316 C 
HETATM    3  N   UNL     1     -40.577 -51.231  11.316  1.00  0.00    -0.342 N 
HETATM    4  N   UNL     1     -41.474 -53.126  12.200  1.00  0.00    -0.343 N 
HETATM    5  H   UNL     1     -41.010 -51.527  10.454  1.00  0.00     0.164 HD
HETATM    6  H   UNL     1     -41.520 -53.453  11.246  1.00  0.00     0.164 HD
ENDROOT
BRANCH   3   7
HETATM    7  C   UNL     1     -40.107 -49.853  11.386  1.00  0.00     0.144 C 
BRANCH   7   8
HETATM    8  C   UNL     1     -38.582 -49.737  11.441  1.00  0.00     0.149 C 
BRANCH   8   9
HETATM    9  N   UNL     1     -38.079 -49.684  12.797  1.00  0.00    -0.350 N 
HETATM   10  C   UNL     1     -37.462 -50.697  13.474  1.00  0.00     0.108 A 
HETATM   11  C   UNL     1     -37.240 -50.192  14.734  1.00  0.00     0.106 A 
HETATM   12  N   UNL     1     -37.697 -48.904  14.831  1.00  0.00    -0.361 N 
HETATM   13  C   UNL     1     -38.208 -48.628  13.652  1.00  0.00     0.182 A 
ATOM     14  HN  UNL     1     -37.650 -48.291  15.644  1.00  0.00     0.166 HD
ENDBRANCH   8   9
ENDBRANCH   7   8
ENDBRANCH   3   7
BRANCH   4  15
HETATM   15  C   UNL     1     -41.888 -54.020  13.264  1.00  0.00     0.131 C 
BRANCH  15  16
HETATM   16  C   UNL     1     -43.350 -53.831  13.646  1.00  0.00     0.029 C 
HETATM   17  C   UNL     1     -43.996 -55.022  14.333  1.00  0.00     0.034 C 
HETATM   18  C   UNL     1     -45.441 -54.993  13.868  1.00  0.00     0.168 C 
HETATM   19  O   UNL     1     -45.563 -53.939  12.902  1.00  0.00    -0.391 OA
HETATM   20  C   UNL     1     -44.246 -53.637  12.438  1.00  0.00     0.173 C 
ENDBRANCH  15  16
ENDBRANCH   4  15
TORSDOF 5
ENDMDL
MODEL 8
REMARK VINA RESULT:      -5.0      4.277      6.491
REMARK  5 active torsions:
REMARK  status: ('A' for Active; 'I' for Inactive)
REMARK       I    between atoms: C_2  and  N_3 
REMARK       I    between atoms: C_2  and  N_12 
REMARK    1  A    between atoms: N_3  and  C_4 
REMARK    2  A    between atoms: C_4  and  C_5 
REMARK    3  A    between atoms: C_5  and  N_6 
REMARK    4  A    between atoms: N_12  and  C_13 
REMARK    5  A    between atoms: C_13  and  C_14 
ROOT
HETATM    1  O   UNL     1     -43.114 -53.980  13.187  1.00  0.00    -0.247 OA
HETATM    2  C   UNL     1     -43.292 -52.978  12.506  1.00  0.00     0.316 C 
HETATM    3  N   UNL     1     -42.286 -52.332  11.838  1.00  0.00    -0.342 N 
HETATM    4  N   UNL     1     -44.514 -52.402  12.294  1.00  0.00    -0.343 N 
HETATM    5  H   UNL     1     -42.446 -51.361  11.618  1.00  0.00     0.164 HD
HETATM    6  H   UNL     1     -44.576 -51.577  11.716  1.00  0.00     0.164 HD
ENDROOT
BRANCH   3   7
HETATM    7  C   UNL     1     -40.903 -52.755  12.017  1.00  0.00     0.144 C 
BRANCH   7   8
HETATM    8  C   UNL     1     -40.235 -52.136  13.247  1.00  0.00     0.149 C 
BRANCH   8   9
HETATM    9  N   UNL     1     -39.694 -53.135  14.145  1.00  0.00    -0.350 N 
HETATM   10  C   UNL     1     -39.363 -52.952  15.457  1.00  0.00     0.108 A 
HETATM   11  C   UNL     1     -38.828 -54.156  15.855  1.00  0.00     0.106 A 
HETATM   12  N   UNL     1     -38.836 -55.057  14.823  1.00  0.00    -0.361 N 
HETATM   13  C   UNL     1     -39.352 -54.411  13.802  1.00  0.00     0.182 A 
ATOM     14  HN  UNL     1     -38.511 -56.023  14.843  1.00  0.00     0.166 HD
ENDBRANCH   8   9
ENDBRANCH   7   8
ENDBRANCH   3   7
BRANCH   4  15
HETATM   15  C   UNL     1     -45.734 -52.967  12.837  1.00  0.00     0.131 C 
BRANCH  15  16
HETATM   16  C   UNL     1     -46.395 -52.049  13.857  1.00  0.00     0.029 C 
HETATM   17  C   UNL     1     -45.441 -51.165  14.643  1.00  0.00     0.034 C 
HETATM   18  C   UNL     1     -46.084 -51.034  16.012  1.00  0.00     0.168 C 
HETATM   19  O   UNL     1     -47.244 -51.877  16.028  1.00  0.00    -0.391 OA
HETATM   20  C   UNL     1     -47.100 -52.815  14.959  1.00  0.00     0.173 C 
ENDBRANCH  15  16
ENDBRANCH   4  15
TORSDOF 5
ENDMDL
MODEL 9
REMARK VINA RESULT:      -5.0      1.695      2.372
REMARK  5 active torsions:
REMARK  status: ('A' for Active; 'I' for Inactive)
REMARK       I    between atoms: C_2  and  N_3 
REMARK       I    between atoms: C_2  and  N_12 
REMARK    1  A    between atoms: N_3  and  C_4 
REMARK    2  A    between atoms: C_4  and  C_5 
REMARK    3  A    between atoms: C_5  and  N_6 
REMARK    4  A    between atoms: N_12  and  C_13 
REMARK    5  A    between atoms: C_13  and  C_14 
ROOT
HETATM    1  O   UNL     1     -41.428 -51.812  14.160  1.00  0.00    -0.247 OA
HETATM    2  C   UNL     1     -42.093 -52.169  13.196  1.00  0.00     0.316 C 
HETATM    3  N   UNL     1     -42.289 -51.391  12.086  1.00  0.00    -0.342 N 
HETATM    4  N   UNL     1     -42.687 -53.396  13.086  1.00  0.00    -0.343 N 
HETATM    5  H   UNL     1     -43.106 -51.599  11.532  1.00  0.00     0.164 HD
HETATM    6  H   UNL     1     -43.216 -53.614  12.255  1.00  0.00     0.164 HD
ENDROOT
BRANCH   3   7
HETATM    7  C   UNL     1     -41.800 -50.018  12.062  1.00  0.00     0.144 C 
BRANCH   7   8
HETATM    8  C   UNL     1     -42.915 -48.977  12.196  1.00  0.00     0.149 C 
BRANCH   8   9
HETATM    9  N   UNL     1     -42.908 -48.017  11.112  1.00  0.00    -0.350 N 
HETATM   10  C   UNL     1     -44.003 -47.504  10.477  1.00  0.00     0.108 A 
HETATM   11  C   UNL     1     -43.488 -46.701   9.485  1.00  0.00     0.106 A 
HETATM   12  N   UNL     1     -42.118 -46.711   9.511  1.00  0.00    -0.361 N 
HETATM   13  C   UNL     1     -41.796 -47.522  10.495  1.00  0.00     0.182 A 
ATOM     14  HN  UNL     1     -41.484 -46.199   8.899  1.00  0.00     0.166 HD
ENDBRANCH   8   9
ENDBRANCH   7   8
ENDBRANCH   3   7
BRANCH   4  15
HETATM   15  C   UNL     1     -42.542 -54.414  14.108  1.00  0.00     0.131 C 
BRANCH  15  16
HETATM   16  C   UNL     1     -43.885 -54.936  14.602  1.00  0.00     0.029 C 
HETATM   17  C   UNL     1     -45.037 -54.779  13.624  1.00  0.00     0.034 C 
HETATM   18  C   UNL     1     -46.252 -54.541  14.502  1.00  0.00     0.168 C 
HETATM   19  O   UNL     1     -45.795 -54.452  15.858  1.00  0.00    -0.391 OA
HETATM   20  C   UNL     1     -44.392 -54.182  15.815  1.00  0.00     0.173 C 
ENDBRANCH  15  16
ENDBRANCH   4  15
TORSDOF 5
ENDMDL
