MODEL 1
REMARK VINA RESULT:      -5.7      0.000      0.000
REMARK  5 active torsions:
REMARK  status: ('A' for Active; 'I' for Inactive)
REMARK    1  A    between atoms: C_2  and  C_3 
REMARK    2  A    between atoms: C_2  and  N_10 
REMARK    3  A    between atoms: C_3  and  N_4 
REMARK       I    between atoms: N_10  and  C_11 
REMARK    4  A    between atoms: C_11  and  C_13 
REMARK    5  A    between atoms: C_13  and  N_15 
ROOT
HETATM    1  N   UNL     1     -42.754 -48.232  10.231  1.00  0.00    -0.353 N 
HETATM    2  C   UNL     1     -42.852 -47.048   9.531  1.00  0.00     0.242 C 
HETATM    3  O   UNL     1     -42.348 -46.003   9.935  1.00  0.00    -0.271 OA
HETATM    4  H   UNL     1     -43.056 -49.094   9.788  1.00  0.00     0.163 HD
ENDROOT
BRANCH   1   5
HETATM    5  C   UNL     1     -42.031 -48.320  11.505  1.00  0.00     0.108 C 
HETATM    6  C   UNL     1     -43.021 -48.088  12.646  1.00  0.00     0.034 C 
BRANCH   5   7
HETATM    7  C   UNL     1     -41.273 -49.679  11.627  1.00  0.00     0.297 C 
BRANCH   7   8
HETATM    8  N   UNL     1     -41.523 -50.447  12.862  1.00  0.00     0.094 N 
HETATM    9  C   UNL     1     -40.332 -50.580  13.730  1.00  0.00     0.298 C 
HETATM   10  C   UNL     1     -39.295 -51.626  13.270  1.00  0.00     0.198 C 
HETATM   11  O   UNL     1     -39.895 -52.904  13.030  1.00  0.00    -0.388 OA
HETATM   12  C   UNL     1     -40.953 -52.792  12.073  1.00  0.00     0.198 C 
HETATM   13  C   UNL     1     -42.029 -51.809  12.562  1.00  0.00     0.298 C 
ENDBRANCH   7   8
ENDBRANCH   5   7
ENDBRANCH   1   5
BRANCH   2  14
HETATM   14  C   UNL     1     -43.632 -47.139   8.222  1.00  0.00     0.195 C 
HETATM   15  C   UNL     1     -43.022 -48.173   7.281  1.00  0.00     0.044 C 
BRANCH  14  16
HETATM   16  N   UNL     1     -45.033 -47.428   8.495  1.00  0.00    -0.290 N 
HETATM   17  C   UNL     1     -45.911 -46.685   9.235  1.00  0.00     0.112 A 
HETATM   18  C   UNL     1     -47.087 -47.394   9.263  1.00  0.00     0.037 A 
HETATM   19  C   UNL     1     -46.824 -48.550   8.507  1.00  0.00     0.108 A 
HETATM   20  N   UNL     1     -45.580 -48.570   8.023  1.00  0.00    -0.309 N 
ATOM     21  HN  UNL     1     -45.144 -49.281   7.435  1.00  0.00     0.186 HD
ENDBRANCH  14  16
ENDBRANCH   2  14
TORSDOF 5
ENDMDL
MODEL 2
REMARK VINA RESULT:      -5.7      2.295      6.433
REMARK  5 active torsions:
REMARK  status: ('A' for Active; 'I' for Inactive)
REMARK    1  A    between atoms: C_2  and  C_3 
REMARK    2  A    between atoms: C_2  and  N_10 
REMARK    3  A    between atoms: C_3  and  N_4 
REMARK       I    between atoms: N_10  and  C_11 
REMARK    4  A    between atoms: C_11  and  C_13 
REMARK    5  A    between atoms: C_13  and  N_15 
ROOT
HETATM    1  N   UNL     1     -41.174 -50.470  11.519  1.00  0.00    -0.353 N 
HETATM    2  C   UNL     1     -41.988 -51.157  12.394  1.00  0.00     0.242 C 
HETATM    3  O   UNL     1     -42.590 -50.598  13.307  1.00  0.00    -0.271 OA
HETATM    4  H   UNL     1     -40.818 -50.948  10.696  1.00  0.00     0.163 HD
ENDROOT
BRANCH   1   5
HETATM    5  C   UNL     1     -40.979 -49.019  11.619  1.00  0.00     0.108 C 
HETATM    6  C   UNL     1     -39.481 -48.731  11.705  1.00  0.00     0.034 C 
BRANCH   5   7
HETATM    7  C   UNL     1     -41.672 -48.277  10.433  1.00  0.00     0.297 C 
BRANCH   7   8
HETATM    8  N   UNL     1     -42.994 -47.690  10.726  1.00  0.00     0.094 N 
HETATM    9  C   UNL     1     -43.819 -47.454   9.520  1.00  0.00     0.298 C 
HETATM   10  C   UNL     1     -43.433 -46.213   8.690  1.00  0.00     0.198 C 
HETATM   11  O   UNL     1     -43.361 -45.031   9.496  1.00  0.00    -0.388 OA
HETATM   12  C   UNL     1     -42.445 -45.215  10.579  1.00  0.00     0.198 C 
HETATM   13  C   UNL     1     -42.868 -46.404  11.456  1.00  0.00     0.298 C 
ENDBRANCH   7   8
ENDBRANCH   5   7
ENDBRANCH   1   5
BRANCH   2  14
HETATM   14  C   UNL     1     -42.082 -52.659  12.139  1.00  0.00     0.195 C 
HETATM   15  C   UNL     1     -40.872 -53.397  12.703  1.00  0.00     0.044 C 
BRANCH  14  16
HETATM   16  N   UNL     1     -43.328 -53.180  12.684  1.00  0.00    -0.290 N 
HETATM   17  C   UNL     1     -43.484 -54.203  13.579  1.00  0.00     0.112 A 
HETATM   18  C   UNL     1     -44.838 -54.373  13.735  1.00  0.00     0.037 A 
HETATM   19  C   UNL     1     -45.418 -53.402  12.899  1.00  0.00     0.108 A 
HETATM   20  N   UNL     1     -44.503 -52.661  12.268  1.00  0.00    -0.309 N 
ATOM     21  HN  UNL     1     -44.657 -51.886  11.623  1.00  0.00     0.186 HD
ENDBRANCH  14  16
ENDBRANCH   2  14
TORSDOF 5
ENDMDL
MODEL 3
REMARK VINA RESULT:      -5.5      2.515      3.680
REMARK  5 active torsions:
REMARK  status: ('A' for Active; 'I' for Inactive)
REMARK    1  A    between atoms: C_2  and  C_3 
REMARK    2  A    between atoms: C_2  and  N_10 
REMARK    3  A    between atoms: C_3  and  N_4 
REMARK       I    between atoms: N_10  and  C_11 
REMARK    4  A    between atoms: C_11  and  C_13 
REMARK    5  A    between atoms: C_13  and  N_15 
ROOT
HETATM    1  N   UNL     1     -42.456 -49.694  12.324  1.00  0.00    -0.353 N 
HETATM    2  C   UNL     1     -41.783 -48.974  11.360  1.00  0.00     0.242 C 
HETATM    3  O   UNL     1     -40.800 -49.420  10.774  1.00  0.00    -0.271 OA
HETATM    4  H   UNL     1     -43.345 -49.345  12.670  1.00  0.00     0.163 HD
ENDROOT
BRANCH   1   5
HETATM    5  C   UNL     1     -42.042 -51.047  12.710  1.00  0.00     0.108 C 
HETATM    6  C   UNL     1     -40.976 -50.940  13.800  1.00  0.00     0.034 C 
BRANCH   5   7
HETATM    7  C   UNL     1     -43.269 -51.907  13.145  1.00  0.00     0.297 C 
BRANCH   7   8
HETATM    8  N   UNL     1     -43.309 -53.285  12.616  1.00  0.00     0.094 N 
HETATM    9  C   UNL     1     -44.660 -53.889  12.636  1.00  0.00     0.298 C 
HETATM   10  C   UNL     1     -45.139 -54.386  14.015  1.00  0.00     0.198 C 
HETATM   11  O   UNL     1     -44.183 -55.257  14.632  1.00  0.00    -0.388 OA
HETATM   12  C   UNL     1     -42.913 -54.609  14.746  1.00  0.00     0.198 C 
HETATM   13  C   UNL     1     -42.393 -54.181  13.364  1.00  0.00     0.298 C 
ENDBRANCH   7   8
ENDBRANCH   5   7
ENDBRANCH   1   5
BRANCH   2  14
HETATM   14  C   UNL     1     -42.356 -47.588  11.077  1.00  0.00     0.195 C 
HETATM   15  C   UNL     1     -41.249 -46.547  10.928  1.00  0.00     0.044 C 
BRANCH  14  16
HETATM   16  N   UNL     1     -43.209 -47.631   9.898  1.00  0.00    -0.290 N 
HETATM   17  C   UNL     1     -44.564 -47.449   9.840  1.00  0.00     0.112 A 
HETATM   18  C   UNL     1     -44.923 -47.652   8.530  1.00  0.00     0.037 A 
HETATM   19  C   UNL     1     -43.716 -47.945   7.871  1.00  0.00     0.108 A 
HETATM   20  N   UNL     1     -42.665 -47.918   8.695  1.00  0.00    -0.309 N 
ATOM     21  HN  UNL     1     -41.683 -48.077   8.469  1.00  0.00     0.186 HD
ENDBRANCH  14  16
ENDBRANCH   2  14
TORSDOF 5
ENDMDL
MODEL 4
REMARK VINA RESULT:      -5.3      3.021      6.479
REMARK  5 active torsions:
REMARK  status: ('A' for Active; 'I' for Inactive)
REMARK    1  A    between atoms: C_2  and  C_3 
REMARK    2  A    between atoms: C_2  and  N_10 
REMARK    3  A    between atoms: C_3  and  N_4 
REMARK       I    between atoms: N_10  and  C_11 
REMARK    4  A    between atoms: C_11  and  C_13 
REMARK    5  A    between atoms: C_13  and  N_15 
ROOT
HETATM    1  N   UNL     1     -39.600 -51.293  12.012  1.00  0.00    -0.353 N 
HETATM    2  C   UNL     1     -40.495 -51.818  12.920  1.00  0.00     0.242 C 
HETATM    3  O   UNL     1     -40.984 -51.146  13.825  1.00  0.00    -0.271 OA
HETATM    4  H   UNL     1     -39.341 -51.843  11.199  1.00  0.00     0.163 HD
ENDROOT
BRANCH   1   5
HETATM    5  C   UNL     1     -39.178 -49.888  12.066  1.00  0.00     0.108 C 
HETATM    6  C   UNL     1     -37.762 -49.782  11.499  1.00  0.00     0.034 C 
BRANCH   5   7
HETATM    7  C   UNL     1     -40.197 -48.968  11.326  1.00  0.00     0.297 C 
BRANCH   7   8
HETATM    8  N   UNL     1     -40.938 -48.014  12.176  1.00  0.00     0.094 N 
HETATM    9  C   UNL     1     -42.391 -48.282  12.241  1.00  0.00     0.298 C 
HETATM   10  C   UNL     1     -43.200 -47.834  11.006  1.00  0.00     0.198 C 
HETATM   11  O   UNL     1     -42.950 -46.465  10.670  1.00  0.00    -0.388 OA
HETATM   12  C   UNL     1     -41.551 -46.245  10.461  1.00  0.00     0.198 C 
HETATM   13  C   UNL     1     -40.747 -46.616  11.717  1.00  0.00     0.298 C 
ENDBRANCH   7   8
ENDBRANCH   5   7
ENDBRANCH   1   5
BRANCH   2  14
HETATM   14  C   UNL     1     -40.830 -53.293  12.711  1.00  0.00     0.195 C 
HETATM   15  C   UNL     1     -40.015 -54.187  13.641  1.00  0.00     0.044 C 
BRANCH  14  16
HETATM   16  N   UNL     1     -42.260 -53.509  12.882  1.00  0.00    -0.290 N 
HETATM   17  C   UNL     1     -42.881 -54.296  13.812  1.00  0.00     0.112 A 
HETATM   18  C   UNL     1     -44.224 -54.235  13.533  1.00  0.00     0.037 A 
HETATM   19  C   UNL     1     -44.318 -53.379  12.421  1.00  0.00     0.108 A 
HETATM   20  N   UNL     1     -43.127 -52.921  12.029  1.00  0.00    -0.309 N 
ATOM     21  HN  UNL     1     -42.920 -52.277  11.264  1.00  0.00     0.186 HD
ENDBRANCH  14  16
ENDBRANCH   2  14
TORSDOF 5
ENDMDL
MODEL 5
REMARK VINA RESULT:      -5.3      2.832      6.265
REMARK  5 active torsions:
REMARK  status: ('A' for Active; 'I' for Inactive)
REMARK    1  A    between atoms: C_2  and  C_3 
REMARK    2  A    between atoms: C_2  and  N_10 
REMARK    3  A    between atoms: C_3  and  N_4 
REMARK       I    between atoms: N_10  and  C_11 
REMARK    4  A    between atoms: C_11  and  C_13 
REMARK    5  A    between atoms: C_13  and  N_15 
ROOT
HETATM    1  N   UNL     1     -42.650 -50.771  12.009  1.00  0.00    -0.353 N 
HETATM    2  C   UNL     1     -42.809 -51.658  13.053  1.00  0.00     0.242 C 
HETATM    3  O   UNL     1     -42.198 -51.542  14.113  1.00  0.00    -0.271 OA
HETATM    4  H   UNL     1     -43.283 -50.823  11.217  1.00  0.00     0.163 HD
ENDROOT
BRANCH   1   5
HETATM    5  C   UNL     1     -41.743 -49.622  12.101  1.00  0.00     0.108 C 
HETATM    6  C   UNL     1     -40.458 -49.951  11.340  1.00  0.00     0.034 C 
BRANCH   5   7
HETATM    7  C   UNL     1     -42.433 -48.320  11.589  1.00  0.00     0.297 C 
BRANCH   7   8
HETATM    8  N   UNL     1     -41.867 -47.731  10.360  1.00  0.00     0.094 N 
HETATM    9  C   UNL     1     -41.336 -46.364  10.546  1.00  0.00     0.298 C 
HETATM   10  C   UNL     1     -42.398 -45.247  10.611  1.00  0.00     0.198 C 
HETATM   11  O   UNL     1     -43.295 -45.296   9.495  1.00  0.00    -0.388 OA
HETATM   12  C   UNL     1     -43.921 -46.580   9.409  1.00  0.00     0.198 C 
HETATM   13  C   UNL     1     -42.869 -47.691   9.266  1.00  0.00     0.298 C 
ENDBRANCH   7   8
ENDBRANCH   5   7
ENDBRANCH   1   5
BRANCH   2  14
HETATM   14  C   UNL     1     -43.799 -52.789  12.789  1.00  0.00     0.195 C 
HETATM   15  C   UNL     1     -43.235 -54.138  13.227  1.00  0.00     0.044 C 
BRANCH  14  16
HETATM   16  N   UNL     1     -45.068 -52.504  13.444  1.00  0.00    -0.290 N 
HETATM   17  C   UNL     1     -45.527 -51.294  13.885  1.00  0.00     0.112 A 
HETATM   18  C   UNL     1     -46.734 -51.539  14.493  1.00  0.00     0.037 A 
HETATM   19  C   UNL     1     -46.923 -52.926  14.364  1.00  0.00     0.108 A 
HETATM   20  N   UNL     1     -45.919 -53.519  13.712  1.00  0.00    -0.309 N 
ATOM     21  HN  UNL     1     -45.819 -54.505  13.472  1.00  0.00     0.186 HD
ENDBRANCH  14  16
ENDBRANCH   2  14
TORSDOF 5
ENDMDL
MODEL 6
REMARK VINA RESULT:      -5.2      2.437      3.907
REMARK  5 active torsions:
REMARK  status: ('A' for Active; 'I' for Inactive)
REMARK    1  A    between atoms: C_2  and  C_3 
REMARK    2  A    between atoms: C_2  and  N_10 
REMARK    3  A    between atoms: C_3  and  N_4 
REMARK       I    between atoms: N_10  and  C_11 
REMARK    4  A    between atoms: C_11  and  C_13 
REMARK    5  A    between atoms: C_13  and  N_15 
ROOT
HETATM    1  N   UNL     1     -43.213 -49.765  12.202  1.00  0.00    -0.353 N 
HETATM    2  C   UNL     1     -42.785 -48.456  12.126  1.00  0.00     0.242 C 
HETATM    3  O   UNL     1     -42.537 -47.787  13.127  1.00  0.00    -0.271 OA
HETATM    4  H   UNL     1     -43.261 -50.318  11.352  1.00  0.00     0.163 HD
ENDROOT
BRANCH   1   5
HETATM    5  C   UNL     1     -43.392 -50.447  13.488  1.00  0.00     0.108 C 
HETATM    6  C   UNL     1     -44.687 -51.259  13.434  1.00  0.00     0.034 C 
BRANCH   5   7
HETATM    7  C   UNL     1     -42.146 -51.317  13.841  1.00  0.00     0.297 C 
BRANCH   7   8
HETATM    8  N   UNL     1     -41.297 -51.718  12.701  1.00  0.00     0.094 N 
HETATM    9  C   UNL     1     -41.225 -53.181  12.500  1.00  0.00     0.298 C 
HETATM   10  C   UNL     1     -40.299 -53.936  13.476  1.00  0.00     0.198 C 
HETATM   11  O   UNL     1     -38.987 -53.363  13.519  1.00  0.00    -0.388 OA
HETATM   12  C   UNL     1     -39.054 -51.976  13.862  1.00  0.00     0.198 C 
HETATM   13  C   UNL     1     -39.913 -51.204  12.848  1.00  0.00     0.298 C 
ENDBRANCH   7   8
ENDBRANCH   5   7
ENDBRANCH   1   5
BRANCH   2  14
HETATM   14  C   UNL     1     -42.644 -47.907  10.709  1.00  0.00     0.195 C 
HETATM   15  C   UNL     1     -43.996 -47.494  10.134  1.00  0.00     0.044 C 
BRANCH  14  16
HETATM   16  N   UNL     1     -41.698 -46.801  10.695  1.00  0.00    -0.290 N 
HETATM   17  C   UNL     1     -41.976 -45.464  10.607  1.00  0.00     0.112 A 
HETATM   18  C   UNL     1     -40.763 -44.821  10.560  1.00  0.00     0.037 A 
HETATM   19  C   UNL     1     -39.810 -45.853  10.631  1.00  0.00     0.108 A 
HETATM   20  N   UNL     1     -40.372 -47.060  10.729  1.00  0.00    -0.309 N 
ATOM     21  HN  UNL     1     -39.909 -47.966  10.811  1.00  0.00     0.186 HD
ENDBRANCH  14  16
ENDBRANCH   2  14
TORSDOF 5
ENDMDL
MODEL 7
REMARK VINA RESULT:      -5.2      3.661      5.528
REMARK  5 active torsions:
REMARK  status: ('A' for Active; 'I' for Inactive)
REMARK    1  A    between atoms: C_2  and  C_3 
REMARK    2  A    between atoms: C_2  and  N_10 
REMARK    3  A    between atoms: C_3  and  N_4 
REMARK       I    between atoms: N_10  and  C_11 
REMARK    4  A    between atoms: C_11  and  C_13 
REMARK    5  A    between atoms: C_13  and  N_15 
ROOT
HETATM    1  N   UNL     1     -40.499 -50.928  14.048  1.00  0.00    -0.353 N 
HETATM    2  C   UNL     1     -39.795 -51.029  12.867  1.00  0.00     0.242 C 
HETATM    3  O   UNL     1     -39.778 -52.061  12.199  1.00  0.00    -0.271 OA
HETATM    4  H   UNL     1     -40.604 -50.017  14.484  1.00  0.00     0.163 HD
ENDROOT
BRANCH   1   5
HETATM    5  C   UNL     1     -41.280 -52.049  14.582  1.00  0.00     0.108 C 
HETATM    6  C   UNL     1     -40.763 -52.383  15.981  1.00  0.00     0.034 C 
BRANCH   5   7
HETATM    7  C   UNL     1     -42.807 -51.729  14.561  1.00  0.00     0.297 C 
BRANCH   7   8
HETATM    8  N   UNL     1     -43.419 -51.598  13.224  1.00  0.00     0.094 N 
HETATM    9  C   UNL     1     -44.870 -51.312  13.261  1.00  0.00     0.298 C 
HETATM   10  C   UNL     1     -45.773 -52.524  13.573  1.00  0.00     0.198 C 
HETATM   11  O   UNL     1     -45.494 -53.634  12.712  1.00  0.00    -0.388 OA
HETATM   12  C   UNL     1     -44.114 -54.002  12.795  1.00  0.00     0.198 C 
HETATM   13  C   UNL     1     -43.210 -52.820  12.409  1.00  0.00     0.298 C 
ENDBRANCH   7   8
ENDBRANCH   5   7
ENDBRANCH   1   5
BRANCH   2  14
HETATM   14  C   UNL     1     -39.045 -49.765  12.456  1.00  0.00     0.195 C 
HETATM   15  C   UNL     1     -37.785 -50.097  11.662  1.00  0.00     0.044 C 
BRANCH  14  16
HETATM   16  N   UNL     1     -39.929 -48.882  11.707  1.00  0.00    -0.290 N 
HETATM   17  C   UNL     1     -40.024 -47.521  11.800  1.00  0.00     0.112 A 
HETATM   18  C   UNL     1     -41.039 -47.148  10.953  1.00  0.00     0.037 A 
HETATM   19  C   UNL     1     -41.493 -48.353  10.388  1.00  0.00     0.108 A 
HETATM   20  N   UNL     1     -40.811 -49.412  10.831  1.00  0.00    -0.309 N 
ATOM     21  HN  UNL     1     -40.928 -50.391  10.569  1.00  0.00     0.186 HD
ENDBRANCH  14  16
ENDBRANCH   2  14
TORSDOF 5
ENDMDL
MODEL 8
REMARK VINA RESULT:      -5.1      4.904      6.972
REMARK  5 active torsions:
REMARK  status: ('A' for Active; 'I' for Inactive)
REMARK    1  A    between atoms: C_2  and  C_3 
REMARK    2  A    between atoms: C_2  and  N_10 
REMARK    3  A    between atoms: C_3  and  N_4 
REMARK       I    between atoms: N_10  and  C_11 
REMARK    4  A    between atoms: C_11  and  C_13 
REMARK    5  A    between atoms: C_13  and  N_15 
ROOT
HETATM    1  N   UNL     1     -41.289 -52.678  13.971  1.00  0.00    -0.353 N 
HETATM    2  C   UNL     1     -40.914 -52.348  12.685  1.00  0.00     0.242 C 
HETATM    3  O   UNL     1     -40.552 -53.193  11.870  1.00  0.00    -0.271 OA
HETATM    4  H   UNL     1     -41.719 -51.968  14.556  1.00  0.00     0.163 HD
ENDROOT
BRANCH   1   5
HETATM    5  C   UNL     1     -41.286 -54.066  14.446  1.00  0.00     0.108 C 
HETATM    6  C   UNL     1     -40.379 -54.160  15.673  1.00  0.00     0.034 C 
BRANCH   5   7
HETATM    7  C   UNL     1     -42.738 -54.565  14.725  1.00  0.00     0.297 C 
BRANCH   7   8
HETATM    8  N   UNL     1     -43.824 -53.667  14.287  1.00  0.00     0.094 N 
HETATM    9  C   UNL     1     -44.673 -53.178  15.395  1.00  0.00     0.298 C 
HETATM   10  C   UNL     1     -45.706 -54.191  15.930  1.00  0.00     0.198 C 
HETATM   11  O   UNL     1     -46.508 -54.743  14.879  1.00  0.00    -0.388 OA
HETATM   12  C   UNL     1     -45.681 -55.349  13.880  1.00  0.00     0.198 C 
HETATM   13  C   UNL     1     -44.702 -54.323  13.287  1.00  0.00     0.298 C 
ENDBRANCH   7   8
ENDBRANCH   5   7
ENDBRANCH   1   5
BRANCH   2  14
HETATM   14  C   UNL     1     -40.985 -50.859  12.358  1.00  0.00     0.195 C 
HETATM   15  C   UNL     1     -41.944 -50.127  13.292  1.00  0.00     0.044 C 
BRANCH  14  16
HETATM   16  N   UNL     1     -39.651 -50.275  12.399  1.00  0.00    -0.290 N 
HETATM   17  C   UNL     1     -39.156 -49.386  13.313  1.00  0.00     0.112 A 
HETATM   18  C   UNL     1     -37.885 -49.075  12.898  1.00  0.00     0.037 A 
HETATM   19  C   UNL     1     -37.698 -49.831  11.727  1.00  0.00     0.108 A 
HETATM   20  N   UNL     1     -38.764 -50.577  11.426  1.00  0.00    -0.309 N 
ATOM     21  HN  UNL     1     -38.881 -51.222  10.645  1.00  0.00     0.186 HD
ENDBRANCH  14  16
ENDBRANCH   2  14
TORSDOF 5
ENDMDL
MODEL 9
REMARK VINA RESULT:      -4.8      2.476      4.191
REMARK  5 active torsions:
REMARK  status: ('A' for Active; 'I' for Inactive)
REMARK    1  A    between atoms: C_2  and  C_3 
REMARK    2  A    between atoms: C_2  and  N_10 
REMARK    3  A    between atoms: C_3  and  N_4 
REMARK       I    between atoms: N_10  and  C_11 
REMARK    4  A    between atoms: C_11  and  C_13 
REMARK    5  A    between atoms: C_13  and  N_15 
ROOT
HETATM    1  N   UNL     1     -39.669 -49.792  13.047  1.00  0.00    -0.353 N 
HETATM    2  C   UNL     1     -40.351 -49.205  12.002  1.00  0.00     0.242 C 
HETATM    3  O   UNL     1     -40.428 -49.727  10.892  1.00  0.00    -0.271 OA
HETATM    4  H   UNL     1     -39.759 -49.398  13.978  1.00  0.00     0.163 HD
ENDROOT
BRANCH   1   5
HETATM    5  C   UNL     1     -38.994 -51.087  12.901  1.00  0.00     0.108 C 
HETATM    6  C   UNL     1     -37.486 -50.868  13.019  1.00  0.00     0.034 C 
BRANCH   5   7
HETATM    7  C   UNL     1     -39.539 -52.122  13.932  1.00  0.00     0.297 C 
BRANCH   7   8
HETATM    8  N   UNL     1     -40.212 -53.306  13.362  1.00  0.00     0.094 N 
HETATM    9  C   UNL     1     -41.044 -53.003  12.177  1.00  0.00     0.298 C 
HETATM   10  C   UNL     1     -42.409 -52.353  12.480  1.00  0.00     0.198 C 
HETATM   11  O   UNL     1     -43.155 -53.100  13.447  1.00  0.00    -0.388 OA
HETATM   12  C   UNL     1     -42.399 -53.261  14.651  1.00  0.00     0.198 C 
HETATM   13  C   UNL     1     -41.070 -53.980  14.368  1.00  0.00     0.298 C 
ENDBRANCH   7   8
ENDBRANCH   5   7
ENDBRANCH   1   5
BRANCH   2  14
HETATM   14  C   UNL     1     -41.000 -47.864  12.331  1.00  0.00     0.195 C 
HETATM   15  C   UNL     1     -39.953 -46.792  12.616  1.00  0.00     0.044 C 
BRANCH  14  16
HETATM   16  N   UNL     1     -41.893 -47.464  11.253  1.00  0.00    -0.290 N 
HETATM   17  C   UNL     1     -41.787 -46.366  10.444  1.00  0.00     0.112 A 
HETATM   18  C   UNL     1     -42.894 -46.377   9.632  1.00  0.00     0.037 A 
HETATM   19  C   UNL     1     -43.608 -47.525  10.020  1.00  0.00     0.108 A 
HETATM   20  N   UNL     1     -42.997 -48.200  10.996  1.00  0.00    -0.309 N 
ATOM     21  HN  UNL     1     -43.293 -49.068  11.443  1.00  0.00     0.186 HD
ENDBRANCH  14  16
ENDBRANCH   2  14
TORSDOF 5
ENDMDL
