MODEL 1
REMARK VINA RESULT:      -5.8      0.000      0.000
REMARK  4 active torsions:
REMARK  status: ('A' for Active; 'I' for Inactive)
REMARK    1  A    between atoms: C_2  and  C_3 
REMARK    2  A    between atoms: C_3  and  C_4 
REMARK    3  A    between atoms: C_4  and  N_5 
REMARK       I    between atoms: N_5  and  C_6 
REMARK       I    between atoms: C_6  and  N_8 
REMARK    4  A    between atoms: N_8  and  C_9 
ROOT
HETATM    1  N   UNL     1     -40.463 -49.516  10.610  1.00  0.00    -0.342 N 
HETATM    2  C   UNL     1     -41.596 -48.729  10.675  1.00  0.00     0.320 C 
HETATM    3  O   UNL     1     -42.121 -48.484  11.758  1.00  0.00    -0.247 OA
HETATM    4  N   UNL     1     -42.041 -48.266   9.468  1.00  0.00    -0.306 N 
HETATM    5  H   UNL     1     -40.193 -49.953   9.745  1.00  0.00     0.164 HD
HETATM    6  H   UNL     1     -41.707 -48.719   8.629  1.00  0.00     0.171 HD
ENDROOT
BRANCH   1   7
HETATM    7  C   UNL     1     -40.052 -50.079  11.876  1.00  0.00     0.133 C 
BRANCH   7   8
HETATM    8  C   UNL     1     -38.657 -49.790  12.375  1.00  0.00    -0.025 A 
HETATM    9  C   UNL     1     -37.602 -50.880  12.363  1.00  0.00     0.012 A 
HETATM   10  C   UNL     1     -37.481 -49.711  11.423  1.00  0.00     0.012 A 
BRANCH   8  11
HETATM   11  C   UNL     1     -38.655 -48.853  13.582  1.00  0.00     0.006 C 
HETATM   12  C   UNL     1     -39.099 -47.436  13.236  1.00  0.00     0.006 C 
ENDBRANCH   8  11
ENDBRANCH   7   8
ENDBRANCH   1   7
BRANCH   4  13
HETATM   13  C   UNL     1     -43.156 -47.394   9.320  1.00  0.00     0.077 A 
HETATM   14  C   UNL     1     -44.452 -47.844   9.054  1.00  0.00     0.050 A 
HETATM   15  C   UNL     1     -45.466 -46.916   8.864  1.00  0.00     0.090 A 
HETATM   16  N   UNL     1     -45.284 -45.583   8.945  1.00  0.00    -0.372 N 
HETATM   17  C   UNL     1     -44.029 -45.166   9.238  1.00  0.00     0.132 A 
ATOM     18  HN  UNL     1     -46.048 -44.924   8.793  1.00  0.00     0.164 HD
HETATM   19  C   UNL     1     -42.957 -46.022   9.439  1.00  0.00     0.158 A 
HETATM   20  F   UNL     1     -41.740 -45.529   9.717  1.00  0.00    -0.202 F 
ENDBRANCH   4  13
TORSDOF 4
ENDMDL
MODEL 2
REMARK VINA RESULT:      -5.6      4.088      5.527
REMARK  4 active torsions:
REMARK  status: ('A' for Active; 'I' for Inactive)
REMARK    1  A    between atoms: C_2  and  C_3 
REMARK    2  A    between atoms: C_3  and  C_4 
REMARK    3  A    between atoms: C_4  and  N_5 
REMARK       I    between atoms: N_5  and  C_6 
REMARK       I    between atoms: C_6  and  N_8 
REMARK    4  A    between atoms: N_8  and  C_9 
ROOT
HETATM    1  N   UNL     1     -43.358 -50.983  12.857  1.00  0.00    -0.342 N 
HETATM    2  C   UNL     1     -43.007 -49.670  12.607  1.00  0.00     0.320 C 
HETATM    3  O   UNL     1     -43.275 -48.790  13.420  1.00  0.00    -0.247 OA
HETATM    4  N   UNL     1     -42.352 -49.469  11.423  1.00  0.00    -0.306 N 
HETATM    5  H   UNL     1     -43.406 -51.651  12.106  1.00  0.00     0.164 HD
HETATM    6  H   UNL     1     -42.404 -50.191  10.719  1.00  0.00     0.171 HD
ENDROOT
BRANCH   1   7
HETATM    7  C   UNL     1     -44.131 -51.177  14.063  1.00  0.00     0.133 C 
BRANCH   7   8
HETATM    8  C   UNL     1     -45.412 -51.972  13.978  1.00  0.00    -0.025 A 
HETATM    9  C   UNL     1     -46.725 -51.350  14.417  1.00  0.00     0.012 A 
HETATM   10  C   UNL     1     -46.481 -51.635  12.960  1.00  0.00     0.012 A 
BRANCH   8  11
HETATM   11  C   UNL     1     -45.205 -53.444  14.328  1.00  0.00     0.006 C 
HETATM   12  C   UNL     1     -44.707 -54.272  13.148  1.00  0.00     0.006 C 
ENDBRANCH   8  11
ENDBRANCH   7   8
ENDBRANCH   1   7
BRANCH   4  13
HETATM   13  C   UNL     1     -41.854 -48.203  11.004  1.00  0.00     0.077 A 
HETATM   14  C   UNL     1     -40.580 -47.733  11.332  1.00  0.00     0.050 A 
HETATM   15  C   UNL     1     -40.204 -46.459  10.931  1.00  0.00     0.090 A 
HETATM   16  N   UNL     1     -40.994 -45.639  10.210  1.00  0.00    -0.372 N 
HETATM   17  C   UNL     1     -42.212 -46.124   9.872  1.00  0.00     0.132 A 
ATOM     18  HN  UNL     1     -40.692 -44.703   9.936  1.00  0.00     0.164 HD
HETATM   19  C   UNL     1     -42.671 -47.382  10.233  1.00  0.00     0.158 A 
HETATM   20  F   UNL     1     -43.897 -47.786   9.865  1.00  0.00    -0.202 F 
ENDBRANCH   4  13
TORSDOF 4
ENDMDL
MODEL 3
REMARK VINA RESULT:      -5.5      5.009      6.053
REMARK  4 active torsions:
REMARK  status: ('A' for Active; 'I' for Inactive)
REMARK    1  A    between atoms: C_2  and  C_3 
REMARK    2  A    between atoms: C_3  and  C_4 
REMARK    3  A    between atoms: C_4  and  N_5 
REMARK       I    between atoms: N_5  and  C_6 
REMARK       I    between atoms: C_6  and  N_8 
REMARK    4  A    between atoms: N_8  and  C_9 
ROOT
HETATM    1  N   UNL     1     -40.883 -51.671  11.618  1.00  0.00    -0.342 N 
HETATM    2  C   UNL     1     -42.022 -51.831  12.382  1.00  0.00     0.320 C 
HETATM    3  O   UNL     1     -42.240 -51.089  13.336  1.00  0.00    -0.247 OA
HETATM    4  N   UNL     1     -42.846 -52.845  11.976  1.00  0.00    -0.306 N 
HETATM    5  H   UNL     1     -40.551 -52.419  11.032  1.00  0.00     0.164 HD
HETATM    6  H   UNL     1     -42.468 -53.548  11.357  1.00  0.00     0.171 HD
ENDROOT
BRANCH   1   7
HETATM    7  C   UNL     1     -39.971 -50.661  12.106  1.00  0.00     0.133 C 
BRANCH   7   8
HETATM    8  C   UNL     1     -38.816 -51.092  12.976  1.00  0.00    -0.025 A 
HETATM    9  C   UNL     1     -38.870 -50.874  14.477  1.00  0.00     0.012 A 
HETATM   10  C   UNL     1     -38.939 -52.270  13.919  1.00  0.00     0.012 A 
BRANCH   8  11
HETATM   11  C   UNL     1     -37.464 -50.861  12.302  1.00  0.00     0.006 C 
HETATM   12  C   UNL     1     -37.528 -49.836  11.175  1.00  0.00     0.006 C 
ENDBRANCH   8  11
ENDBRANCH   7   8
ENDBRANCH   1   7
BRANCH   4  13
HETATM   13  C   UNL     1     -44.095 -53.139  12.591  1.00  0.00     0.077 A 
HETATM   14  C   UNL     1     -45.275 -52.450  12.299  1.00  0.00     0.050 A 
HETATM   15  C   UNL     1     -46.434 -52.765  12.994  1.00  0.00     0.090 A 
HETATM   16  N   UNL     1     -46.502 -53.728  13.935  1.00  0.00    -0.372 N 
HETATM   17  C   UNL     1     -45.358 -54.409  14.180  1.00  0.00     0.132 A 
ATOM     18  HN  UNL     1     -47.368 -53.932  14.435  1.00  0.00     0.164 HD
HETATM   19  C   UNL     1     -44.156 -54.158  13.536  1.00  0.00     0.158 A 
HETATM   20  F   UNL     1     -43.062 -54.872  13.844  1.00  0.00    -0.202 F 
ENDBRANCH   4  13
TORSDOF 4
ENDMDL
MODEL 4
REMARK VINA RESULT:      -5.4      5.044      7.168
REMARK  4 active torsions:
REMARK  status: ('A' for Active; 'I' for Inactive)
REMARK    1  A    between atoms: C_2  and  C_3 
REMARK    2  A    between atoms: C_3  and  C_4 
REMARK    3  A    between atoms: C_4  and  N_5 
REMARK       I    between atoms: N_5  and  C_6 
REMARK       I    between atoms: C_6  and  N_8 
REMARK    4  A    between atoms: N_8  and  C_9 
ROOT
HETATM    1  N   UNL     1     -43.650 -53.122  12.009  1.00  0.00    -0.342 N 
HETATM    2  C   UNL     1     -42.792 -52.108  12.388  1.00  0.00     0.320 C 
HETATM    3  O   UNL     1     -43.151 -51.262  13.203  1.00  0.00    -0.247 OA
HETATM    4  N   UNL     1     -41.559 -52.152  11.799  1.00  0.00    -0.306 N 
HETATM    5  H   UNL     1     -43.489 -53.638  11.161  1.00  0.00     0.164 HD
HETATM    6  H   UNL     1     -41.445 -52.718  10.969  1.00  0.00     0.171 HD
ENDROOT
BRANCH   1   7
HETATM    7  C   UNL     1     -44.981 -53.018  12.562  1.00  0.00     0.133 C 
BRANCH   7   8
HETATM    8  C   UNL     1     -45.302 -53.788  13.820  1.00  0.00    -0.025 A 
HETATM    9  C   UNL     1     -45.486 -55.293  13.765  1.00  0.00     0.012 A 
HETATM   10  C   UNL     1     -44.285 -54.710  14.459  1.00  0.00     0.012 A 
BRANCH   8  11
HETATM   11  C   UNL     1     -46.244 -53.020  14.746  1.00  0.00     0.006 C 
HETATM   12  C   UNL     1     -46.491 -51.587  14.288  1.00  0.00     0.006 C 
ENDBRANCH   8  11
ENDBRANCH   7   8
ENDBRANCH   1   7
BRANCH   4  13
HETATM   13  C   UNL     1     -40.511 -51.236  12.095  1.00  0.00     0.077 A 
HETATM   14  C   UNL     1     -40.377 -49.994  11.468  1.00  0.00     0.050 A 
HETATM   15  C   UNL     1     -39.287 -49.193  11.777  1.00  0.00     0.090 A 
HETATM   16  N   UNL     1     -38.341 -49.532  12.677  1.00  0.00    -0.372 N 
HETATM   17  C   UNL     1     -38.506 -50.723  13.299  1.00  0.00     0.132 A 
ATOM     18  HN  UNL     1     -37.546 -48.925  12.878  1.00  0.00     0.164 HD
HETATM   19  C   UNL     1     -39.561 -51.587  13.050  1.00  0.00     0.158 A 
HETATM   20  F   UNL     1     -39.647 -52.756  13.703  1.00  0.00    -0.202 F 
ENDBRANCH   4  13
TORSDOF 4
ENDMDL
MODEL 5
REMARK VINA RESULT:      -5.3      4.812      5.960
REMARK  4 active torsions:
REMARK  status: ('A' for Active; 'I' for Inactive)
REMARK    1  A    between atoms: C_2  and  C_3 
REMARK    2  A    between atoms: C_3  and  C_4 
REMARK    3  A    between atoms: C_4  and  N_5 
REMARK       I    between atoms: N_5  and  C_6 
REMARK       I    between atoms: C_6  and  N_8 
REMARK    4  A    between atoms: N_8  and  C_9 
ROOT
HETATM    1  N   UNL     1     -40.913 -51.316  11.391  1.00  0.00    -0.342 N 
HETATM    2  C   UNL     1     -42.000 -51.583  12.200  1.00  0.00     0.320 C 
HETATM    3  O   UNL     1     -42.291 -50.822  13.119  1.00  0.00    -0.247 OA
HETATM    4  N   UNL     1     -42.688 -52.719  11.877  1.00  0.00    -0.306 N 
HETATM    5  H   UNL     1     -40.497 -52.045  10.835  1.00  0.00     0.164 HD
HETATM    6  H   UNL     1     -42.235 -53.400  11.285  1.00  0.00     0.171 HD
ENDROOT
BRANCH   1   7
HETATM    7  C   UNL     1     -40.134 -50.166  11.793  1.00  0.00     0.133 C 
BRANCH   7   8
HETATM    8  C   UNL     1     -38.757 -50.393  12.367  1.00  0.00    -0.025 A 
HETATM    9  C   UNL     1     -37.528 -50.195  11.499  1.00  0.00     0.012 A 
HETATM   10  C   UNL     1     -37.812 -49.237  12.625  1.00  0.00     0.012 A 
BRANCH   8  11
HETATM   11  C   UNL     1     -38.721 -51.569  13.342  1.00  0.00     0.006 C 
HETATM   12  C   UNL     1     -39.127 -51.180  14.759  1.00  0.00     0.006 C 
ENDBRANCH   8  11
ENDBRANCH   7   8
ENDBRANCH   1   7
BRANCH   4  13
HETATM   13  C   UNL     1     -43.870 -53.142  12.548  1.00  0.00     0.077 A 
HETATM   14  C   UNL     1     -45.125 -52.569  12.327  1.00  0.00     0.050 A 
HETATM   15  C   UNL     1     -46.210 -53.005  13.074  1.00  0.00     0.090 A 
HETATM   16  N   UNL     1     -46.136 -53.981  14.001  1.00  0.00    -0.372 N 
HETATM   17  C   UNL     1     -44.919 -54.549  14.177  1.00  0.00     0.132 A 
ATOM     18  HN  UNL     1     -46.950 -54.276  14.540  1.00  0.00     0.164 HD
HETATM   19  C   UNL     1     -43.782 -54.174  13.478  1.00  0.00     0.158 A 
HETATM   20  F   UNL     1     -42.609 -54.780  13.719  1.00  0.00    -0.202 F 
ENDBRANCH   4  13
TORSDOF 4
ENDMDL
MODEL 6
REMARK VINA RESULT:      -5.3      4.594      6.288
REMARK  4 active torsions:
REMARK  status: ('A' for Active; 'I' for Inactive)
REMARK    1  A    between atoms: C_2  and  C_3 
REMARK    2  A    between atoms: C_3  and  C_4 
REMARK    3  A    between atoms: C_4  and  N_5 
REMARK       I    between atoms: N_5  and  C_6 
REMARK       I    between atoms: C_6  and  N_8 
REMARK    4  A    between atoms: N_8  and  C_9 
ROOT
HETATM    1  N   UNL     1     -43.471 -52.099  12.920  1.00  0.00    -0.342 N 
HETATM    2  C   UNL     1     -42.868 -50.856  12.908  1.00  0.00     0.320 C 
HETATM    3  O   UNL     1     -42.957 -50.113  13.882  1.00  0.00    -0.247 OA
HETATM    4  N   UNL     1     -42.185 -50.562  11.760  1.00  0.00    -0.306 N 
HETATM    5  H   UNL     1     -43.650 -52.589  12.060  1.00  0.00     0.164 HD
HETATM    6  H   UNL     1     -42.378 -51.113  10.936  1.00  0.00     0.171 HD
ENDROOT
BRANCH   1   7
HETATM    7  C   UNL     1     -44.268 -52.366  14.096  1.00  0.00     0.133 C 
BRANCH   7   8
HETATM    8  C   UNL     1     -45.763 -52.501  13.939  1.00  0.00    -0.025 A 
HETATM    9  C   UNL     1     -46.675 -51.346  14.310  1.00  0.00     0.012 A 
HETATM   10  C   UNL     1     -46.513 -51.738  12.866  1.00  0.00     0.012 A 
BRANCH   8  11
HETATM   11  C   UNL     1     -46.260 -53.902  14.291  1.00  0.00     0.006 C 
HETATM   12  C   UNL     1     -45.341 -55.005  13.779  1.00  0.00     0.006 C 
ENDBRANCH   8  11
ENDBRANCH   7   8
ENDBRANCH   1   7
BRANCH   4  13
HETATM   13  C   UNL     1     -41.447 -49.361  11.568  1.00  0.00     0.077 A 
HETATM   14  C   UNL     1     -41.980 -48.222  10.958  1.00  0.00     0.050 A 
HETATM   15  C   UNL     1     -41.166 -47.117  10.758  1.00  0.00     0.090 A 
HETATM   16  N   UNL     1     -39.874 -47.061  11.140  1.00  0.00    -0.372 N 
HETATM   17  C   UNL     1     -39.384 -48.160  11.760  1.00  0.00     0.132 A 
ATOM     18  HN  UNL     1     -39.298 -46.236  10.972  1.00  0.00     0.164 HD
HETATM   19  C   UNL     1     -40.125 -49.308  11.999  1.00  0.00     0.158 A 
HETATM   20  F   UNL     1     -39.562 -50.361  12.611  1.00  0.00    -0.202 F 
ENDBRANCH   4  13
TORSDOF 4
ENDMDL
MODEL 7
REMARK VINA RESULT:      -5.2      5.058      6.139
REMARK  4 active torsions:
REMARK  status: ('A' for Active; 'I' for Inactive)
REMARK    1  A    between atoms: C_2  and  C_3 
REMARK    2  A    between atoms: C_3  and  C_4 
REMARK    3  A    between atoms: C_4  and  N_5 
REMARK       I    between atoms: N_5  and  C_6 
REMARK       I    between atoms: C_6  and  N_8 
REMARK    4  A    between atoms: N_8  and  C_9 
ROOT
HETATM    1  N   UNL     1     -41.739 -51.490  11.663  1.00  0.00    -0.342 N 
HETATM    2  C   UNL     1     -42.538 -52.095  12.614  1.00  0.00     0.320 C 
HETATM    3  O   UNL     1     -42.182 -52.139  13.788  1.00  0.00    -0.247 OA
HETATM    4  N   UNL     1     -43.714 -52.603  12.134  1.00  0.00    -0.306 N 
HETATM    5  H   UNL     1     -41.869 -51.688  10.685  1.00  0.00     0.164 HD
HETATM    6  H   UNL     1     -43.802 -52.746  11.138  1.00  0.00     0.171 HD
ENDROOT
BRANCH   1   7
HETATM    7  C   UNL     1     -40.458 -51.039  12.157  1.00  0.00     0.133 C 
BRANCH   7   8
HETATM    8  C   UNL     1     -40.193 -49.554  12.223  1.00  0.00    -0.025 A 
HETATM    9  C   UNL     1     -39.218 -49.000  13.245  1.00  0.00     0.012 A 
HETATM   10  C   UNL     1     -38.866 -48.972  11.783  1.00  0.00     0.012 A 
BRANCH   8  11
HETATM   11  C   UNL     1     -41.451 -48.728  11.963  1.00  0.00     0.006 C 
HETATM   12  C   UNL     1     -41.507 -48.158  10.550  1.00  0.00     0.006 C 
ENDBRANCH   8  11
ENDBRANCH   7   8
ENDBRANCH   1   7
BRANCH   4  13
HETATM   13  C   UNL     1     -44.702 -53.214  12.956  1.00  0.00     0.077 A 
HETATM   14  C   UNL     1     -44.708 -54.576  13.265  1.00  0.00     0.050 A 
HETATM   15  C   UNL     1     -45.748 -55.095  14.024  1.00  0.00     0.090 A 
HETATM   16  N   UNL     1     -46.761 -54.350  14.512  1.00  0.00    -0.372 N 
HETATM   17  C   UNL     1     -46.720 -53.026  14.232  1.00  0.00     0.132 A 
ATOM     18  HN  UNL     1     -47.516 -54.761  15.061  1.00  0.00     0.164 HD
HETATM   19  C   UNL     1     -45.722 -52.425  13.479  1.00  0.00     0.158 A 
HETATM   20  F   UNL     1     -45.760 -51.105  13.238  1.00  0.00    -0.202 F 
ENDBRANCH   4  13
TORSDOF 4
ENDMDL
MODEL 8
REMARK VINA RESULT:      -4.9      3.276      4.314
REMARK  4 active torsions:
REMARK  status: ('A' for Active; 'I' for Inactive)
REMARK    1  A    between atoms: C_2  and  C_3 
REMARK    2  A    between atoms: C_3  and  C_4 
REMARK    3  A    between atoms: C_4  and  N_5 
REMARK       I    between atoms: N_5  and  C_6 
REMARK       I    between atoms: C_6  and  N_8 
REMARK    4  A    between atoms: N_8  and  C_9 
ROOT
HETATM    1  N   UNL     1     -41.928 -51.199  11.971  1.00  0.00    -0.342 N 
HETATM    2  C   UNL     1     -41.941 -49.822  12.087  1.00  0.00     0.320 C 
HETATM    3  O   UNL     1     -42.040 -49.293  13.191  1.00  0.00    -0.247 OA
HETATM    4  N   UNL     1     -41.826 -49.147  10.903  1.00  0.00    -0.306 N 
HETATM    5  H   UNL     1     -42.132 -51.640  11.090  1.00  0.00     0.164 HD
HETATM    6  H   UNL     1     -42.005 -49.651  10.047  1.00  0.00     0.171 HD
ENDROOT
BRANCH   1   7
HETATM    7  C   UNL     1     -42.145 -51.906  13.213  1.00  0.00     0.133 C 
BRANCH   7   8
HETATM    8  C   UNL     1     -42.508 -53.370  13.155  1.00  0.00    -0.025 A 
HETATM    9  C   UNL     1     -43.550 -53.935  14.102  1.00  0.00     0.012 A 
HETATM   10  C   UNL     1     -43.854 -53.827  12.632  1.00  0.00     0.012 A 
BRANCH   8  11
HETATM   11  C   UNL     1     -41.298 -54.257  12.866  1.00  0.00     0.006 C 
HETATM   12  C   UNL     1     -40.057 -53.846  13.652  1.00  0.00     0.006 C 
ENDBRANCH   8  11
ENDBRANCH   7   8
ENDBRANCH   1   7
BRANCH   4  13
HETATM   13  C   UNL     1     -41.760 -47.729  10.808  1.00  0.00     0.077 A 
HETATM   14  C   UNL     1     -42.856 -46.931  10.469  1.00  0.00     0.050 A 
HETATM   15  C   UNL     1     -42.682 -45.561  10.339  1.00  0.00     0.090 A 
HETATM   16  N   UNL     1     -41.506 -44.933  10.546  1.00  0.00    -0.372 N 
HETATM   17  C   UNL     1     -40.464 -45.718  10.909  1.00  0.00     0.132 A 
ATOM     18  HN  UNL     1     -41.407 -43.924  10.436  1.00  0.00     0.164 HD
HETATM   19  C   UNL     1     -40.547 -47.094  11.058  1.00  0.00     0.158 A 
HETATM   20  F   UNL     1     -39.463 -47.803  11.410  1.00  0.00    -0.202 F 
ENDBRANCH   4  13
TORSDOF 4
ENDMDL
MODEL 9
REMARK VINA RESULT:      -4.8      2.541      3.111
REMARK  4 active torsions:
REMARK  status: ('A' for Active; 'I' for Inactive)
REMARK    1  A    between atoms: C_2  and  C_3 
REMARK    2  A    between atoms: C_3  and  C_4 
REMARK    3  A    between atoms: C_4  and  N_5 
REMARK       I    between atoms: N_5  and  C_6 
REMARK       I    between atoms: C_6  and  N_8 
REMARK    4  A    between atoms: N_8  and  C_9 
ROOT
HETATM    1  N   UNL     1     -40.571 -51.462  11.502  1.00  0.00    -0.342 N 
HETATM    2  C   UNL     1     -41.302 -50.290  11.511  1.00  0.00     0.320 C 
HETATM    3  O   UNL     1     -42.250 -50.155  12.278  1.00  0.00    -0.247 OA
HETATM    4  N   UNL     1     -40.870 -49.340  10.627  1.00  0.00    -0.306 N 
HETATM    5  H   UNL     1     -39.994 -51.699  10.713  1.00  0.00     0.164 HD
HETATM    6  H   UNL     1     -40.260 -49.629   9.875  1.00  0.00     0.171 HD
ENDROOT
BRANCH   1   7
HETATM    7  C   UNL     1     -41.088 -52.497  12.369  1.00  0.00     0.133 C 
BRANCH   7   8
HETATM    8  C   UNL     1     -40.439 -52.699  13.717  1.00  0.00    -0.025 A 
HETATM    9  C   UNL     1     -39.477 -53.853  13.933  1.00  0.00     0.012 A 
HETATM   10  C   UNL     1     -38.961 -52.439  13.925  1.00  0.00     0.012 A 
BRANCH   8  11
HETATM   11  C   UNL     1     -41.385 -52.375  14.872  1.00  0.00     0.006 C 
HETATM   12  C   UNL     1     -41.127 -51.003  15.485  1.00  0.00     0.006 C 
ENDBRANCH   8  11
ENDBRANCH   7   8
ENDBRANCH   1   7
BRANCH   4  13
HETATM   13  C   UNL     1     -41.447 -48.044  10.519  1.00  0.00     0.077 A 
HETATM   14  C   UNL     1     -42.656 -47.794   9.864  1.00  0.00     0.050 A 
HETATM   15  C   UNL     1     -43.110 -46.488   9.754  1.00  0.00     0.090 A 
HETATM   16  N   UNL     1     -42.460 -45.425  10.269  1.00  0.00    -0.372 N 
HETATM   17  C   UNL     1     -41.308 -45.689  10.930  1.00  0.00     0.132 A 
ATOM     18  HN  UNL     1     -42.815 -44.474  10.166  1.00  0.00     0.164 HD
HETATM   19  C   UNL     1     -40.779 -46.961  11.084  1.00  0.00     0.158 A 
HETATM   20  F   UNL     1     -39.625 -47.139  11.746  1.00  0.00    -0.202 F 
ENDBRANCH   4  13
TORSDOF 4
ENDMDL
