MODEL 1
REMARK VINA RESULT:      -6.7      0.000      0.000
REMARK  7 active torsions:
REMARK  status: ('A' for Active; 'I' for Inactive)
REMARK    1  A    between atoms: N_2  and  C_10 
REMARK    2  A    between atoms: C_3  and  N_7 
REMARK    3  A    between atoms: N_7  and  C_16 
REMARK    4  A    between atoms: N_7  and  C_18 
REMARK    5  A    between atoms: C_9  and  C_10 
REMARK    6  A    between atoms: C_9  and  O_26 
REMARK    7  A    between atoms: C_18  and  C_29 
ROOT
HETATM    1  C   UNL     1     -41.971 -51.338  13.254  1.00  0.00     0.122 A 
HETATM    2  N   UNL     1     -43.380 -52.977  13.606  1.00  0.00    -0.324 N 
HETATM    3  C   UNL     1     -41.203 -50.200  13.628  1.00  0.00     0.135 A 
HETATM    4  C   UNL     1     -42.620 -52.047  14.254  1.00  0.00     0.140 A 
HETATM    5  N   UNL     1     -42.286 -51.894  12.023  1.00  0.00    -0.346 N 
ATOM      6  HN  UNL     1     -41.914 -51.623  11.114  1.00  0.00     0.167 HD
HETATM    7  C   UNL     1     -43.159 -52.839  12.267  1.00  0.00     0.185 A 
HETATM    8  N   UNL     1     -41.152 -49.946  14.976  1.00  0.00    -0.337 N 
ATOM      9  HN  UNL     1     -40.632 -49.141  15.323  1.00  0.00     0.168 HD
HETATM   10  N   UNL     1     -42.556 -51.829  15.574  1.00  0.00    -0.336 N 
ATOM     11  HN  UNL     1     -43.026 -52.398  16.279  1.00  0.00     0.168 HD
HETATM   12  C   UNL     1     -41.787 -50.759  15.841  1.00  0.00     0.183 A 
ENDROOT
BRANCH   3  13
HETATM   13  N   UNL     1     -40.582 -49.301  12.709  1.00  0.00    -0.360 N 
BRANCH  13  14
HETATM   14  C   UNL     1     -41.446 -48.107  12.416  1.00  0.00     0.089 C 
HETATM   15  C   UNL     1     -40.660 -46.791  12.322  1.00  0.00     0.055 C 
HETATM   16  C   UNL     1     -40.470 -46.308  10.896  1.00  0.00     0.274 C 
HETATM   17  N   UNL     1     -41.729 -46.136  10.183  1.00  0.00     0.084 N 
HETATM   18  C   UNL     1     -42.461 -47.399  10.099  1.00  0.00     0.274 C 
HETATM   19  C   UNL     1     -42.523 -45.015  10.681  1.00  0.00     0.309 C 
HETATM   20  C   UNL     1     -42.558 -48.259  11.367  1.00  0.00     0.055 C 
ENDBRANCH  13  14
BRANCH  13  21
HETATM   21  C   UNL     1     -39.112 -49.174  12.845  1.00  0.00     0.128 C 
BRANCH  21  22
HETATM   22  C   UNL     1     -38.334 -50.364  12.193  1.00  0.00    -0.005 C 
HETATM   23  C   UNL     1     -37.369 -49.912  11.095  1.00  0.00     0.011 C 
HETATM   24  C   UNL     1     -37.569 -51.204  13.225  1.00  0.00     0.011 C 
ENDBRANCH  21  22
ENDBRANCH  13  21
ENDBRANCH   3  13
BRANCH   2  25
HETATM   25  C   UNL     1     -44.354 -53.871  14.195  1.00  0.00     0.172 C 
BRANCH  25  26
HETATM   26  C   UNL     1     -45.751 -53.262  14.377  1.00  0.00     0.102 C 
HETATM   27  C   UNL     1     -45.997 -51.908  13.675  1.00  0.00     0.153 C 
HETATM   28  O   UNL     1     -46.908 -51.157  14.513  1.00  0.00    -0.383 OA
HETATM   29  C   UNL     1     -46.605 -51.969  12.283  1.00  0.00     0.042 C 
HETATM   30  C   UNL     1     -47.140 -51.911  15.710  1.00  0.00     0.171 C 
HETATM   31  C   UNL     1     -45.968 -52.858  15.831  1.00  0.00     0.068 C 
BRANCH  26  32
HETATM   32  O   UNL     1     -46.763 -54.232  14.072  1.00  0.00    -0.385 OA
HETATM   33  H   UNL     1     -46.388 -54.919  13.488  1.00  0.00     0.210 HD
ENDBRANCH  26  32
ENDBRANCH  25  26
ENDBRANCH   2  25
TORSDOF 7
ENDMDL
MODEL 2
REMARK VINA RESULT:      -6.6      2.929      7.268
REMARK  7 active torsions:
REMARK  status: ('A' for Active; 'I' for Inactive)
REMARK    1  A    between atoms: N_2  and  C_10 
REMARK    2  A    between atoms: C_3  and  N_7 
REMARK    3  A    between atoms: N_7  and  C_16 
REMARK    4  A    between atoms: N_7  and  C_18 
REMARK    5  A    between atoms: C_9  and  C_10 
REMARK    6  A    between atoms: C_9  and  O_26 
REMARK    7  A    between atoms: C_18  and  C_29 
ROOT
HETATM    1  C   UNL     1     -41.828 -50.727  12.453  1.00  0.00     0.122 A 
HETATM    2  N   UNL     1     -40.596 -48.938  12.169  1.00  0.00    -0.324 N 
HETATM    3  C   UNL     1     -42.754 -51.552  13.149  1.00  0.00     0.135 A 
HETATM    4  C   UNL     1     -41.618 -49.438  12.923  1.00  0.00     0.140 A 
HETATM    5  N   UNL     1     -40.985 -50.962  11.377  1.00  0.00    -0.346 N 
ATOM      6  HN  UNL     1     -40.955 -51.797  10.793  1.00  0.00     0.167 HD
HETATM    7  C   UNL     1     -40.238 -49.894  11.262  1.00  0.00     0.185 A 
HETATM    8  N   UNL     1     -43.387 -50.954  14.211  1.00  0.00    -0.337 N 
ATOM      9  HN  UNL     1     -44.057 -51.485  14.768  1.00  0.00     0.168 HD
HETATM   10  N   UNL     1     -42.248 -48.832  13.938  1.00  0.00    -0.336 N 
ATOM     11  HN  UNL     1     -42.085 -47.868  14.229  1.00  0.00     0.168 HD
HETATM   12  C   UNL     1     -43.126 -49.670  14.518  1.00  0.00     0.183 A 
ENDROOT
BRANCH   3  13
HETATM   13  N   UNL     1     -42.986 -52.932  12.866  1.00  0.00    -0.360 N 
BRANCH  13  14
HETATM   14  C   UNL     1     -42.137 -53.834  13.719  1.00  0.00     0.089 C 
HETATM   15  C   UNL     1     -40.797 -54.208  13.068  1.00  0.00     0.055 C 
HETATM   16  C   UNL     1     -39.616 -53.460  13.658  1.00  0.00     0.274 C 
HETATM   17  N   UNL     1     -39.488 -53.645  15.097  1.00  0.00     0.084 N 
HETATM   18  C   UNL     1     -40.678 -53.159  15.796  1.00  0.00     0.274 C 
HETATM   19  C   UNL     1     -39.087 -54.999  15.470  1.00  0.00     0.309 C 
HETATM   20  C   UNL     1     -42.051 -53.535  15.224  1.00  0.00     0.055 C 
ENDBRANCH  13  14
BRANCH  13  21
HETATM   21  C   UNL     1     -44.385 -53.282  12.530  1.00  0.00     0.128 C 
BRANCH  21  22
HETATM   22  C   UNL     1     -45.220 -53.721  13.777  1.00  0.00    -0.005 C 
HETATM   23  C   UNL     1     -46.507 -52.911  13.946  1.00  0.00     0.011 C 
HETATM   24  C   UNL     1     -45.564 -55.217  13.759  1.00  0.00     0.011 C 
ENDBRANCH  21  22
ENDBRANCH  13  21
ENDBRANCH   3  13
BRANCH   2  25
HETATM   25  C   UNL     1     -39.907 -47.680  12.360  1.00  0.00     0.172 C 
BRANCH  25  26
HETATM   26  C   UNL     1     -40.712 -46.441  11.944  1.00  0.00     0.102 C 
HETATM   27  C   UNL     1     -41.356 -46.492  10.540  1.00  0.00     0.153 C 
HETATM   28  O   UNL     1     -41.346 -45.140  10.023  1.00  0.00    -0.383 OA
HETATM   29  C   UNL     1     -42.789 -46.995  10.472  1.00  0.00     0.042 C 
HETATM   30  C   UNL     1     -40.651 -44.307  10.959  1.00  0.00     0.171 C 
HETATM   31  C   UNL     1     -39.788 -45.241  11.776  1.00  0.00     0.068 C 
BRANCH  26  32
HETATM   32  O   UNL     1     -41.651 -46.089  12.969  1.00  0.00    -0.385 OA
HETATM   33  H   UNL     1     -42.054 -46.899  13.332  1.00  0.00     0.210 HD
ENDBRANCH  26  32
ENDBRANCH  25  26
ENDBRANCH   2  25
TORSDOF 7
ENDMDL
MODEL 3
REMARK VINA RESULT:      -6.5      3.573      7.571
REMARK  7 active torsions:
REMARK  status: ('A' for Active; 'I' for Inactive)
REMARK    1  A    between atoms: N_2  and  C_10 
REMARK    2  A    between atoms: C_3  and  N_7 
REMARK    3  A    between atoms: N_7  and  C_16 
REMARK    4  A    between atoms: N_7  and  C_18 
REMARK    5  A    between atoms: C_9  and  C_10 
REMARK    6  A    between atoms: C_9  and  O_26 
REMARK    7  A    between atoms: C_18  and  C_29 
ROOT
HETATM    1  C   UNL     1     -41.518 -47.452  12.533  1.00  0.00     0.122 A 
HETATM    2  N   UNL     1     -42.071 -45.429  13.165  1.00  0.00    -0.324 N 
HETATM    3  C   UNL     1     -41.711 -48.680  11.842  1.00  0.00     0.135 A 
HETATM    4  C   UNL     1     -42.397 -46.411  12.275  1.00  0.00     0.140 A 
HETATM    5  N   UNL     1     -40.626 -47.060  13.520  1.00  0.00    -0.346 N 
ATOM      6  HN  UNL     1     -39.832 -47.592  13.876  1.00  0.00     0.167 HD
HETATM    7  C   UNL     1     -41.010 -45.869  13.902  1.00  0.00     0.185 A 
HETATM    8  N   UNL     1     -42.746 -48.688  10.940  1.00  0.00    -0.337 N 
ATOM      9  HN  UNL     1     -42.956 -49.536  10.414  1.00  0.00     0.168 HD
HETATM   10  N   UNL     1     -43.393 -46.393  11.378  1.00  0.00    -0.336 N 
ATOM     11  HN  UNL     1     -43.997 -45.591  11.198  1.00  0.00     0.168 HD
HETATM   12  C   UNL     1     -43.484 -47.578  10.749  1.00  0.00     0.183 A 
ENDROOT
BRANCH   3  13
HETATM   13  N   UNL     1     -40.971 -49.876  12.088  1.00  0.00    -0.360 N 
BRANCH  13  14
HETATM   14  C   UNL     1     -41.861 -51.018  12.490  1.00  0.00     0.089 C 
HETATM   15  C   UNL     1     -41.358 -52.386  12.007  1.00  0.00     0.055 C 
HETATM   16  C   UNL     1     -40.728 -53.216  13.110  1.00  0.00     0.274 C 
HETATM   17  N   UNL     1     -41.625 -53.436  14.237  1.00  0.00     0.084 N 
HETATM   18  C   UNL     1     -42.020 -52.167  14.847  1.00  0.00     0.274 C 
HETATM   19  C   UNL     1     -42.742 -54.321  13.920  1.00  0.00     0.309 C 
HETATM   20  C   UNL     1     -42.435 -51.020  13.915  1.00  0.00     0.055 C 
ENDBRANCH  13  14
BRANCH  13  21
HETATM   21  C   UNL     1     -39.798 -50.086  11.208  1.00  0.00     0.128 C 
BRANCH  21  22
HETATM   22  C   UNL     1     -38.457 -49.609  11.853  1.00  0.00    -0.005 C 
HETATM   23  C   UNL     1     -38.288 -50.087  13.297  1.00  0.00     0.011 C 
HETATM   24  C   UNL     1     -37.227 -50.027  11.035  1.00  0.00     0.011 C 
ENDBRANCH  21  22
ENDBRANCH  13  21
ENDBRANCH   3  13
BRANCH   2  25
HETATM   25  C   UNL     1     -42.784 -44.192  13.399  1.00  0.00     0.172 C 
BRANCH  25  26
HETATM   26  C   UNL     1     -42.529 -43.099  12.352  1.00  0.00     0.102 C 
HETATM   27  C   UNL     1     -41.048 -42.750  12.084  1.00  0.00     0.153 C 
HETATM   28  O   UNL     1     -40.997 -41.337  11.774  1.00  0.00    -0.383 OA
HETATM   29  C   UNL     1     -40.375 -43.492  10.940  1.00  0.00     0.042 C 
HETATM   30  C   UNL     1     -42.313 -40.794  11.940  1.00  0.00     0.171 C 
HETATM   31  C   UNL     1     -43.038 -41.754  12.855  1.00  0.00     0.068 C 
BRANCH  26  32
HETATM   32  O   UNL     1     -43.254 -43.382  11.148  1.00  0.00    -0.385 OA
HETATM   33  H   UNL     1     -43.478 -42.545  10.699  1.00  0.00     0.210 HD
ENDBRANCH  26  32
ENDBRANCH  25  26
ENDBRANCH   2  25
TORSDOF 7
ENDMDL
MODEL 4
REMARK VINA RESULT:      -6.5      3.708      8.032
REMARK  7 active torsions:
REMARK  status: ('A' for Active; 'I' for Inactive)
REMARK    1  A    between atoms: N_2  and  C_10 
REMARK    2  A    between atoms: C_3  and  N_7 
REMARK    3  A    between atoms: N_7  and  C_16 
REMARK    4  A    between atoms: N_7  and  C_18 
REMARK    5  A    between atoms: C_9  and  C_10 
REMARK    6  A    between atoms: C_9  and  O_26 
REMARK    7  A    between atoms: C_18  and  C_29 
ROOT
HETATM    1  C   UNL     1     -42.634 -47.692  13.147  1.00  0.00     0.122 A 
HETATM    2  N   UNL     1     -42.458 -45.543  13.532  1.00  0.00    -0.324 N 
HETATM    3  C   UNL     1     -43.019 -48.836  12.394  1.00  0.00     0.135 A 
HETATM    4  C   UNL     1     -42.753 -46.446  12.551  1.00  0.00     0.140 A 
HETATM    5  N   UNL     1     -42.197 -47.532  14.454  1.00  0.00    -0.346 N 
ATOM      6  HN  UNL     1     -41.965 -48.270  15.117  1.00  0.00     0.167 HD
HETATM    7  C   UNL     1     -42.144 -46.241  14.662  1.00  0.00     0.185 A 
HETATM    8  N   UNL     1     -43.437 -48.578  11.112  1.00  0.00    -0.337 N 
ATOM      9  HN  UNL     1     -43.741 -49.345  10.512  1.00  0.00     0.168 HD
HETATM   10  N   UNL     1     -43.131 -46.180  11.293  1.00  0.00    -0.336 N 
ATOM     11  HN  UNL     1     -43.173 -45.247  10.885  1.00  0.00     0.168 HD
HETATM   12  C   UNL     1     -43.445 -47.316  10.644  1.00  0.00     0.183 A 
ENDROOT
BRANCH   3  13
HETATM   13  N   UNL     1     -43.072 -50.167  12.907  1.00  0.00    -0.360 N 
BRANCH  13  14
HETATM   14  C   UNL     1     -41.700 -50.756  13.090  1.00  0.00     0.089 C 
HETATM   15  C   UNL     1     -41.413 -51.201  14.531  1.00  0.00     0.055 C 
HETATM   16  C   UNL     1     -41.478 -52.706  14.718  1.00  0.00     0.274 C 
HETATM   17  N   UNL     1     -40.573 -53.426  13.832  1.00  0.00     0.084 N 
HETATM   18  C   UNL     1     -40.896 -53.168  12.429  1.00  0.00     0.274 C 
HETATM   19  C   UNL     1     -39.165 -53.233  14.167  1.00  0.00     0.309 C 
HETATM   20  C   UNL     1     -41.177 -51.717  12.012  1.00  0.00     0.055 C 
ENDBRANCH  13  14
BRANCH  13  21
HETATM   21  C   UNL     1     -44.158 -50.428  13.879  1.00  0.00     0.128 C 
BRANCH  21  22
HETATM   22  C   UNL     1     -45.307 -51.310  13.288  1.00  0.00    -0.005 C 
HETATM   23  C   UNL     1     -44.831 -52.701  12.866  1.00  0.00     0.011 C 
HETATM   24  C   UNL     1     -46.495 -51.451  14.249  1.00  0.00     0.011 C 
ENDBRANCH  21  22
ENDBRANCH  13  21
ENDBRANCH   3  13
BRANCH   2  25
HETATM   25  C   UNL     1     -42.578 -44.103  13.457  1.00  0.00     0.172 C 
BRANCH  25  26
HETATM   26  C   UNL     1     -41.390 -43.397  12.790  1.00  0.00     0.102 C 
HETATM   27  C   UNL     1     -40.024 -43.557  13.497  1.00  0.00     0.153 C 
HETATM   28  O   UNL     1     -39.293 -42.326  13.283  1.00  0.00    -0.383 OA
HETATM   29  C   UNL     1     -39.144 -44.699  13.018  1.00  0.00     0.042 C 
HETATM   30  C   UNL     1     -40.152 -41.407  12.597  1.00  0.00     0.171 C 
HETATM   31  C   UNL     1     -41.560 -41.885  12.867  1.00  0.00     0.068 C 
BRANCH  26  32
HETATM   32  O   UNL     1     -41.329 -43.728  11.396  1.00  0.00    -0.385 OA
HETATM   33  H   UNL     1     -40.441 -43.518  11.051  1.00  0.00     0.210 HD
ENDBRANCH  26  32
ENDBRANCH  25  26
ENDBRANCH   2  25
TORSDOF 7
ENDMDL
MODEL 5
REMARK VINA RESULT:      -6.3      3.098      7.379
REMARK  7 active torsions:
REMARK  status: ('A' for Active; 'I' for Inactive)
REMARK    1  A    between atoms: N_2  and  C_10 
REMARK    2  A    between atoms: C_3  and  N_7 
REMARK    3  A    between atoms: N_7  and  C_16 
REMARK    4  A    between atoms: N_7  and  C_18 
REMARK    5  A    between atoms: C_9  and  C_10 
REMARK    6  A    between atoms: C_9  and  O_26 
REMARK    7  A    between atoms: C_18  and  C_29 
ROOT
HETATM    1  C   UNL     1     -42.561 -49.790  12.891  1.00  0.00     0.122 A 
HETATM    2  N   UNL     1     -41.807 -48.153  11.645  1.00  0.00    -0.324 N 
HETATM    3  C   UNL     1     -42.433 -50.888  13.786  1.00  0.00     0.135 A 
HETATM    4  C   UNL     1     -41.434 -49.026  12.626  1.00  0.00     0.140 A 
HETATM    5  N   UNL     1     -43.618 -49.321  12.125  1.00  0.00    -0.346 N 
ATOM      6  HN  UNL     1     -44.584 -49.646  12.148  1.00  0.00     0.167 HD
HETATM    7  C   UNL     1     -43.124 -48.377  11.366  1.00  0.00     0.185 A 
HETATM    8  N   UNL     1     -41.186 -51.051  14.337  1.00  0.00    -0.337 N 
ATOM      9  HN  UNL     1     -41.011 -51.823  14.979  1.00  0.00     0.168 HD
HETATM   10  N   UNL     1     -40.219 -49.154  13.177  1.00  0.00    -0.336 N 
ATOM     11  HN  UNL     1     -39.424 -48.548  12.976  1.00  0.00     0.168 HD
HETATM   12  C   UNL     1     -40.195 -50.193  14.032  1.00  0.00     0.183 A 
ENDROOT
BRANCH   3  13
HETATM   13  N   UNL     1     -43.464 -51.836  14.062  1.00  0.00    -0.360 N 
BRANCH  13  14
HETATM   14  C   UNL     1     -44.508 -51.280  14.990  1.00  0.00     0.089 C 
HETATM   15  C   UNL     1     -45.909 -51.213  14.364  1.00  0.00     0.055 C 
HETATM   16  C   UNL     1     -46.840 -52.302  14.865  1.00  0.00     0.274 C 
HETATM   17  N   UNL     1     -46.990 -52.298  16.314  1.00  0.00     0.084 N 
HETATM   18  C   UNL     1     -45.704 -52.517  16.975  1.00  0.00     0.274 C 
HETATM   19  C   UNL     1     -47.731 -51.142  16.813  1.00  0.00     0.309 C 
HETATM   20  C   UNL     1     -44.488 -51.735  16.457  1.00  0.00     0.055 C 
ENDBRANCH  13  14
BRANCH  13  21
HETATM   21  C   UNL     1     -43.830 -52.720  12.932  1.00  0.00     0.128 C 
BRANCH  21  22
HETATM   22  C   UNL     1     -43.694 -54.239  13.277  1.00  0.00    -0.005 C 
HETATM   23  C   UNL     1     -42.696 -54.505  14.405  1.00  0.00     0.011 C 
HETATM   24  C   UNL     1     -45.040 -54.886  13.630  1.00  0.00     0.011 C 
ENDBRANCH  21  22
ENDBRANCH  13  21
ENDBRANCH   3  13
BRANCH   2  25
HETATM   25  C   UNL     1     -40.952 -47.238  10.921  1.00  0.00     0.172 C 
BRANCH  25  26
HETATM   26  C   UNL     1     -40.721 -45.891  11.619  1.00  0.00     0.102 C 
HETATM   27  C   UNL     1     -41.989 -45.067  11.937  1.00  0.00     0.153 C 
HETATM   28  O   UNL     1     -41.625 -43.671  11.818  1.00  0.00    -0.383 OA
HETATM   29  C   UNL     1     -42.594 -45.264  13.318  1.00  0.00     0.042 C 
HETATM   30  C   UNL     1     -40.272 -43.598  11.351  1.00  0.00     0.171 C 
HETATM   31  C   UNL     1     -39.998 -44.927  10.686  1.00  0.00     0.068 C 
BRANCH  26  32
HETATM   32  O   UNL     1     -39.873 -46.060  12.763  1.00  0.00    -0.385 OA
HETATM   33  H   UNL     1     -40.416 -46.059  13.573  1.00  0.00     0.210 HD
ENDBRANCH  26  32
ENDBRANCH  25  26
ENDBRANCH   2  25
TORSDOF 7
ENDMDL
MODEL 6
REMARK VINA RESULT:      -6.3      3.016      5.090
REMARK  7 active torsions:
REMARK  status: ('A' for Active; 'I' for Inactive)
REMARK    1  A    between atoms: N_2  and  C_10 
REMARK    2  A    between atoms: C_3  and  N_7 
REMARK    3  A    between atoms: N_7  and  C_16 
REMARK    4  A    between atoms: N_7  and  C_18 
REMARK    5  A    between atoms: C_9  and  C_10 
REMARK    6  A    between atoms: C_9  and  O_26 
REMARK    7  A    between atoms: C_18  and  C_29 
ROOT
HETATM    1  C   UNL     1     -41.255 -49.895  11.863  1.00  0.00     0.122 A 
HETATM    2  N   UNL     1     -41.037 -52.025  12.321  1.00  0.00    -0.324 N 
HETATM    3  C   UNL     1     -40.778 -48.576  11.627  1.00  0.00     0.135 A 
HETATM    4  C   UNL     1     -40.325 -50.920  11.953  1.00  0.00     0.140 A 
HETATM    5  N   UNL     1     -42.521 -50.406  12.103  1.00  0.00    -0.346 N 
ATOM      6  HN  UNL     1     -43.407 -49.903  12.049  1.00  0.00     0.167 HD
HETATM    7  C   UNL     1     -42.350 -51.666  12.413  1.00  0.00     0.185 A 
HETATM    8  N   UNL     1     -39.419 -48.464  11.467  1.00  0.00    -0.337 N 
ATOM      9  HN  UNL     1     -38.999 -47.549  11.306  1.00  0.00     0.168 HD
HETATM   10  N   UNL     1     -39.001 -50.833  11.770  1.00  0.00    -0.336 N 
ATOM     11  HN  UNL     1     -38.356 -51.622  11.814  1.00  0.00     0.168 HD
HETATM   12  C   UNL     1     -38.640 -49.561  11.521  1.00  0.00     0.183 A 
ENDROOT
BRANCH   3  13
HETATM   13  N   UNL     1     -41.593 -47.403  11.632  1.00  0.00    -0.360 N 
BRANCH  13  14
HETATM   14  C   UNL     1     -41.466 -46.633  12.917  1.00  0.00     0.089 C 
HETATM   15  C   UNL     1     -41.138 -45.147  12.709  1.00  0.00     0.055 C 
HETATM   16  C   UNL     1     -42.331 -44.234  12.927  1.00  0.00     0.274 C 
HETATM   17  N   UNL     1     -42.927 -44.386  14.247  1.00  0.00     0.084 N 
HETATM   18  C   UNL     1     -43.408 -45.753  14.451  1.00  0.00     0.274 C 
HETATM   19  C   UNL     1     -42.078 -43.883  15.324  1.00  0.00     0.309 C 
HETATM   20  C   UNL     1     -42.489 -46.908  14.030  1.00  0.00     0.055 C 
ENDBRANCH  13  14
BRANCH  13  21
HETATM   21  C   UNL     1     -41.715 -46.712  10.328  1.00  0.00     0.128 C 
BRANCH  21  22
HETATM   22  C   UNL     1     -43.200 -46.499   9.887  1.00  0.00    -0.005 C 
HETATM   23  C   UNL     1     -43.366 -46.439   8.367  1.00  0.00     0.011 C 
HETATM   24  C   UNL     1     -44.143 -47.568  10.456  1.00  0.00     0.011 C 
ENDBRANCH  21  22
ENDBRANCH  13  21
ENDBRANCH   3  13
BRANCH   2  25
HETATM   25  C   UNL     1     -40.507 -53.322  12.684  1.00  0.00     0.172 C 
BRANCH  25  26
HETATM   26  C   UNL     1     -40.314 -53.534  14.192  1.00  0.00     0.102 C 
HETATM   27  C   UNL     1     -39.623 -52.381  14.955  1.00  0.00     0.153 C 
HETATM   28  O   UNL     1     -38.849 -52.985  16.019  1.00  0.00    -0.383 OA
HETATM   29  C   UNL     1     -40.538 -51.345  15.588  1.00  0.00     0.042 C 
HETATM   30  C   UNL     1     -38.937 -54.409  15.885  1.00  0.00     0.171 C 
HETATM   31  C   UNL     1     -39.321 -54.662  14.446  1.00  0.00     0.068 C 
BRANCH  26  32
HETATM   32  O   UNL     1     -41.548 -53.936  14.802  1.00  0.00    -0.385 OA
HETATM   33  H   UNL     1     -41.363 -54.346  15.668  1.00  0.00     0.210 HD
ENDBRANCH  26  32
ENDBRANCH  25  26
ENDBRANCH   2  25
TORSDOF 7
ENDMDL
MODEL 7
REMARK VINA RESULT:      -6.2      3.080      7.727
REMARK  7 active torsions:
REMARK  status: ('A' for Active; 'I' for Inactive)
REMARK    1  A    between atoms: N_2  and  C_10 
REMARK    2  A    between atoms: C_3  and  N_7 
REMARK    3  A    between atoms: N_7  and  C_16 
REMARK    4  A    between atoms: N_7  and  C_18 
REMARK    5  A    between atoms: C_9  and  C_10 
REMARK    6  A    between atoms: C_9  and  O_26 
REMARK    7  A    between atoms: C_18  and  C_29 
ROOT
HETATM    1  C   UNL     1     -42.042 -49.230  13.265  1.00  0.00     0.122 A 
HETATM    2  N   UNL     1     -41.126 -47.241  13.279  1.00  0.00    -0.324 N 
HETATM    3  C   UNL     1     -42.312 -50.516  12.721  1.00  0.00     0.135 A 
HETATM    4  C   UNL     1     -41.072 -48.451  12.650  1.00  0.00     0.140 A 
HETATM    5  N   UNL     1     -42.614 -48.510  14.302  1.00  0.00    -0.346 N 
ATOM      6  HN  UNL     1     -43.312 -48.842  14.967  1.00  0.00     0.167 HD
HETATM    7  C   UNL     1     -42.076 -47.318  14.255  1.00  0.00     0.185 A 
HETATM    8  N   UNL     1     -41.536 -50.873  11.646  1.00  0.00    -0.337 N 
ATOM      9  HN  UNL     1     -41.678 -51.775  11.193  1.00  0.00     0.168 HD
HETATM   10  N   UNL     1     -40.287 -48.795  11.621  1.00  0.00    -0.336 N 
ATOM     11  HN  UNL     1     -39.562 -48.201  11.220  1.00  0.00     0.168 HD
HETATM   12  C   UNL     1     -40.587 -50.034  11.190  1.00  0.00     0.183 A 
ENDROOT
BRANCH   3  13
HETATM   13  N   UNL     1     -43.359 -51.381  13.162  1.00  0.00    -0.360 N 
BRANCH  13  14
HETATM   14  C   UNL     1     -42.872 -52.395  14.159  1.00  0.00     0.089 C 
HETATM   15  C   UNL     1     -42.582 -53.771  13.541  1.00  0.00     0.055 C 
HETATM   16  C   UNL     1     -41.100 -54.048  13.367  1.00  0.00     0.274 C 
HETATM   17  N   UNL     1     -40.354 -53.945  14.614  1.00  0.00     0.084 N 
HETATM   18  C   UNL     1     -40.460 -52.600  15.179  1.00  0.00     0.274 C 
HETATM   19  C   UNL     1     -40.659 -55.017  15.558  1.00  0.00     0.309 C 
HETATM   20  C   UNL     1     -41.846 -51.941  15.209  1.00  0.00     0.055 C 
ENDBRANCH  13  14
BRANCH  13  21
HETATM   21  C   UNL     1     -44.690 -50.745  13.298  1.00  0.00     0.128 C 
BRANCH  21  22
HETATM   22  C   UNL     1     -45.851 -51.783  13.438  1.00  0.00    -0.005 C 
HETATM   23  C   UNL     1     -46.776 -51.486  14.619  1.00  0.00     0.011 C 
HETATM   24  C   UNL     1     -46.690 -51.906  12.158  1.00  0.00     0.011 C 
ENDBRANCH  21  22
ENDBRANCH  13  21
ENDBRANCH   3  13
BRANCH   2  25
HETATM   25  C   UNL     1     -40.413 -46.036  12.912  1.00  0.00     0.172 C 
BRANCH  25  26
HETATM   26  C   UNL     1     -41.055 -45.235  11.772  1.00  0.00     0.102 C 
HETATM   27  C   UNL     1     -40.141 -44.206  11.068  1.00  0.00     0.153 C 
HETATM   28  O   UNL     1     -40.983 -43.097  10.672  1.00  0.00    -0.383 OA
HETATM   29  C   UNL     1     -39.410 -44.690   9.826  1.00  0.00     0.042 C 
HETATM   30  C   UNL     1     -42.303 -43.332  11.177  1.00  0.00     0.171 C 
HETATM   31  C   UNL     1     -42.136 -44.309  12.318  1.00  0.00     0.068 C 
BRANCH  26  32
HETATM   32  O   UNL     1     -41.706 -46.116  10.847  1.00  0.00    -0.385 OA
HETATM   33  H   UNL     1     -42.481 -46.523  11.277  1.00  0.00     0.210 HD
ENDBRANCH  26  32
ENDBRANCH  25  26
ENDBRANCH   2  25
TORSDOF 7
ENDMDL
MODEL 8
REMARK VINA RESULT:      -6.2      2.177      4.346
REMARK  7 active torsions:
REMARK  status: ('A' for Active; 'I' for Inactive)
REMARK    1  A    between atoms: N_2  and  C_10 
REMARK    2  A    between atoms: C_3  and  N_7 
REMARK    3  A    between atoms: N_7  and  C_16 
REMARK    4  A    between atoms: N_7  and  C_18 
REMARK    5  A    between atoms: C_9  and  C_10 
REMARK    6  A    between atoms: C_9  and  O_26 
REMARK    7  A    between atoms: C_18  and  C_29 
ROOT
HETATM    1  C   UNL     1     -42.330 -49.041  12.442  1.00  0.00     0.122 A 
HETATM    2  N   UNL     1     -42.338 -50.734  13.831  1.00  0.00    -0.324 N 
HETATM    3  C   UNL     1     -41.828 -48.272  11.356  1.00  0.00     0.135 A 
HETATM    4  C   UNL     1     -41.782 -50.296  12.664  1.00  0.00     0.140 A 
HETATM    5  N   UNL     1     -43.263 -48.770  13.432  1.00  0.00    -0.346 N 
ATOM      6  HN  UNL     1     -43.867 -47.951  13.498  1.00  0.00     0.167 HD
HETATM    7  C   UNL     1     -43.211 -49.779  14.264  1.00  0.00     0.185 A 
HETATM    8  N   UNL     1     -40.861 -48.888  10.600  1.00  0.00    -0.337 N 
ATOM      9  HN  UNL     1     -40.443 -48.397   9.811  1.00  0.00     0.168 HD
HETATM   10  N   UNL     1     -40.860 -50.921  11.920  1.00  0.00    -0.336 N 
ATOM     11  HN  UNL     1     -40.507 -51.861  12.103  1.00  0.00     0.168 HD
HETATM   12  C   UNL     1     -40.465 -50.140  10.900  1.00  0.00     0.183 A 
ENDROOT
BRANCH   3  13
HETATM   13  N   UNL     1     -42.201 -46.923  11.074  1.00  0.00    -0.360 N 
BRANCH  13  14
HETATM   14  C   UNL     1     -41.512 -45.945  11.985  1.00  0.00     0.089 C 
HETATM   15  C   UNL     1     -40.219 -45.364  11.394  1.00  0.00     0.055 C 
HETATM   16  C   UNL     1     -40.377 -43.939  10.895  1.00  0.00     0.274 C 
HETATM   17  N   UNL     1     -40.853 -43.028  11.927  1.00  0.00     0.084 N 
HETATM   18  C   UNL     1     -42.164 -43.440  12.426  1.00  0.00     0.274 C 
HETATM   19  C   UNL     1     -39.866 -42.777  12.974  1.00  0.00     0.309 C 
HETATM   20  C   UNL     1     -42.379 -44.927  12.741  1.00  0.00     0.055 C 
ENDBRANCH  13  14
BRANCH  13  21
HETATM   21  C   UNL     1     -42.427 -46.615   9.643  1.00  0.00     0.128 C 
BRANCH  21  22
HETATM   22  C   UNL     1     -43.738 -47.255   9.081  1.00  0.00    -0.005 C 
HETATM   23  C   UNL     1     -44.886 -46.250   8.962  1.00  0.00     0.011 C 
HETATM   24  C   UNL     1     -43.525 -47.941   7.725  1.00  0.00     0.011 C 
ENDBRANCH  21  22
ENDBRANCH  13  21
ENDBRANCH   3  13
BRANCH   2  25
HETATM   25  C   UNL     1     -41.987 -51.929  14.569  1.00  0.00     0.172 C 
BRANCH  25  26
HETATM   26  C   UNL     1     -42.978 -53.090  14.414  1.00  0.00     0.102 C 
HETATM   27  C   UNL     1     -44.063 -53.205  15.508  1.00  0.00     0.153 C 
HETATM   28  O   UNL     1     -44.336 -54.616  15.684  1.00  0.00    -0.383 OA
HETATM   29  C   UNL     1     -45.388 -52.517  15.221  1.00  0.00     0.042 C 
HETATM   30  C   UNL     1     -43.426 -55.355  14.861  1.00  0.00     0.171 C 
HETATM   31  C   UNL     1     -42.265 -54.424  14.598  1.00  0.00     0.068 C 
BRANCH  26  32
HETATM   32  O   UNL     1     -43.528 -53.104  13.090  1.00  0.00    -0.385 OA
HETATM   33  H   UNL     1     -44.400 -53.542  13.105  1.00  0.00     0.210 HD
ENDBRANCH  26  32
ENDBRANCH  25  26
ENDBRANCH   2  25
TORSDOF 7
ENDMDL
MODEL 9
REMARK VINA RESULT:      -6.2      3.178      7.568
REMARK  7 active torsions:
REMARK  status: ('A' for Active; 'I' for Inactive)
REMARK    1  A    between atoms: N_2  and  C_10 
REMARK    2  A    between atoms: C_3  and  N_7 
REMARK    3  A    between atoms: N_7  and  C_16 
REMARK    4  A    between atoms: N_7  and  C_18 
REMARK    5  A    between atoms: C_9  and  C_10 
REMARK    6  A    between atoms: C_9  and  O_26 
REMARK    7  A    between atoms: C_18  and  C_29 
ROOT
HETATM    1  C   UNL     1     -42.731 -51.012  12.708  1.00  0.00     0.122 A 
HETATM    2  N   UNL     1     -42.228 -49.120  11.726  1.00  0.00    -0.324 N 
HETATM    3  C   UNL     1     -42.607 -52.409  12.946  1.00  0.00     0.135 A 
HETATM    4  C   UNL     1     -41.788 -50.401  11.893  1.00  0.00     0.140 A 
HETATM    5  N   UNL     1     -43.683 -50.076  13.083  1.00  0.00    -0.346 N 
ATOM      6  HN  UNL     1     -44.463 -50.218  13.724  1.00  0.00     0.167 HD
HETATM    7  C   UNL     1     -43.377 -48.974  12.448  1.00  0.00     0.185 A 
HETATM    8  N   UNL     1     -41.518 -53.008  12.363  1.00  0.00    -0.337 N 
ATOM      9  HN  UNL     1     -41.367 -54.010  12.477  1.00  0.00     0.168 HD
HETATM   10  N   UNL     1     -40.705 -50.965  11.342  1.00  0.00    -0.336 N 
ATOM     11  HN  UNL     1     -40.019 -50.469  10.774  1.00  0.00     0.168 HD
HETATM   12  C   UNL     1     -40.649 -52.275  11.642  1.00  0.00     0.183 A 
ENDROOT
BRANCH   3  13
HETATM   13  N   UNL     1     -43.561 -53.200  13.656  1.00  0.00    -0.360 N 
BRANCH  13  14
HETATM   14  C   UNL     1     -43.161 -53.413  15.090  1.00  0.00     0.089 C 
HETATM   15  C   UNL     1     -42.587 -54.810  15.364  1.00  0.00     0.055 C 
HETATM   16  C   UNL     1     -41.078 -54.817  15.521  1.00  0.00     0.274 C 
HETATM   17  N   UNL     1     -40.614 -53.922  16.573  1.00  0.00     0.084 N 
HETATM   18  C   UNL     1     -40.995 -52.539  16.291  1.00  0.00     0.274 C 
HETATM   19  C   UNL     1     -40.968 -54.379  17.915  1.00  0.00     0.309 C 
HETATM   20  C   UNL     1     -42.429 -52.272  15.813  1.00  0.00     0.055 C 
ENDBRANCH  13  14
BRANCH  13  21
HETATM   21  C   UNL     1     -44.975 -52.979  13.275  1.00  0.00     0.128 C 
BRANCH  21  22
HETATM   22  C   UNL     1     -45.902 -52.704  14.503  1.00  0.00    -0.005 C 
HETATM   23  C   UNL     1     -46.745 -51.438  14.339  1.00  0.00     0.011 C 
HETATM   24  C   UNL     1     -46.825 -53.888  14.823  1.00  0.00     0.011 C 
ENDBRANCH  21  22
ENDBRANCH  13  21
ENDBRANCH   3  13
BRANCH   2  25
HETATM   25  C   UNL     1     -41.672 -48.115  10.845  1.00  0.00     0.172 C 
BRANCH  25  26
HETATM   26  C   UNL     1     -40.510 -47.311  11.444  1.00  0.00     0.102 C 
HETATM   27  C   UNL     1     -40.686 -46.860  12.912  1.00  0.00     0.153 C 
HETATM   28  O   UNL     1     -40.018 -45.582  13.042  1.00  0.00    -0.383 OA
HETATM   29  C   UNL     1     -40.115 -47.782  13.976  1.00  0.00     0.042 C 
HETATM   30  C   UNL     1     -39.552 -45.185  11.746  1.00  0.00     0.171 C 
HETATM   31  C   UNL     1     -40.392 -45.957  10.755  1.00  0.00     0.068 C 
BRANCH  26  32
HETATM   32  O   UNL     1     -39.266 -47.988  11.222  1.00  0.00    -0.385 OA
HETATM   33  H   UNL     1     -39.293 -48.443  10.359  1.00  0.00     0.210 HD
ENDBRANCH  26  32
ENDBRANCH  25  26
ENDBRANCH   2  25
TORSDOF 7
ENDMDL
