MODEL 1
REMARK VINA RESULT:      -6.5      0.000      0.000
REMARK  6 active torsions:
REMARK  status: ('A' for Active; 'I' for Inactive)
REMARK    1  A    between atoms: N_2  and  C_3 
REMARK       I    between atoms: N_2  and  C_11 
REMARK    2  A    between atoms: C_3  and  C_4 
REMARK    3  A    between atoms: C_9  and  O_10 
REMARK       I    between atoms: C_11  and  N_13 
REMARK    4  A    between atoms: N_13  and  C_14 
REMARK    5  A    between atoms: C_14  and  C_15 
REMARK    6  A    between atoms: C_15  and  C_16 
ROOT
HETATM    1  C   UNL     1     -41.695 -54.425  13.982  1.00  0.00     0.154 C 
HETATM    2  N   UNL     1     -42.263 -53.173  13.490  1.00  0.00    -0.338 N 
HETATM    3  C   UNL     1     -41.391 -52.443  12.698  1.00  0.00     0.317 C 
HETATM    4  O   UNL     1     -40.291 -52.878  12.350  1.00  0.00    -0.247 OA
HETATM    5  N   UNL     1     -41.792 -51.190  12.367  1.00  0.00    -0.343 N 
HETATM    6  H   UNL     1     -42.768 -51.124  12.113  1.00  0.00     0.164 HD
ENDROOT
BRANCH   2   7
HETATM    7  C   UNL     1     -43.543 -52.681  14.069  1.00  0.00     0.134 C 
BRANCH   7   8
HETATM    8  C   UNL     1     -44.825 -53.120  13.294  1.00  0.00     0.032 C 
HETATM    9  C   UNL     1     -45.789 -51.958  12.952  1.00  0.00     0.009 C 
HETATM   10  C   UNL     1     -46.588 -51.401  14.137  1.00  0.00     0.001 C 
HETATM   11  C   UNL     1     -47.155 -52.458  15.089  1.00  0.00     0.002 C 
HETATM   12  C   UNL     1     -46.205 -53.620  15.345  1.00  0.00     0.032 C 
HETATM   13  C   UNL     1     -45.680 -54.173  14.023  1.00  0.00     0.123 C 
BRANCH  13  14
HETATM   14  O   UNL     1     -44.986 -55.390  14.231  1.00  0.00    -0.395 OA
HETATM   15  H   UNL     1     -44.912 -55.839  13.369  1.00  0.00     0.210 HD
ENDBRANCH  13  14
ENDBRANCH   7   8
ENDBRANCH   2   7
BRANCH   5  16
HETATM   16  C   UNL     1     -40.857 -50.356  11.658  1.00  0.00     0.129 C 
BRANCH  16  17
HETATM   17  C   UNL     1     -40.775 -48.952  12.255  1.00  0.00     0.060 C 
BRANCH  17  18
HETATM   18  C   UNL     1     -41.673 -48.037  11.486  1.00  0.00    -0.041 A 
HETATM   19  C   UNL     1     -43.056 -48.235  11.463  1.00  0.00     0.010 A 
HETATM   20  C   UNL     1     -43.848 -47.453  10.629  1.00  0.00     0.025 A 
HETATM   21  C   UNL     1     -43.240 -46.482   9.843  1.00  0.00     0.005 A 
HETATM   22  C   UNL     1     -44.043 -45.659   8.884  1.00  0.00     0.068 C 
HETATM   23  N   UNL     1     -41.905 -46.257   9.864  1.00  0.00    -0.369 N 
HETATM   24  C   UNL     1     -41.156 -47.036  10.670  1.00  0.00     0.095 A 
ATOM     25  HN  UNL     1     -41.481 -45.526   9.291  1.00  0.00     0.165 HD
ENDBRANCH  17  18
ENDBRANCH  16  17
ENDBRANCH   5  16
TORSDOF 6
ENDMDL
MODEL 2
REMARK VINA RESULT:      -6.4      2.490      6.344
REMARK  6 active torsions:
REMARK  status: ('A' for Active; 'I' for Inactive)
REMARK    1  A    between atoms: N_2  and  C_3 
REMARK       I    between atoms: N_2  and  C_11 
REMARK    2  A    between atoms: C_3  and  C_4 
REMARK    3  A    between atoms: C_9  and  O_10 
REMARK       I    between atoms: C_11  and  N_13 
REMARK    4  A    between atoms: N_13  and  C_14 
REMARK    5  A    between atoms: C_14  and  C_15 
REMARK    6  A    between atoms: C_15  and  C_16 
ROOT
HETATM    1  C   UNL     1     -37.839 -49.954  13.774  1.00  0.00     0.154 C 
HETATM    2  N   UNL     1     -39.238 -50.285  13.521  1.00  0.00    -0.338 N 
HETATM    3  C   UNL     1     -39.448 -51.626  13.243  1.00  0.00     0.317 C 
HETATM    4  O   UNL     1     -38.551 -52.467  13.327  1.00  0.00    -0.247 OA
HETATM    5  N   UNL     1     -40.692 -51.960  12.817  1.00  0.00    -0.343 N 
HETATM    6  H   UNL     1     -41.437 -51.500  13.321  1.00  0.00     0.164 HD
ENDROOT
BRANCH   2   7
HETATM    7  C   UNL     1     -40.219 -49.183  13.317  1.00  0.00     0.134 C 
BRANCH   7   8
HETATM    8  C   UNL     1     -39.971 -48.311  12.046  1.00  0.00     0.032 C 
HETATM    9  C   UNL     1     -40.196 -46.795  12.263  1.00  0.00     0.009 C 
HETATM   10  C   UNL     1     -41.663 -46.362  12.383  1.00  0.00     0.001 C 
HETATM   11  C   UNL     1     -42.617 -47.025  11.385  1.00  0.00     0.002 C 
HETATM   12  C   UNL     1     -42.320 -48.500  11.146  1.00  0.00     0.032 C 
HETATM   13  C   UNL     1     -40.838 -48.695  10.833  1.00  0.00     0.123 C 
BRANCH  13  14
HETATM   14  O   UNL     1     -40.592 -50.015  10.382  1.00  0.00    -0.395 OA
HETATM   15  H   UNL     1     -40.104 -49.953   9.540  1.00  0.00     0.210 HD
ENDBRANCH  13  14
ENDBRANCH   7   8
ENDBRANCH   2   7
BRANCH   5  16
HETATM   16  C   UNL     1     -40.909 -53.319  12.394  1.00  0.00     0.129 C 
BRANCH  16  17
HETATM   17  C   UNL     1     -41.671 -54.130  13.441  1.00  0.00     0.060 C 
BRANCH  17  18
HETATM   18  C   UNL     1     -43.043 -53.558  13.605  1.00  0.00    -0.041 A 
HETATM   19  C   UNL     1     -43.937 -53.508  12.533  1.00  0.00     0.010 A 
HETATM   20  C   UNL     1     -45.151 -52.846  12.680  1.00  0.00     0.025 A 
HETATM   21  C   UNL     1     -45.448 -52.254  13.902  1.00  0.00     0.005 A 
HETATM   22  C   UNL     1     -46.714 -51.477  14.089  1.00  0.00     0.068 C 
HETATM   23  N   UNL     1     -44.608 -52.307  14.962  1.00  0.00    -0.369 N 
HETATM   24  C   UNL     1     -43.431 -52.943  14.791  1.00  0.00     0.095 A 
ATOM     25  HN  UNL     1     -44.854 -51.881  15.856  1.00  0.00     0.165 HD
ENDBRANCH  17  18
ENDBRANCH  16  17
ENDBRANCH   5  16
TORSDOF 6
ENDMDL
MODEL 3
REMARK VINA RESULT:      -6.2      1.457      1.950
REMARK  6 active torsions:
REMARK  status: ('A' for Active; 'I' for Inactive)
REMARK    1  A    between atoms: N_2  and  C_3 
REMARK       I    between atoms: N_2  and  C_11 
REMARK    2  A    between atoms: C_3  and  C_4 
REMARK    3  A    between atoms: C_9  and  O_10 
REMARK       I    between atoms: C_11  and  N_13 
REMARK    4  A    between atoms: N_13  and  C_14 
REMARK    5  A    between atoms: C_14  and  C_15 
REMARK    6  A    between atoms: C_15  and  C_16 
ROOT
HETATM    1  C   UNL     1     -41.668 -54.225  13.282  1.00  0.00     0.154 C 
HETATM    2  N   UNL     1     -42.326 -52.951  13.007  1.00  0.00    -0.338 N 
HETATM    3  C   UNL     1     -41.556 -52.083  12.251  1.00  0.00     0.317 C 
HETATM    4  O   UNL     1     -40.474 -52.413  11.761  1.00  0.00    -0.247 OA
HETATM    5  N   UNL     1     -42.035 -50.819  12.121  1.00  0.00    -0.343 N 
HETATM    6  H   UNL     1     -43.031 -50.772  11.957  1.00  0.00     0.164 HD
ENDROOT
BRANCH   2   7
HETATM    7  C   UNL     1     -43.571 -52.604  13.747  1.00  0.00     0.134 C 
BRANCH   7   8
HETATM    8  C   UNL     1     -44.879 -53.217  13.156  1.00  0.00     0.032 C 
HETATM    9  C   UNL     1     -45.953 -52.170  12.770  1.00  0.00     0.009 C 
HETATM   10  C   UNL     1     -46.685 -51.520  13.951  1.00  0.00     0.001 C 
HETATM   11  C   UNL     1     -47.088 -52.482  15.072  1.00  0.00     0.002 C 
HETATM   12  C   UNL     1     -46.034 -53.540  15.374  1.00  0.00     0.032 C 
HETATM   13  C   UNL     1     -45.586 -54.221  14.083  1.00  0.00     0.123 C 
BRANCH  13  14
HETATM   14  O   UNL     1     -44.788 -55.356  14.369  1.00  0.00    -0.395 OA
HETATM   15  H   UNL     1     -43.928 -55.037  14.699  1.00  0.00     0.210 HD
ENDBRANCH  13  14
ENDBRANCH   7   8
ENDBRANCH   2   7
BRANCH   5  16
HETATM   16  C   UNL     1     -41.199 -49.855  11.455  1.00  0.00     0.129 C 
BRANCH  16  17
HETATM   17  C   UNL     1     -40.299 -49.104  12.435  1.00  0.00     0.060 C 
BRANCH  17  18
HETATM   18  C   UNL     1     -40.196 -47.673  12.013  1.00  0.00    -0.041 A 
HETATM   19  C   UNL     1     -39.607 -46.717  12.843  1.00  0.00     0.010 A 
HETATM   20  C   UNL     1     -39.651 -45.374  12.483  1.00  0.00     0.025 A 
HETATM   21  C   UNL     1     -40.275 -45.019  11.294  1.00  0.00     0.005 A 
HETATM   22  C   UNL     1     -40.402 -43.580  10.895  1.00  0.00     0.068 C 
HETATM   23  N   UNL     1     -40.834 -45.929  10.462  1.00  0.00    -0.369 N 
HETATM   24  C   UNL     1     -40.791 -47.223  10.839  1.00  0.00     0.095 A 
ATOM     25  HN  UNL     1     -41.272 -45.647   9.584  1.00  0.00     0.165 HD
ENDBRANCH  17  18
ENDBRANCH  16  17
ENDBRANCH   5  16
TORSDOF 6
ENDMDL
MODEL 4
REMARK VINA RESULT:      -6.2      2.498      6.611
REMARK  6 active torsions:
REMARK  status: ('A' for Active; 'I' for Inactive)
REMARK    1  A    between atoms: N_2  and  C_3 
REMARK       I    between atoms: N_2  and  C_11 
REMARK    2  A    between atoms: C_3  and  C_4 
REMARK    3  A    between atoms: C_9  and  O_10 
REMARK       I    between atoms: C_11  and  N_13 
REMARK    4  A    between atoms: N_13  and  C_14 
REMARK    5  A    between atoms: C_14  and  C_15 
REMARK    6  A    between atoms: C_15  and  C_16 
ROOT
HETATM    1  C   UNL     1     -38.995 -51.710  15.292  1.00  0.00     0.154 C 
HETATM    2  N   UNL     1     -40.245 -51.490  14.571  1.00  0.00    -0.338 N 
HETATM    3  C   UNL     1     -40.992 -52.643  14.394  1.00  0.00     0.317 C 
HETATM    4  O   UNL     1     -40.678 -53.719  14.906  1.00  0.00    -0.247 OA
HETATM    5  N   UNL     1     -42.067 -52.537  13.572  1.00  0.00    -0.343 N 
HETATM    6  H   UNL     1     -42.601 -51.690  13.702  1.00  0.00     0.164 HD
ENDROOT
BRANCH   2   7
HETATM    7  C   UNL     1     -40.467 -50.187  13.886  1.00  0.00     0.134 C 
BRANCH   7   8
HETATM    8  C   UNL     1     -39.586 -49.953  12.618  1.00  0.00     0.032 C 
HETATM    9  C   UNL     1     -38.838 -48.598  12.607  1.00  0.00     0.009 C 
HETATM   10  C   UNL     1     -39.715 -47.369  12.333  1.00  0.00     0.001 C 
HETATM   11  C   UNL     1     -40.753 -47.550  11.221  1.00  0.00     0.002 C 
HETATM   12  C   UNL     1     -41.416 -48.921  11.223  1.00  0.00     0.032 C 
HETATM   13  C   UNL     1     -40.357 -50.019  11.288  1.00  0.00     0.123 C 
BRANCH  13  14
HETATM   14  O   UNL     1     -40.940 -51.288  11.057  1.00  0.00    -0.395 OA
HETATM   15  H   UNL     1     -41.771 -51.147  10.567  1.00  0.00     0.210 HD
ENDBRANCH  13  14
ENDBRANCH   7   8
ENDBRANCH   2   7
BRANCH   5  16
HETATM   16  C   UNL     1     -42.788 -53.744  13.260  1.00  0.00     0.129 C 
BRANCH  16  17
HETATM   17  C   UNL     1     -44.083 -53.456  12.502  1.00  0.00     0.060 C 
BRANCH  17  18
HETATM   18  C   UNL     1     -45.122 -52.979  13.465  1.00  0.00    -0.041 A 
HETATM   19  C   UNL     1     -45.837 -51.802  13.231  1.00  0.00     0.010 A 
HETATM   20  C   UNL     1     -46.695 -51.313  14.211  1.00  0.00     0.025 A 
HETATM   21  C   UNL     1     -46.826 -52.018  15.401  1.00  0.00     0.005 A 
HETATM   22  C   UNL     1     -47.689 -51.498  16.509  1.00  0.00     0.068 C 
HETATM   23  N   UNL     1     -46.160 -53.172  15.643  1.00  0.00    -0.369 N 
HETATM   24  C   UNL     1     -45.325 -53.620  14.684  1.00  0.00     0.095 A 
ATOM     25  HN  UNL     1     -46.285 -53.683  16.517  1.00  0.00     0.165 HD
ENDBRANCH  17  18
ENDBRANCH  16  17
ENDBRANCH   5  16
TORSDOF 6
ENDMDL
MODEL 5
REMARK VINA RESULT:      -6.2      3.503      6.626
REMARK  6 active torsions:
REMARK  status: ('A' for Active; 'I' for Inactive)
REMARK    1  A    between atoms: N_2  and  C_3 
REMARK       I    between atoms: N_2  and  C_11 
REMARK    2  A    between atoms: C_3  and  C_4 
REMARK    3  A    between atoms: C_9  and  O_10 
REMARK       I    between atoms: C_11  and  N_13 
REMARK    4  A    between atoms: N_13  and  C_14 
REMARK    5  A    between atoms: C_14  and  C_15 
REMARK    6  A    between atoms: C_15  and  C_16 
ROOT
HETATM    1  C   UNL     1     -42.690 -55.559  15.734  1.00  0.00     0.154 C 
HETATM    2  N   UNL     1     -43.222 -54.569  14.803  1.00  0.00    -0.338 N 
HETATM    3  C   UNL     1     -44.528 -54.196  15.078  1.00  0.00     0.317 C 
HETATM    4  O   UNL     1     -45.127 -54.578  16.085  1.00  0.00    -0.247 OA
HETATM    5  N   UNL     1     -45.137 -53.424  14.144  1.00  0.00    -0.343 N 
HETATM    6  H   UNL     1     -44.549 -52.696  13.764  1.00  0.00     0.164 HD
ENDROOT
BRANCH   2   7
HETATM    7  C   UNL     1     -42.469 -54.271  13.554  1.00  0.00     0.134 C 
BRANCH   7   8
HETATM    8  C   UNL     1     -41.188 -53.400  13.751  1.00  0.00     0.032 C 
HETATM    9  C   UNL     1     -41.285 -52.385  14.917  1.00  0.00     0.009 C 
HETATM   10  C   UNL     1     -42.180 -51.168  14.651  1.00  0.00     0.001 C 
HETATM   11  C   UNL     1     -42.033 -50.547  13.258  1.00  0.00     0.002 C 
HETATM   12  C   UNL     1     -41.870 -51.577  12.147  1.00  0.00     0.032 C 
HETATM   13  C   UNL     1     -40.780 -52.581  12.514  1.00  0.00     0.123 C 
BRANCH  13  14
HETATM   14  O   UNL     1     -40.457 -53.396  11.402  1.00  0.00    -0.395 OA
HETATM   15  H   UNL     1     -41.266 -53.875  11.142  1.00  0.00     0.210 HD
ENDBRANCH  13  14
ENDBRANCH   7   8
ENDBRANCH   2   7
BRANCH   5  16
HETATM   16  C   UNL     1     -46.534 -53.127  14.332  1.00  0.00     0.129 C 
BRANCH  16  17
HETATM   17  C   UNL     1     -46.791 -51.623  14.427  1.00  0.00     0.060 C 
BRANCH  17  18
HETATM   18  C   UNL     1     -46.781 -51.212  15.864  1.00  0.00    -0.041 A 
HETATM   19  C   UNL     1     -47.955 -51.207  16.621  1.00  0.00     0.010 A 
HETATM   20  C   UNL     1     -47.939 -50.689  17.912  1.00  0.00     0.025 A 
HETATM   21  C   UNL     1     -46.744 -50.193  18.420  1.00  0.00     0.005 A 
HETATM   22  C   UNL     1     -46.691 -49.568  19.780  1.00  0.00     0.068 C 
HETATM   23  N   UNL     1     -45.589 -50.206  17.714  1.00  0.00    -0.369 N 
HETATM   24  C   UNL     1     -45.633 -50.702  16.461  1.00  0.00     0.095 A 
ATOM     25  HN  UNL     1     -44.719 -49.853  18.114  1.00  0.00     0.165 HD
ENDBRANCH  17  18
ENDBRANCH  16  17
ENDBRANCH   5  16
TORSDOF 6
ENDMDL
MODEL 6
REMARK VINA RESULT:      -6.0      2.696      4.926
REMARK  6 active torsions:
REMARK  status: ('A' for Active; 'I' for Inactive)
REMARK    1  A    between atoms: N_2  and  C_3 
REMARK       I    between atoms: N_2  and  C_11 
REMARK    2  A    between atoms: C_3  and  C_4 
REMARK    3  A    between atoms: C_9  and  O_10 
REMARK       I    between atoms: C_11  and  N_13 
REMARK    4  A    between atoms: N_13  and  C_14 
REMARK    5  A    between atoms: C_14  and  C_15 
REMARK    6  A    between atoms: C_15  and  C_16 
ROOT
HETATM    1  C   UNL     1     -43.313 -49.194  12.556  1.00  0.00     0.154 C 
HETATM    2  N   UNL     1     -43.071 -50.469  13.225  1.00  0.00    -0.338 N 
HETATM    3  C   UNL     1     -41.915 -51.105  12.803  1.00  0.00     0.317 C 
HETATM    4  O   UNL     1     -41.114 -50.576  12.029  1.00  0.00    -0.247 OA
HETATM    5  N   UNL     1     -41.735 -52.374  13.248  1.00  0.00    -0.343 N 
HETATM    6  H   UNL     1     -41.973 -52.506  14.221  1.00  0.00     0.164 HD
ENDROOT
BRANCH   2   7
HETATM    7  C   UNL     1     -44.157 -51.075  14.043  1.00  0.00     0.134 C 
BRANCH   7   8
HETATM    8  C   UNL     1     -45.415 -51.524  13.234  1.00  0.00     0.032 C 
HETATM    9  C   UNL     1     -46.750 -51.382  14.007  1.00  0.00     0.009 C 
HETATM   10  C   UNL     1     -46.979 -52.422  15.112  1.00  0.00     0.001 C 
HETATM   11  C   UNL     1     -46.590 -53.856  14.742  1.00  0.00     0.002 C 
HETATM   12  C   UNL     1     -45.310 -53.948  13.922  1.00  0.00     0.032 C 
HETATM   13  C   UNL     1     -45.368 -52.982  12.742  1.00  0.00     0.123 C 
BRANCH  13  14
HETATM   14  O   UNL     1     -44.297 -53.221  11.847  1.00  0.00    -0.395 OA
HETATM   15  H   UNL     1     -43.831 -52.376  11.710  1.00  0.00     0.210 HD
ENDBRANCH  13  14
ENDBRANCH   7   8
ENDBRANCH   2   7
BRANCH   5  16
HETATM   16  C   UNL     1     -40.614 -53.111  12.726  1.00  0.00     0.129 C 
BRANCH  16  17
HETATM   17  C   UNL     1     -39.664 -53.568  13.833  1.00  0.00     0.060 C 
BRANCH  17  18
HETATM   18  C   UNL     1     -38.871 -52.396  14.315  1.00  0.00    -0.041 A 
HETATM   19  C   UNL     1     -38.938 -51.978  15.646  1.00  0.00     0.010 A 
HETATM   20  C   UNL     1     -38.298 -50.804  16.031  1.00  0.00     0.025 A 
HETATM   21  C   UNL     1     -37.597 -50.079  15.076  1.00  0.00     0.005 A 
HETATM   22  C   UNL     1     -36.945 -48.777  15.429  1.00  0.00     0.068 C 
HETATM   23  N   UNL     1     -37.499 -50.474  13.785  1.00  0.00    -0.369 N 
HETATM   24  C   UNL     1     -38.138 -51.608  13.433  1.00  0.00     0.095 A 
ATOM     25  HN  UNL     1     -36.963 -49.935  13.104  1.00  0.00     0.165 HD
ENDBRANCH  17  18
ENDBRANCH  16  17
ENDBRANCH   5  16
TORSDOF 6
ENDMDL
MODEL 7
REMARK VINA RESULT:      -6.0      1.713      2.662
REMARK  6 active torsions:
REMARK  status: ('A' for Active; 'I' for Inactive)
REMARK    1  A    between atoms: N_2  and  C_3 
REMARK       I    between atoms: N_2  and  C_11 
REMARK    2  A    between atoms: C_3  and  C_4 
REMARK    3  A    between atoms: C_9  and  O_10 
REMARK       I    between atoms: C_11  and  N_13 
REMARK    4  A    between atoms: N_13  and  C_14 
REMARK    5  A    between atoms: C_14  and  C_15 
REMARK    6  A    between atoms: C_15  and  C_16 
ROOT
HETATM    1  C   UNL     1     -39.807 -53.890  13.794  1.00  0.00     0.154 C 
HETATM    2  N   UNL     1     -40.804 -53.216  12.968  1.00  0.00    -0.338 N 
HETATM    3  C   UNL     1     -40.381 -51.990  12.480  1.00  0.00     0.317 C 
HETATM    4  O   UNL     1     -39.230 -51.577  12.635  1.00  0.00    -0.247 OA
HETATM    5  N   UNL     1     -41.326 -51.235  11.865  1.00  0.00    -0.343 N 
HETATM    6  H   UNL     1     -41.936 -51.758  11.253  1.00  0.00     0.164 HD
ENDROOT
BRANCH   2   7
HETATM    7  C   UNL     1     -42.199 -53.734  12.949  1.00  0.00     0.134 C 
BRANCH   7   8
HETATM    8  C   UNL     1     -42.941 -53.671  14.322  1.00  0.00     0.032 C 
HETATM    9  C   UNL     1     -43.831 -54.903  14.618  1.00  0.00     0.009 C 
HETATM   10  C   UNL     1     -45.136 -54.975  13.815  1.00  0.00     0.001 C 
HETATM   11  C   UNL     1     -45.887 -53.647  13.679  1.00  0.00     0.002 C 
HETATM   12  C   UNL     1     -44.972 -52.449  13.458  1.00  0.00     0.032 C 
HETATM   13  C   UNL     1     -43.852 -52.443  14.496  1.00  0.00     0.123 C 
BRANCH  13  14
HETATM   14  O   UNL     1     -43.137 -51.222  14.450  1.00  0.00    -0.395 OA
HETATM   15  H   UNL     1     -43.733 -50.543  14.083  1.00  0.00     0.210 HD
ENDBRANCH  13  14
ENDBRANCH   7   8
ENDBRANCH   2   7
BRANCH   5  16
HETATM   16  C   UNL     1     -40.957 -49.902  11.463  1.00  0.00     0.129 C 
BRANCH  16  17
HETATM   17  C   UNL     1     -42.133 -48.930  11.557  1.00  0.00     0.060 C 
BRANCH  17  18
HETATM   18  C   UNL     1     -41.646 -47.541  11.296  1.00  0.00    -0.041 A 
HETATM   19  C   UNL     1     -40.286 -47.228  11.365  1.00  0.00     0.010 A 
HETATM   20  C   UNL     1     -39.879 -45.903  11.254  1.00  0.00     0.025 A 
HETATM   21  C   UNL     1     -40.843 -44.919  11.067  1.00  0.00     0.005 A 
HETATM   22  C   UNL     1     -40.459 -43.473  11.004  1.00  0.00     0.068 C 
HETATM   23  N   UNL     1     -42.164 -45.199  10.975  1.00  0.00    -0.369 N 
HETATM   24  C   UNL     1     -42.535 -46.490  11.099  1.00  0.00     0.095 A 
ATOM     25  HN  UNL     1     -42.853 -44.463  10.820  1.00  0.00     0.165 HD
ENDBRANCH  17  18
ENDBRANCH  16  17
ENDBRANCH   5  16
TORSDOF 6
ENDMDL
MODEL 8
REMARK VINA RESULT:      -5.9      2.129      6.702
REMARK  6 active torsions:
REMARK  status: ('A' for Active; 'I' for Inactive)
REMARK    1  A    between atoms: N_2  and  C_3 
REMARK       I    between atoms: N_2  and  C_11 
REMARK    2  A    between atoms: C_3  and  C_4 
REMARK    3  A    between atoms: C_9  and  O_10 
REMARK       I    between atoms: C_11  and  N_13 
REMARK    4  A    between atoms: N_13  and  C_14 
REMARK    5  A    between atoms: C_14  and  C_15 
REMARK    6  A    between atoms: C_15  and  C_16 
ROOT
HETATM    1  C   UNL     1     -38.745 -50.576  12.097  1.00  0.00     0.154 C 
HETATM    2  N   UNL     1     -40.194 -50.570  12.275  1.00  0.00    -0.338 N 
HETATM    3  C   UNL     1     -40.711 -51.802  12.643  1.00  0.00     0.317 C 
HETATM    4  O   UNL     1     -39.994 -52.767  12.910  1.00  0.00    -0.247 OA
HETATM    5  N   UNL     1     -42.064 -51.905  12.640  1.00  0.00    -0.343 N 
HETATM    6  H   UNL     1     -42.539 -51.102  13.027  1.00  0.00     0.164 HD
ENDROOT
BRANCH   2   7
HETATM    7  C   UNL     1     -40.977 -49.395  11.805  1.00  0.00     0.134 C 
BRANCH   7   8
HETATM    8  C   UNL     1     -40.540 -48.027  12.418  1.00  0.00     0.032 C 
HETATM    9  C   UNL     1     -40.969 -47.826  13.892  1.00  0.00     0.009 C 
HETATM   10  C   UNL     1     -42.462 -47.546  14.106  1.00  0.00     0.001 C 
HETATM   11  C   UNL     1     -43.086 -46.567  13.108  1.00  0.00     0.002 C 
HETATM   12  C   UNL     1     -42.586 -46.750  11.681  1.00  0.00     0.032 C 
HETATM   13  C   UNL     1     -41.060 -46.794  11.658  1.00  0.00     0.123 C 
BRANCH  13  14
HETATM   14  O   UNL     1     -40.579 -46.729  10.328  1.00  0.00    -0.395 OA
HETATM   15  H   UNL     1     -41.217 -47.198   9.759  1.00  0.00     0.210 HD
ENDBRANCH  13  14
ENDBRANCH   7   8
ENDBRANCH   2   7
BRANCH   5  16
HETATM   16  C   UNL     1     -42.634 -53.205  12.888  1.00  0.00     0.129 C 
BRANCH  16  17
HETATM   17  C   UNL     1     -44.034 -53.339  12.291  1.00  0.00     0.060 C 
BRANCH  17  18
HETATM   18  C   UNL     1     -45.045 -52.914  13.307  1.00  0.00    -0.041 A 
HETATM   19  C   UNL     1     -45.849 -51.791  13.099  1.00  0.00     0.010 A 
HETATM   20  C   UNL     1     -46.680 -51.342  14.120  1.00  0.00     0.025 A 
HETATM   21  C   UNL     1     -46.695 -52.033  15.325  1.00  0.00     0.005 A 
HETATM   22  C   UNL     1     -47.526 -51.551  16.474  1.00  0.00     0.068 C 
HETATM   23  N   UNL     1     -45.942 -53.136  15.544  1.00  0.00    -0.369 N 
HETATM   24  C   UNL     1     -45.135 -53.545  14.544  1.00  0.00     0.095 A 
ATOM     25  HN  UNL     1     -45.982 -53.639  16.431  1.00  0.00     0.165 HD
ENDBRANCH  17  18
ENDBRANCH  16  17
ENDBRANCH   5  16
TORSDOF 6
ENDMDL
MODEL 9
REMARK VINA RESULT:      -5.9      2.698      6.989
REMARK  6 active torsions:
REMARK  status: ('A' for Active; 'I' for Inactive)
REMARK    1  A    between atoms: N_2  and  C_3 
REMARK       I    between atoms: N_2  and  C_11 
REMARK    2  A    between atoms: C_3  and  C_4 
REMARK    3  A    between atoms: C_9  and  O_10 
REMARK       I    between atoms: C_11  and  N_13 
REMARK    4  A    between atoms: N_13  and  C_14 
REMARK    5  A    between atoms: C_14  and  C_15 
REMARK    6  A    between atoms: C_15  and  C_16 
ROOT
HETATM    1  C   UNL     1     -38.926 -46.750  14.109  1.00  0.00     0.154 C 
HETATM    2  N   UNL     1     -39.960 -47.733  13.803  1.00  0.00    -0.338 N 
HETATM    3  C   UNL     1     -39.626 -49.024  14.178  1.00  0.00     0.317 C 
HETATM    4  O   UNL     1     -38.604 -49.283  14.818  1.00  0.00    -0.247 OA
HETATM    5  N   UNL     1     -40.461 -50.005  13.753  1.00  0.00    -0.343 N 
HETATM    6  H   UNL     1     -41.441 -49.772  13.828  1.00  0.00     0.164 HD
ENDROOT
BRANCH   2   7
HETATM    7  C   UNL     1     -41.093 -47.343  12.918  1.00  0.00     0.134 C 
BRANCH   7   8
HETATM    8  C   UNL     1     -40.788 -47.422  11.389  1.00  0.00     0.032 C 
HETATM    9  C   UNL     1     -40.771 -46.048  10.674  1.00  0.00     0.009 C 
HETATM   10  C   UNL     1     -42.147 -45.407  10.457  1.00  0.00     0.001 C 
HETATM   11  C   UNL     1     -43.244 -46.370   9.992  1.00  0.00     0.002 C 
HETATM   12  C   UNL     1     -43.184 -47.733  10.667  1.00  0.00     0.032 C 
HETATM   13  C   UNL     1     -41.768 -48.298  10.590  1.00  0.00     0.123 C 
BRANCH  13  14
HETATM   14  O   UNL     1     -41.749 -49.654  11.001  1.00  0.00    -0.395 OA
HETATM   15  H   UNL     1     -42.314 -49.730  11.792  1.00  0.00     0.210 HD
ENDBRANCH  13  14
ENDBRANCH   7   8
ENDBRANCH   2   7
BRANCH   5  16
HETATM   16  C   UNL     1     -40.075 -51.368  14.011  1.00  0.00     0.129 C 
BRANCH  16  17
HETATM   17  C   UNL     1     -40.483 -52.303  12.873  1.00  0.00     0.060 C 
BRANCH  17  18
HETATM   18  C   UNL     1     -41.780 -52.961  13.218  1.00  0.00    -0.041 A 
HETATM   19  C   UNL     1     -41.851 -53.939  14.213  1.00  0.00     0.010 A 
HETATM   20  C   UNL     1     -43.042 -54.629  14.414  1.00  0.00     0.025 A 
HETATM   21  C   UNL     1     -44.139 -54.320  13.619  1.00  0.00     0.005 A 
HETATM   22  C   UNL     1     -45.422 -55.080  13.756  1.00  0.00     0.068 C 
HETATM   23  N   UNL     1     -44.101 -53.363  12.662  1.00  0.00    -0.369 N 
HETATM   24  C   UNL     1     -42.932 -52.716  12.478  1.00  0.00     0.095 A 
ATOM     25  HN  UNL     1     -44.924 -53.140  12.102  1.00  0.00     0.165 HD
ENDBRANCH  17  18
ENDBRANCH  16  17
ENDBRANCH   5  16
TORSDOF 6
ENDMDL
