MODEL 1
REMARK VINA RESULT:      -5.0      0.000      0.000
REMARK  4 active torsions:
REMARK  status: ('A' for Active; 'I' for Inactive)
REMARK    1  A    between atoms: N_1  and  C_2 
REMARK    2  A    between atoms: N_6  and  C_7 
REMARK    3  A    between atoms: C_7  and  C_8 
REMARK       I    between atoms: C_8  and  N_10 
REMARK    4  A    between atoms: N_10  and  C_11 
ROOT
HETATM    1  C   UNL     1     -44.342 -46.543   9.048  1.00  0.00     0.060 A 
HETATM    2  C   UNL     1     -43.724 -47.642   8.424  1.00  0.00     0.137 A 
HETATM    3  N   UNL     1     -42.551 -47.947   8.992  1.00  0.00    -0.307 N 
ATOM      4  HN  UNL     1     -41.916 -48.711   8.760  1.00  0.00     0.186 HD
HETATM    5  N   UNL     1     -42.409 -47.000   9.945  1.00  0.00    -0.293 N 
HETATM    6  C   UNL     1     -43.469 -46.140  10.021  1.00  0.00     0.141 A 
ENDROOT
BRANCH   5   7
HETATM    7  C   UNL     1     -41.188 -46.954  10.725  1.00  0.00     0.250 C 
BRANCH   7   8
HETATM    8  C   UNL     1     -40.744 -48.328  11.160  1.00  0.00     0.237 C 
HETATM    9  O   UNL     1     -41.555 -49.225  11.380  1.00  0.00    -0.272 OA
HETATM   10  N   UNL     1     -39.376 -48.487  11.313  1.00  0.00    -0.355 N 
HETATM   11  H   UNL     1     -38.760 -47.755  10.969  1.00  0.00     0.162 HD
BRANCH  10  12
HETATM   12  C   UNL     1     -38.805 -49.763  11.617  1.00  0.00     0.084 A 
HETATM   13  C   UNL     1     -37.750 -49.912  12.679  1.00  0.00     0.027 A 
HETATM   14  C   UNL     1     -37.388 -50.085  11.233  1.00  0.00     0.027 A 
ENDBRANCH  10  12
ENDBRANCH   7   8
ENDBRANCH   5   7
BRANCH   1  15
HETATM   15  N   UNL     1     -45.523 -45.979   8.771  1.00  0.00    -0.397 N 
HETATM   16  H   UNL     1     -45.602 -45.032   8.413  1.00  0.00     0.156 HD
HETATM   17  H   UNL     1     -46.370 -46.530   8.663  1.00  0.00     0.156 HD
ENDBRANCH   1  15
TORSDOF 4
ENDMDL
MODEL 2
REMARK VINA RESULT:      -4.8      2.809      3.359
REMARK  4 active torsions:
REMARK  status: ('A' for Active; 'I' for Inactive)
REMARK    1  A    between atoms: N_1  and  C_2 
REMARK    2  A    between atoms: N_6  and  C_7 
REMARK    3  A    between atoms: C_7  and  C_8 
REMARK       I    between atoms: C_8  and  N_10 
REMARK    4  A    between atoms: N_10  and  C_11 
ROOT
HETATM    1  C   UNL     1     -44.927 -47.525   8.812  1.00  0.00     0.060 A 
HETATM    2  C   UNL     1     -43.929 -47.880   7.886  1.00  0.00     0.137 A 
HETATM    3  N   UNL     1     -42.725 -47.985   8.463  1.00  0.00    -0.307 N 
ATOM      4  HN  UNL     1     -41.841 -48.257   8.034  1.00  0.00     0.186 HD
HETATM    5  N   UNL     1     -42.963 -47.644   9.748  1.00  0.00    -0.293 N 
HETATM    6  C   UNL     1     -44.277 -47.369  10.005  1.00  0.00     0.141 A 
ENDROOT
BRANCH   5   7
HETATM    7  C   UNL     1     -41.853 -47.555  10.676  1.00  0.00     0.250 C 
BRANCH   7   8
HETATM    8  C   UNL     1     -41.185 -46.204  10.629  1.00  0.00     0.237 C 
HETATM    9  O   UNL     1     -41.490 -45.366   9.784  1.00  0.00    -0.272 OA
HETATM   10  N   UNL     1     -40.200 -45.998  11.582  1.00  0.00    -0.355 N 
HETATM   11  H   UNL     1     -40.107 -46.671  12.339  1.00  0.00     0.162 HD
BRANCH  10  12
HETATM   12  C   UNL     1     -39.556 -44.728  11.724  1.00  0.00     0.084 A 
HETATM   13  C   UNL     1     -38.867 -44.342  13.004  1.00  0.00     0.027 A 
HETATM   14  C   UNL     1     -40.143 -43.660  12.605  1.00  0.00     0.027 A 
ENDBRANCH  10  12
ENDBRANCH   7   8
ENDBRANCH   5   7
BRANCH   1  15
HETATM   15  N   UNL     1     -46.239 -47.358   8.605  1.00  0.00    -0.397 N 
HETATM   16  H   UNL     1     -46.706 -47.708   7.775  1.00  0.00     0.156 HD
HETATM   17  H   UNL     1     -46.873 -47.104   9.357  1.00  0.00     0.156 HD
ENDBRANCH   1  15
TORSDOF 4
ENDMDL
MODEL 3
REMARK VINA RESULT:      -4.6      2.586      6.104
REMARK  4 active torsions:
REMARK  status: ('A' for Active; 'I' for Inactive)
REMARK    1  A    between atoms: N_1  and  C_2 
REMARK    2  A    between atoms: N_6  and  C_7 
REMARK    3  A    between atoms: C_7  and  C_8 
REMARK       I    between atoms: C_8  and  N_10 
REMARK    4  A    between atoms: N_10  and  C_11 
ROOT
HETATM    1  C   UNL     1     -40.102 -52.335  13.301  1.00  0.00     0.060 A 
HETATM    2  C   UNL     1     -40.916 -52.682  12.207  1.00  0.00     0.137 A 
HETATM    3  N   UNL     1     -41.036 -51.676  11.333  1.00  0.00    -0.307 N 
ATOM      4  HN  UNL     1     -41.537 -51.668  10.444  1.00  0.00     0.186 HD
HETATM    5  N   UNL     1     -40.333 -50.675  11.907  1.00  0.00    -0.293 N 
HETATM    6  C   UNL     1     -39.745 -51.032  13.089  1.00  0.00     0.141 A 
ENDROOT
BRANCH   5   7
HETATM    7  C   UNL     1     -40.311 -49.370  11.278  1.00  0.00     0.250 C 
BRANCH   7   8
HETATM    8  C   UNL     1     -41.701 -48.838  11.033  1.00  0.00     0.237 C 
HETATM    9  O   UNL     1     -42.602 -48.992  11.855  1.00  0.00    -0.272 OA
HETATM   10  N   UNL     1     -41.882 -48.195   9.818  1.00  0.00    -0.355 N 
HETATM   11  H   UNL     1     -41.063 -47.972   9.259  1.00  0.00     0.162 HD
BRANCH  10  12
HETATM   12  C   UNL     1     -43.117 -47.549   9.497  1.00  0.00     0.084 A 
HETATM   13  C   UNL     1     -43.692 -47.613   8.108  1.00  0.00     0.027 A 
HETATM   14  C   UNL     1     -43.141 -46.319   8.632  1.00  0.00     0.027 A 
ENDBRANCH  10  12
ENDBRANCH   7   8
ENDBRANCH   5   7
BRANCH   1  15
HETATM   15  N   UNL     1     -39.740 -53.088  14.347  1.00  0.00    -0.397 N 
HETATM   16  H   UNL     1     -39.264 -52.700  15.156  1.00  0.00     0.156 HD
HETATM   17  H   UNL     1     -40.131 -54.012  14.505  1.00  0.00     0.156 HD
ENDBRANCH   1  15
TORSDOF 4
ENDMDL
MODEL 4
REMARK VINA RESULT:      -4.6      6.870      8.864
REMARK  4 active torsions:
REMARK  status: ('A' for Active; 'I' for Inactive)
REMARK    1  A    between atoms: N_1  and  C_2 
REMARK    2  A    between atoms: N_6  and  C_7 
REMARK    3  A    between atoms: C_7  and  C_8 
REMARK       I    between atoms: C_8  and  N_10 
REMARK    4  A    between atoms: N_10  and  C_11 
ROOT
HETATM    1  C   UNL     1     -40.279 -53.593  13.942  1.00  0.00     0.060 A 
HETATM    2  C   UNL     1     -40.945 -53.647  12.704  1.00  0.00     0.137 A 
HETATM    3  N   UNL     1     -42.188 -54.129  12.825  1.00  0.00    -0.307 N 
ATOM      4  HN  UNL     1     -42.895 -54.244  12.098  1.00  0.00     0.186 HD
HETATM    5  N   UNL     1     -42.283 -54.427  14.140  1.00  0.00    -0.293 N 
HETATM    6  C   UNL     1     -41.159 -54.110  14.852  1.00  0.00     0.141 A 
ENDROOT
BRANCH   5   7
HETATM    7  C   UNL     1     -43.484 -55.067  14.638  1.00  0.00     0.250 C 
BRANCH   7   8
HETATM    8  C   UNL     1     -44.733 -54.445  14.067  1.00  0.00     0.237 C 
HETATM    9  O   UNL     1     -45.246 -54.867  13.033  1.00  0.00    -0.272 OA
HETATM   10  N   UNL     1     -45.233 -53.364  14.775  1.00  0.00    -0.355 N 
HETATM   11  H   UNL     1     -44.850 -53.167  15.696  1.00  0.00     0.162 HD
BRANCH  10  12
HETATM   12  C   UNL     1     -46.469 -52.743  14.411  1.00  0.00     0.084 A 
HETATM   13  C   UNL     1     -46.497 -51.486  13.585  1.00  0.00     0.027 A 
HETATM   14  C   UNL     1     -46.890 -51.440  15.032  1.00  0.00     0.027 A 
ENDBRANCH  10  12
ENDBRANCH   7   8
ENDBRANCH   5   7
BRANCH   1  15
HETATM   15  N   UNL     1     -39.046 -53.147  14.210  1.00  0.00    -0.397 N 
HETATM   16  H   UNL     1     -38.641 -52.350  13.729  1.00  0.00     0.156 HD
HETATM   17  H   UNL     1     -38.552 -53.408  15.059  1.00  0.00     0.156 HD
ENDBRANCH   1  15
TORSDOF 4
ENDMDL
MODEL 5
REMARK VINA RESULT:      -4.5      3.572      5.167
REMARK  4 active torsions:
REMARK  status: ('A' for Active; 'I' for Inactive)
REMARK    1  A    between atoms: N_1  and  C_2 
REMARK    2  A    between atoms: N_6  and  C_7 
REMARK    3  A    between atoms: C_7  and  C_8 
REMARK       I    between atoms: C_8  and  N_10 
REMARK    4  A    between atoms: N_10  and  C_11 
ROOT
HETATM    1  C   UNL     1     -44.900 -47.817   8.530  1.00  0.00     0.060 A 
HETATM    2  C   UNL     1     -43.635 -47.725   7.922  1.00  0.00     0.137 A 
HETATM    3  N   UNL     1     -42.697 -47.301   8.777  1.00  0.00    -0.307 N 
ATOM      4  HN  UNL     1     -41.699 -47.177   8.610  1.00  0.00     0.186 HD
HETATM    5  N   UNL     1     -43.390 -47.077   9.916  1.00  0.00    -0.293 N 
HETATM    6  C   UNL     1     -44.718 -47.384   9.814  1.00  0.00     0.141 A 
ENDROOT
BRANCH   5   7
HETATM    7  C   UNL     1     -42.707 -46.513  11.063  1.00  0.00     0.250 C 
BRANCH   7   8
HETATM    8  C   UNL     1     -42.232 -45.105  10.801  1.00  0.00     0.237 C 
HETATM    9  O   UNL     1     -41.201 -44.883  10.171  1.00  0.00    -0.272 OA
HETATM   10  N   UNL     1     -43.024 -44.104  11.341  1.00  0.00    -0.355 N 
HETATM   11  H   UNL     1     -43.935 -44.354  11.716  1.00  0.00     0.162 HD
BRANCH  10  12
HETATM   12  C   UNL     1     -42.754 -42.723  11.083  1.00  0.00     0.084 A 
HETATM   13  C   UNL     1     -42.455 -41.765  12.203  1.00  0.00     0.027 A 
HETATM   14  C   UNL     1     -43.751 -41.660  11.455  1.00  0.00     0.027 A 
ENDBRANCH  10  12
ENDBRANCH   7   8
ENDBRANCH   5   7
BRANCH   1  15
HETATM   15  N   UNL     1     -46.058 -48.226   7.996  1.00  0.00    -0.397 N 
HETATM   16  H   UNL     1     -46.443 -49.148   8.177  1.00  0.00     0.156 HD
HETATM   17  H   UNL     1     -46.727 -47.572   7.598  1.00  0.00     0.156 HD
ENDBRANCH   1  15
TORSDOF 4
ENDMDL
MODEL 6
REMARK VINA RESULT:      -4.5      2.942      5.927
REMARK  4 active torsions:
REMARK  status: ('A' for Active; 'I' for Inactive)
REMARK    1  A    between atoms: N_1  and  C_2 
REMARK    2  A    between atoms: N_6  and  C_7 
REMARK    3  A    between atoms: C_7  and  C_8 
REMARK       I    between atoms: C_8  and  N_10 
REMARK    4  A    between atoms: N_10  and  C_11 
ROOT
HETATM    1  C   UNL     1     -40.409 -44.980  12.337  1.00  0.00     0.060 A 
HETATM    2  C   UNL     1     -41.783 -44.703  12.457  1.00  0.00     0.137 A 
HETATM    3  N   UNL     1     -42.534 -45.598  11.805  1.00  0.00    -0.307 N 
ATOM      4  HN  UNL     1     -43.552 -45.652  11.755  1.00  0.00     0.186 HD
HETATM    5  N   UNL     1     -41.623 -46.413  11.230  1.00  0.00    -0.293 N 
HETATM    6  C   UNL     1     -40.331 -46.084  11.533  1.00  0.00     0.141 A 
ENDROOT
BRANCH   5   7
HETATM    7  C   UNL     1     -42.073 -47.474  10.351  1.00  0.00     0.250 C 
BRANCH   7   8
HETATM    8  C   UNL     1     -43.201 -47.024   9.456  1.00  0.00     0.237 C 
HETATM    9  O   UNL     1     -43.093 -46.035   8.735  1.00  0.00    -0.272 OA
HETATM   10  N   UNL     1     -44.354 -47.788   9.530  1.00  0.00    -0.355 N 
HETATM   11  H   UNL     1     -44.320 -48.674  10.029  1.00  0.00     0.162 HD
BRANCH  10  12
HETATM   12  C   UNL     1     -45.465 -47.544   8.662  1.00  0.00     0.084 A 
HETATM   13  C   UNL     1     -46.826 -47.216   9.211  1.00  0.00     0.027 A 
HETATM   14  C   UNL     1     -46.586 -48.539   8.545  1.00  0.00     0.027 A 
ENDBRANCH  10  12
ENDBRANCH   7   8
ENDBRANCH   5   7
BRANCH   1  15
HETATM   15  N   UNL     1     -39.372 -44.324  12.872  1.00  0.00    -0.397 N 
HETATM   16  H   UNL     1     -39.008 -43.466  12.470  1.00  0.00     0.156 HD
HETATM   17  H   UNL     1     -39.059 -44.498  13.823  1.00  0.00     0.156 HD
ENDBRANCH   1  15
TORSDOF 4
ENDMDL
MODEL 7
REMARK VINA RESULT:      -4.4      6.119      7.834
REMARK  4 active torsions:
REMARK  status: ('A' for Active; 'I' for Inactive)
REMARK    1  A    between atoms: N_1  and  C_2 
REMARK    2  A    between atoms: N_6  and  C_7 
REMARK    3  A    between atoms: C_7  and  C_8 
REMARK       I    between atoms: C_8  and  N_10 
REMARK    4  A    between atoms: N_10  and  C_11 
ROOT
HETATM    1  C   UNL     1     -41.054 -51.829  12.132  1.00  0.00     0.060 A 
HETATM    2  C   UNL     1     -40.269 -52.145  13.255  1.00  0.00     0.137 A 
HETATM    3  N   UNL     1     -40.810 -53.130  13.983  1.00  0.00    -0.307 N 
ATOM      4  HN  UNL     1     -40.438 -53.572  14.823  1.00  0.00     0.186 HD
HETATM    5  N   UNL     1     -41.968 -53.397  13.338  1.00  0.00    -0.293 N 
HETATM    6  C   UNL     1     -42.149 -52.644  12.212  1.00  0.00     0.141 A 
ENDROOT
BRANCH   5   7
HETATM    7  C   UNL     1     -42.885 -54.369  13.898  1.00  0.00     0.250 C 
BRANCH   7   8
HETATM    8  C   UNL     1     -44.322 -54.029  13.594  1.00  0.00     0.237 C 
HETATM    9  O   UNL     1     -44.927 -54.564  12.667  1.00  0.00    -0.272 OA
HETATM   10  N   UNL     1     -44.888 -53.064  14.413  1.00  0.00    -0.355 N 
HETATM   11  H   UNL     1     -44.383 -52.778  15.247  1.00  0.00     0.162 HD
BRANCH  10  12
HETATM   12  C   UNL     1     -46.272 -52.719  14.309  1.00  0.00     0.084 A 
HETATM   13  C   UNL     1     -46.705 -51.389  13.756  1.00  0.00     0.027 A 
HETATM   14  C   UNL     1     -46.879 -51.686  15.216  1.00  0.00     0.027 A 
ENDBRANCH  10  12
ENDBRANCH   7   8
ENDBRANCH   5   7
BRANCH   1  15
HETATM   15  N   UNL     1     -40.817 -50.925  11.173  1.00  0.00    -0.397 N 
HETATM   16  H   UNL     1     -41.561 -50.389  10.737  1.00  0.00     0.156 HD
HETATM   17  H   UNL     1     -39.888 -50.548  11.008  1.00  0.00     0.156 HD
ENDBRANCH   1  15
TORSDOF 4
ENDMDL
MODEL 8
REMARK VINA RESULT:      -4.3      6.184      8.736
REMARK  4 active torsions:
REMARK  status: ('A' for Active; 'I' for Inactive)
REMARK    1  A    between atoms: N_1  and  C_2 
REMARK    2  A    between atoms: N_6  and  C_7 
REMARK    3  A    between atoms: C_7  and  C_8 
REMARK       I    between atoms: C_8  and  N_10 
REMARK    4  A    between atoms: N_10  and  C_11 
ROOT
HETATM    1  C   UNL     1     -39.853 -54.602  14.591  1.00  0.00     0.060 A 
HETATM    2  C   UNL     1     -41.051 -54.575  15.327  1.00  0.00     0.137 A 
HETATM    3  N   UNL     1     -42.049 -54.006  14.639  1.00  0.00    -0.307 N 
ATOM      4  HN  UNL     1     -43.022 -53.887  14.919  1.00  0.00     0.186 HD
HETATM    5  N   UNL     1     -41.458 -53.629  13.484  1.00  0.00    -0.293 N 
HETATM    6  C   UNL     1     -40.138 -53.978  13.408  1.00  0.00     0.141 A 
ENDROOT
BRANCH   5   7
HETATM    7  C   UNL     1     -42.223 -52.885  12.504  1.00  0.00     0.250 C 
BRANCH   7   8
HETATM    8  C   UNL     1     -43.684 -53.259  12.526  1.00  0.00     0.237 C 
HETATM    9  O   UNL     1     -44.048 -54.432  12.463  1.00  0.00    -0.272 OA
HETATM   10  N   UNL     1     -44.567 -52.193  12.597  1.00  0.00    -0.355 N 
HETATM   11  H   UNL     1     -44.197 -51.268  12.799  1.00  0.00     0.162 HD
BRANCH  10  12
HETATM   12  C   UNL     1     -45.976 -52.402  12.733  1.00  0.00     0.084 A 
HETATM   13  C   UNL     1     -46.967 -51.452  12.119  1.00  0.00     0.027 A 
HETATM   14  C   UNL     1     -46.807 -51.508  13.610  1.00  0.00     0.027 A 
ENDBRANCH  10  12
ENDBRANCH   7   8
ENDBRANCH   5   7
BRANCH   1  15
HETATM   15  N   UNL     1     -38.666 -55.112  14.943  1.00  0.00    -0.397 N 
HETATM   16  H   UNL     1     -38.029 -55.520  14.266  1.00  0.00     0.156 HD
HETATM   17  H   UNL     1     -38.234 -54.899  15.838  1.00  0.00     0.156 HD
ENDBRANCH   1  15
TORSDOF 4
ENDMDL
MODEL 9
REMARK VINA RESULT:      -4.3      4.401      6.188
REMARK  4 active torsions:
REMARK  status: ('A' for Active; 'I' for Inactive)
REMARK    1  A    between atoms: N_1  and  C_2 
REMARK    2  A    between atoms: N_6  and  C_7 
REMARK    3  A    between atoms: C_7  and  C_8 
REMARK       I    between atoms: C_8  and  N_10 
REMARK    4  A    between atoms: N_10  and  C_11 
ROOT
HETATM    1  C   UNL     1     -40.331 -49.048  11.480  1.00  0.00     0.060 A 
HETATM    2  C   UNL     1     -41.713 -48.788  11.478  1.00  0.00     0.137 A 
HETATM    3  N   UNL     1     -42.429 -49.879  11.776  1.00  0.00    -0.307 N 
ATOM      4  HN  UNL     1     -43.441 -49.963  11.875  1.00  0.00     0.186 HD
HETATM    5  N   UNL     1     -41.491 -50.841  11.917  1.00  0.00    -0.293 N 
HETATM    6  C   UNL     1     -40.213 -50.382  11.757  1.00  0.00     0.141 A 
ENDROOT
BRANCH   5   7
HETATM    7  C   UNL     1     -41.906 -52.208  12.161  1.00  0.00     0.250 C 
BRANCH   7   8
HETATM    8  C   UNL     1     -43.211 -52.275  12.915  1.00  0.00     0.237 C 
HETATM    9  O   UNL     1     -43.275 -52.004  14.113  1.00  0.00    -0.272 OA
HETATM   10  N   UNL     1     -44.305 -52.684  12.169  1.00  0.00    -0.355 N 
HETATM   11  H   UNL     1     -44.209 -52.743  11.159  1.00  0.00     0.162 HD
BRANCH  10  12
HETATM   12  C   UNL     1     -45.623 -52.692  12.726  1.00  0.00     0.084 A 
HETATM   13  C   UNL     1     -46.773 -52.035  12.014  1.00  0.00     0.027 A 
HETATM   14  C   UNL     1     -46.234 -51.435  13.279  1.00  0.00     0.027 A 
ENDBRANCH  10  12
ENDBRANCH   7   8
ENDBRANCH   5   7
BRANCH   1  15
HETATM   15  N   UNL     1     -39.319 -48.201  11.255  1.00  0.00    -0.397 N 
HETATM   16  H   UNL     1     -38.349 -48.499  11.269  1.00  0.00     0.156 HD
HETATM   17  H   UNL     1     -39.464 -47.295  10.819  1.00  0.00     0.156 HD
ENDBRANCH   1  15
TORSDOF 4
ENDMDL
