MODEL 1
REMARK VINA RESULT:      -5.2      0.000      0.000
REMARK  7 active torsions:
REMARK  status: ('A' for Active; 'I' for Inactive)
REMARK    1  A    between atoms: N_6  and  C_7 
REMARK    2  A    between atoms: C_7  and  C_8 
REMARK    3  A    between atoms: C_8  and  O_9 
REMARK    4  A    between atoms: C_8  and  C_10 
REMARK    5  A    between atoms: C_10  and  O_11 
REMARK    6  A    between atoms: O_11  and  C_12 
REMARK    7  A    between atoms: C_12  and  C_13 
ROOT
HETATM    1  C   UNL     1     -41.133 -52.495  12.968  1.00  0.00     0.160 C 
ENDROOT
BRANCH   1   2
HETATM    2  C   UNL     1     -41.868 -53.851  12.937  1.00  0.00     0.166 C 
BRANCH   2   3
HETATM    3  N   UNL     1     -42.805 -54.018  14.043  1.00  0.00    -0.307 N 
HETATM    4  C   UNL     1     -42.383 -53.857  15.334  1.00  0.00     0.186 A 
HETATM    5  N   UNL     1     -43.138 -53.951  16.377  1.00  0.00    -0.355 N 
HETATM    6  C   UNL     1     -44.466 -54.226  16.171  1.00  0.00     0.017 A 
ATOM      7  HN  UNL     1     -42.762 -53.826  17.318  1.00  0.00     0.166 HD
HETATM    8  C   UNL     1     -45.289 -54.293  17.435  1.00  0.00     0.069 C 
HETATM    9  C   UNL     1     -45.014 -54.431  14.958  1.00  0.00     0.028 A 
HETATM   10  C   UNL     1     -44.116 -54.344  13.774  1.00  0.00     0.256 A 
HETATM   11  C   UNL     1     -46.463 -54.728  14.725  1.00  0.00     0.056 C 
HETATM   12  O   UNL     1     -44.536 -54.541  12.634  1.00  0.00    -0.267 OA
ENDBRANCH   2   3
ENDBRANCH   1   2
BRANCH   1  13
HETATM   13  O   UNL     1     -39.920 -52.509  12.210  1.00  0.00    -0.392 OA
HETATM   14  H   UNL     1     -39.636 -51.586  12.059  1.00  0.00     0.210 HD
ENDBRANCH   1  13
BRANCH   1  15
HETATM   15  C   UNL     1     -42.035 -51.383  12.414  1.00  0.00     0.201 C 
BRANCH  15  16
HETATM   16  O   UNL     1     -42.821 -50.844  13.470  1.00  0.00    -0.384 OA
BRANCH  16  17
HETATM   17  C   UNL     1     -44.203 -50.771  13.129  1.00  0.00     0.206 C 
BRANCH  17  18
HETATM   18  C   UNL     1     -44.999 -50.845  14.407  1.00  0.00    -0.035 A 
HETATM   19  C   UNL     1     -46.350 -51.221  14.371  1.00  0.00     0.009 A 
HETATM   20  C   UNL     1     -47.101 -51.283  15.544  1.00  0.00     0.001 A 
HETATM   21  C   UNL     1     -46.508 -50.971  16.766  1.00  0.00     0.000 A 
HETATM   22  C   UNL     1     -45.165 -50.601  16.815  1.00  0.00     0.001 A 
HETATM   23  C   UNL     1     -44.412 -50.538  15.641  1.00  0.00     0.009 A 
ENDBRANCH  17  18
ENDBRANCH  16  17
ENDBRANCH  15  16
ENDBRANCH   1  15
TORSDOF 7
ENDMDL
MODEL 2
REMARK VINA RESULT:      -5.2      3.230      5.890
REMARK  7 active torsions:
REMARK  status: ('A' for Active; 'I' for Inactive)
REMARK    1  A    between atoms: N_6  and  C_7 
REMARK    2  A    between atoms: C_7  and  C_8 
REMARK    3  A    between atoms: C_8  and  O_9 
REMARK    4  A    between atoms: C_8  and  C_10 
REMARK    5  A    between atoms: C_10  and  O_11 
REMARK    6  A    between atoms: O_11  and  C_12 
REMARK    7  A    between atoms: C_12  and  C_13 
ROOT
HETATM    1  C   UNL     1     -40.936 -52.517  12.446  1.00  0.00     0.160 C 
ENDROOT
BRANCH   1   2
HETATM    2  C   UNL     1     -39.787 -51.551  12.799  1.00  0.00     0.166 C 
BRANCH   2   3
HETATM    3  N   UNL     1     -40.010 -50.195  12.306  1.00  0.00    -0.307 N 
HETATM    4  C   UNL     1     -40.676 -49.991  11.129  1.00  0.00     0.186 A 
HETATM    5  N   UNL     1     -40.951 -48.835  10.624  1.00  0.00    -0.355 N 
HETATM    6  C   UNL     1     -40.550 -47.729  11.328  1.00  0.00     0.017 A 
ATOM      7  HN  UNL     1     -41.447 -48.748   9.737  1.00  0.00     0.166 HD
HETATM    8  C   UNL     1     -40.930 -46.415  10.689  1.00  0.00     0.069 C 
HETATM    9  C   UNL     1     -39.865 -47.780  12.487  1.00  0.00     0.028 A 
HETATM   10  C   UNL     1     -39.537 -49.125  13.033  1.00  0.00     0.256 A 
HETATM   11  C   UNL     1     -39.426 -46.577  13.263  1.00  0.00     0.056 C 
HETATM   12  O   UNL     1     -38.895 -49.256  14.075  1.00  0.00    -0.267 OA
ENDBRANCH   2   3
ENDBRANCH   1   2
BRANCH   1  13
HETATM   13  O   UNL     1     -40.571 -53.462  11.437  1.00  0.00    -0.392 OA
HETATM   14  H   UNL     1     -39.712 -53.195  11.054  1.00  0.00     0.210 HD
ENDBRANCH   1  13
BRANCH   1  15
HETATM   15  C   UNL     1     -41.386 -53.293  13.693  1.00  0.00     0.201 C 
BRANCH  15  16
HETATM   16  O   UNL     1     -42.459 -54.159  13.348  1.00  0.00    -0.384 OA
BRANCH  16  17
HETATM   17  C   UNL     1     -43.433 -54.250  14.385  1.00  0.00     0.206 C 
BRANCH  17  18
HETATM   18  C   UNL     1     -44.541 -53.279  14.066  1.00  0.00    -0.035 A 
HETATM   19  C   UNL     1     -45.115 -53.267  12.786  1.00  0.00     0.009 A 
HETATM   20  C   UNL     1     -46.133 -52.366  12.474  1.00  0.00     0.001 A 
HETATM   21  C   UNL     1     -46.588 -51.470  13.439  1.00  0.00     0.000 A 
HETATM   22  C   UNL     1     -46.029 -51.477  14.716  1.00  0.00     0.001 A 
HETATM   23  C   UNL     1     -45.009 -52.377  15.030  1.00  0.00     0.009 A 
ENDBRANCH  17  18
ENDBRANCH  16  17
ENDBRANCH  15  16
ENDBRANCH   1  15
TORSDOF 7
ENDMDL
MODEL 3
REMARK VINA RESULT:      -5.1      2.848      5.508
REMARK  7 active torsions:
REMARK  status: ('A' for Active; 'I' for Inactive)
REMARK    1  A    between atoms: N_6  and  C_7 
REMARK    2  A    between atoms: C_7  and  C_8 
REMARK    3  A    between atoms: C_8  and  O_9 
REMARK    4  A    between atoms: C_8  and  C_10 
REMARK    5  A    between atoms: C_10  and  O_11 
REMARK    6  A    between atoms: O_11  and  C_12 
REMARK    7  A    between atoms: C_12  and  C_13 
ROOT
HETATM    1  C   UNL     1     -41.106 -52.781  12.317  1.00  0.00     0.160 C 
ENDROOT
BRANCH   1   2
HETATM    2  C   UNL     1     -40.241 -51.535  12.597  1.00  0.00     0.166 C 
BRANCH   2   3
HETATM    3  N   UNL     1     -40.894 -50.288  12.212  1.00  0.00    -0.307 N 
HETATM    4  C   UNL     1     -42.259 -50.195  12.220  1.00  0.00     0.186 A 
HETATM    5  N   UNL     1     -42.930 -49.131  11.928  1.00  0.00    -0.355 N 
HETATM    6  C   UNL     1     -42.218 -48.009  11.593  1.00  0.00     0.017 A 
ATOM      7  HN  UNL     1     -43.951 -49.126  11.947  1.00  0.00     0.166 HD
HETATM    8  C   UNL     1     -43.070 -46.800  11.292  1.00  0.00     0.069 C 
HETATM    9  C   UNL     1     -40.873 -47.963  11.521  1.00  0.00     0.028 A 
HETATM   10  C   UNL     1     -40.125 -49.210  11.835  1.00  0.00     0.256 A 
HETATM   11  C   UNL     1     -40.088 -46.741  11.159  1.00  0.00     0.056 C 
HETATM   12  O   UNL     1     -38.896 -49.255  11.770  1.00  0.00    -0.267 OA
ENDBRANCH   2   3
ENDBRANCH   1   2
BRANCH   1  13
HETATM   13  O   UNL     1     -40.596 -53.576  11.242  1.00  0.00    -0.392 OA
HETATM   14  H   UNL     1     -39.620 -53.561  11.278  1.00  0.00     0.210 HD
ENDBRANCH   1  13
BRANCH   1  15
HETATM   15  C   UNL     1     -41.195 -53.664  13.570  1.00  0.00     0.201 C 
BRANCH  15  16
HETATM   16  O   UNL     1     -42.481 -54.267  13.632  1.00  0.00    -0.384 OA
BRANCH  16  17
HETATM   17  C   UNL     1     -43.239 -53.807  14.748  1.00  0.00     0.206 C 
BRANCH  17  18
HETATM   18  C   UNL     1     -44.410 -53.019  14.219  1.00  0.00    -0.035 A 
HETATM   19  C   UNL     1     -44.885 -53.256  12.921  1.00  0.00     0.009 A 
HETATM   20  C   UNL     1     -45.960 -52.526  12.414  1.00  0.00     0.001 A 
HETATM   21  C   UNL     1     -46.571 -51.553  13.202  1.00  0.00     0.000 A 
HETATM   22  C   UNL     1     -46.110 -51.311  14.496  1.00  0.00     0.001 A 
HETATM   23  C   UNL     1     -45.034 -52.041  15.004  1.00  0.00     0.009 A 
ENDBRANCH  17  18
ENDBRANCH  16  17
ENDBRANCH  15  16
ENDBRANCH   1  15
TORSDOF 7
ENDMDL
MODEL 4
REMARK VINA RESULT:      -5.1      2.245      4.299
REMARK  7 active torsions:
REMARK  status: ('A' for Active; 'I' for Inactive)
REMARK    1  A    between atoms: N_6  and  C_7 
REMARK    2  A    between atoms: C_7  and  C_8 
REMARK    3  A    between atoms: C_8  and  O_9 
REMARK    4  A    between atoms: C_8  and  C_10 
REMARK    5  A    between atoms: C_10  and  O_11 
REMARK    6  A    between atoms: O_11  and  C_12 
REMARK    7  A    between atoms: C_12  and  C_13 
ROOT
HETATM    1  C   UNL     1     -46.429 -54.544  14.977  1.00  0.00     0.160 C 
ENDROOT
BRANCH   1   2
HETATM    2  C   UNL     1     -45.651 -55.232  13.836  1.00  0.00     0.166 C 
BRANCH   2   3
HETATM    3  N   UNL     1     -44.409 -54.543  13.498  1.00  0.00    -0.307 N 
HETATM    4  C   UNL     1     -44.372 -53.665  12.450  1.00  0.00     0.186 A 
HETATM    5  N   UNL     1     -43.335 -52.984  12.091  1.00  0.00    -0.355 N 
HETATM    6  C   UNL     1     -42.187 -53.152  12.822  1.00  0.00     0.017 A 
ATOM      7  HN  UNL     1     -43.369 -52.346  11.295  1.00  0.00     0.166 HD
HETATM    8  C   UNL     1     -41.027 -52.304  12.359  1.00  0.00     0.069 C 
HETATM    9  C   UNL     1     -42.073 -54.001  13.862  1.00  0.00     0.028 A 
HETATM   10  C   UNL     1     -43.275 -54.793  14.238  1.00  0.00     0.256 A 
HETATM   11  C   UNL     1     -40.823 -54.188  14.665  1.00  0.00     0.056 C 
HETATM   12  O   UNL     1     -43.244 -55.606  15.162  1.00  0.00    -0.267 OA
ENDBRANCH   2   3
ENDBRANCH   1   2
BRANCH   1  13
HETATM   13  O   UNL     1     -45.664 -54.440  16.181  1.00  0.00    -0.392 OA
HETATM   14  H   UNL     1     -44.829 -54.933  16.065  1.00  0.00     0.210 HD
ENDBRANCH   1  13
BRANCH   1  15
HETATM   15  C   UNL     1     -46.861 -53.132  14.556  1.00  0.00     0.201 C 
BRANCH  15  16
HETATM   16  O   UNL     1     -46.162 -52.172  15.338  1.00  0.00    -0.384 OA
BRANCH  16  17
HETATM   17  C   UNL     1     -45.699 -51.074  14.556  1.00  0.00     0.206 C 
BRANCH  17  18
HETATM   18  C   UNL     1     -44.261 -50.816  14.927  1.00  0.00    -0.035 A 
HETATM   19  C   UNL     1     -43.686 -51.491  16.014  1.00  0.00     0.009 A 
HETATM   20  C   UNL     1     -42.360 -51.253  16.376  1.00  0.00     0.001 A 
HETATM   21  C   UNL     1     -41.596 -50.339  15.653  1.00  0.00     0.000 A 
HETATM   22  C   UNL     1     -42.155 -49.666  14.568  1.00  0.00     0.001 A 
HETATM   23  C   UNL     1     -43.482 -49.902  14.204  1.00  0.00     0.009 A 
ENDBRANCH  17  18
ENDBRANCH  16  17
ENDBRANCH  15  16
ENDBRANCH   1  15
TORSDOF 7
ENDMDL
MODEL 5
REMARK VINA RESULT:      -5.0      3.865      6.783
REMARK  7 active torsions:
REMARK  status: ('A' for Active; 'I' for Inactive)
REMARK    1  A    between atoms: N_6  and  C_7 
REMARK    2  A    between atoms: C_7  and  C_8 
REMARK    3  A    between atoms: C_8  and  O_9 
REMARK    4  A    between atoms: C_8  and  C_10 
REMARK    5  A    between atoms: C_10  and  O_11 
REMARK    6  A    between atoms: O_11  and  C_12 
REMARK    7  A    between atoms: C_12  and  C_13 
ROOT
HETATM    1  C   UNL     1     -39.053 -50.813  12.232  1.00  0.00     0.160 C 
ENDROOT
BRANCH   1   2
HETATM    2  C   UNL     1     -39.108 -49.335  12.669  1.00  0.00     0.166 C 
BRANCH   2   3
HETATM    3  N   UNL     1     -40.028 -48.536  11.865  1.00  0.00    -0.307 N 
HETATM    4  C   UNL     1     -40.828 -49.137  10.933  1.00  0.00     0.186 A 
HETATM    5  N   UNL     1     -41.695 -48.526  10.196  1.00  0.00    -0.355 N 
HETATM    6  C   UNL     1     -41.826 -47.172  10.370  1.00  0.00     0.017 A 
ATOM      7  HN  UNL     1     -42.260 -49.030   9.513  1.00  0.00     0.166 HD
HETATM    8  C   UNL     1     -42.876 -46.533   9.494  1.00  0.00     0.069 C 
HETATM    9  C   UNL     1     -41.088 -46.448  11.233  1.00  0.00     0.028 A 
HETATM   10  C   UNL     1     -40.077 -47.172  12.050  1.00  0.00     0.256 A 
HETATM   11  C   UNL     1     -41.227 -44.970  11.430  1.00  0.00     0.056 C 
HETATM   12  O   UNL     1     -39.348 -46.578  12.845  1.00  0.00    -0.267 OA
ENDBRANCH   2   3
ENDBRANCH   1   2
BRANCH   1  13
HETATM   13  O   UNL     1     -37.769 -51.191  11.727  1.00  0.00    -0.392 OA
HETATM   14  H   UNL     1     -37.097 -51.003  12.410  1.00  0.00     0.210 HD
ENDBRANCH   1  13
BRANCH   1  15
HETATM   15  C   UNL     1     -39.398 -51.734  13.411  1.00  0.00     0.201 C 
BRANCH  15  16
HETATM   16  O   UNL     1     -40.025 -52.912  12.921  1.00  0.00    -0.384 OA
BRANCH  16  17
HETATM   17  C   UNL     1     -41.277 -52.636  12.297  1.00  0.00     0.206 C 
BRANCH  17  18
HETATM   18  C   UNL     1     -42.334 -53.449  13.001  1.00  0.00    -0.035 A 
HETATM   19  C   UNL     1     -43.656 -53.435  12.533  1.00  0.00     0.009 A 
HETATM   20  C   UNL     1     -44.646 -54.173  13.181  1.00  0.00     0.001 A 
HETATM   21  C   UNL     1     -44.323 -54.934  14.303  1.00  0.00     0.000 A 
HETATM   22  C   UNL     1     -43.011 -54.960  14.774  1.00  0.00     0.001 A 
HETATM   23  C   UNL     1     -42.019 -54.221  14.127  1.00  0.00     0.009 A 
ENDBRANCH  17  18
ENDBRANCH  16  17
ENDBRANCH  15  16
ENDBRANCH   1  15
TORSDOF 7
ENDMDL
MODEL 6
REMARK VINA RESULT:      -5.0      2.243      4.240
REMARK  7 active torsions:
REMARK  status: ('A' for Active; 'I' for Inactive)
REMARK    1  A    between atoms: N_6  and  C_7 
REMARK    2  A    between atoms: C_7  and  C_8 
REMARK    3  A    between atoms: C_8  and  O_9 
REMARK    4  A    between atoms: C_8  and  C_10 
REMARK    5  A    between atoms: C_10  and  O_11 
REMARK    6  A    between atoms: O_11  and  C_12 
REMARK    7  A    between atoms: C_12  and  C_13 
ROOT
HETATM    1  C   UNL     1     -39.881 -51.151  12.674  1.00  0.00     0.160 C 
ENDROOT
BRANCH   1   2
HETATM    2  C   UNL     1     -40.566 -50.035  13.489  1.00  0.00     0.166 C 
BRANCH   2   3
HETATM    3  N   UNL     1     -41.957 -50.336  13.813  1.00  0.00    -0.307 N 
HETATM    4  C   UNL     1     -42.932 -50.192  12.865  1.00  0.00     0.186 A 
HETATM    5  N   UNL     1     -44.182 -50.462  13.041  1.00  0.00    -0.355 N 
HETATM    6  C   UNL     1     -44.557 -50.935  14.272  1.00  0.00     0.017 A 
ATOM      7  HN  UNL     1     -44.864 -50.328  12.294  1.00  0.00     0.166 HD
HETATM    8  C   UNL     1     -46.028 -51.253  14.393  1.00  0.00     0.069 C 
HETATM    9  C   UNL     1     -43.709 -51.103  15.305  1.00  0.00     0.028 A 
HETATM   10  C   UNL     1     -42.278 -50.759  15.084  1.00  0.00     0.256 A 
HETATM   11  C   UNL     1     -44.110 -51.622  16.651  1.00  0.00     0.056 C 
HETATM   12  O   UNL     1     -41.446 -50.863  15.984  1.00  0.00    -0.267 OA
ENDBRANCH   2   3
ENDBRANCH   1   2
BRANCH   1  13
HETATM   13  O   UNL     1     -38.840 -50.656  11.828  1.00  0.00    -0.392 OA
HETATM   14  H   UNL     1     -38.440 -51.409  11.350  1.00  0.00     0.210 HD
ENDBRANCH   1  13
BRANCH   1  15
HETATM   15  C   UNL     1     -39.280 -52.207  13.612  1.00  0.00     0.201 C 
BRANCH  15  16
HETATM   16  O   UNL     1     -39.838 -53.480  13.309  1.00  0.00    -0.384 OA
BRANCH  16  17
HETATM   17  C   UNL     1     -40.963 -53.381  12.439  1.00  0.00     0.206 C 
BRANCH  17  18
HETATM   18  C   UNL     1     -42.162 -53.931  13.169  1.00  0.00    -0.035 A 
HETATM   19  C   UNL     1     -43.427 -53.895  12.565  1.00  0.00     0.009 A 
HETATM   20  C   UNL     1     -44.547 -54.390  13.233  1.00  0.00     0.001 A 
HETATM   21  C   UNL     1     -44.411 -54.928  14.511  1.00  0.00     0.000 A 
HETATM   22  C   UNL     1     -43.158 -54.974  15.120  1.00  0.00     0.001 A 
HETATM   23  C   UNL     1     -42.036 -54.478  14.453  1.00  0.00     0.009 A 
ENDBRANCH  17  18
ENDBRANCH  16  17
ENDBRANCH  15  16
ENDBRANCH   1  15
TORSDOF 7
ENDMDL
MODEL 7
REMARK VINA RESULT:      -4.9      2.177      4.834
REMARK  7 active torsions:
REMARK  status: ('A' for Active; 'I' for Inactive)
REMARK    1  A    between atoms: N_6  and  C_7 
REMARK    2  A    between atoms: C_7  and  C_8 
REMARK    3  A    between atoms: C_8  and  O_9 
REMARK    4  A    between atoms: C_8  and  C_10 
REMARK    5  A    between atoms: C_10  and  O_11 
REMARK    6  A    between atoms: O_11  and  C_12 
REMARK    7  A    between atoms: C_12  and  C_13 
ROOT
HETATM    1  C   UNL     1     -41.034 -53.061  12.443  1.00  0.00     0.160 C 
ENDROOT
BRANCH   1   2
HETATM    2  C   UNL     1     -42.221 -52.081  12.334  1.00  0.00     0.166 C 
BRANCH   2   3
HETATM    3  N   UNL     1     -43.448 -52.602  12.929  1.00  0.00    -0.307 N 
HETATM    4  C   UNL     1     -43.625 -53.951  13.071  1.00  0.00     0.186 A 
HETATM    5  N   UNL     1     -44.656 -54.510  13.612  1.00  0.00    -0.355 N 
HETATM    6  C   UNL     1     -45.644 -53.684  14.086  1.00  0.00     0.017 A 
ATOM      7  HN  UNL     1     -44.733 -55.525  13.684  1.00  0.00     0.166 HD
HETATM    8  C   UNL     1     -46.803 -54.407  14.727  1.00  0.00     0.069 C 
HETATM    9  C   UNL     1     -45.613 -52.340  13.991  1.00  0.00     0.028 A 
HETATM   10  C   UNL     1     -44.425 -51.724  13.339  1.00  0.00     0.256 A 
HETATM   11  C   UNL     1     -46.685 -51.433  14.509  1.00  0.00     0.056 C 
HETATM   12  O   UNL     1     -44.333 -50.505  13.195  1.00  0.00    -0.267 OA
ENDBRANCH   2   3
ENDBRANCH   1   2
BRANCH   1  13
HETATM   13  O   UNL     1     -40.554 -53.489  11.166  1.00  0.00    -0.392 OA
HETATM   14  H   UNL     1     -40.959 -52.929  10.476  1.00  0.00     0.210 HD
ENDBRANCH   1  13
BRANCH   1  15
HETATM   15  C   UNL     1     -39.870 -52.410  13.203  1.00  0.00     0.201 C 
BRANCH  15  16
HETATM   16  O   UNL     1     -39.091 -53.421  13.830  1.00  0.00    -0.384 OA
BRANCH  16  17
HETATM   17  C   UNL     1     -39.062 -53.277  15.248  1.00  0.00     0.206 C 
BRANCH  17  18
HETATM   18  C   UNL     1     -39.706 -54.500  15.850  1.00  0.00    -0.035 A 
HETATM   19  C   UNL     1     -38.907 -55.513  16.401  1.00  0.00     0.009 A 
HETATM   20  C   UNL     1     -39.489 -56.655  16.951  1.00  0.00     0.001 A 
HETATM   21  C   UNL     1     -40.875 -56.794  16.958  1.00  0.00     0.000 A 
HETATM   22  C   UNL     1     -41.679 -55.791  16.417  1.00  0.00     0.001 A 
HETATM   23  C   UNL     1     -41.099 -54.648  15.866  1.00  0.00     0.009 A 
ENDBRANCH  17  18
ENDBRANCH  16  17
ENDBRANCH  15  16
ENDBRANCH   1  15
TORSDOF 7
ENDMDL
MODEL 8
REMARK VINA RESULT:      -4.7      2.089      5.002
REMARK  7 active torsions:
REMARK  status: ('A' for Active; 'I' for Inactive)
REMARK    1  A    between atoms: N_6  and  C_7 
REMARK    2  A    between atoms: C_7  and  C_8 
REMARK    3  A    between atoms: C_8  and  O_9 
REMARK    4  A    between atoms: C_8  and  C_10 
REMARK    5  A    between atoms: C_10  and  O_11 
REMARK    6  A    between atoms: O_11  and  C_12 
REMARK    7  A    between atoms: C_12  and  C_13 
ROOT
HETATM    1  C   UNL     1     -41.530 -53.809  14.789  1.00  0.00     0.160 C 
ENDROOT
BRANCH   1   2
HETATM    2  C   UNL     1     -40.978 -53.789  13.349  1.00  0.00     0.166 C 
BRANCH   2   3
HETATM    3  N   UNL     1     -40.887 -52.442  12.792  1.00  0.00    -0.307 N 
HETATM    4  C   UNL     1     -41.985 -51.858  12.223  1.00  0.00     0.186 A 
HETATM    5  N   UNL     1     -42.017 -50.664  11.732  1.00  0.00    -0.355 N 
HETATM    6  C   UNL     1     -40.862 -49.925  11.796  1.00  0.00     0.017 A 
ATOM      7  HN  UNL     1     -42.867 -50.284  11.314  1.00  0.00     0.166 HD
HETATM    8  C   UNL     1     -40.985 -48.532  11.227  1.00  0.00     0.069 C 
HETATM    9  C   UNL     1     -39.702 -50.382  12.306  1.00  0.00     0.028 A 
HETATM   10  C   UNL     1     -39.686 -51.771  12.840  1.00  0.00     0.256 A 
HETATM   11  C   UNL     1     -38.439 -49.582  12.381  1.00  0.00     0.056 C 
HETATM   12  O   UNL     1     -38.659 -52.269  13.302  1.00  0.00    -0.267 OA
ENDBRANCH   2   3
ENDBRANCH   1   2
BRANCH   1  13
HETATM   13  O   UNL     1     -41.975 -52.522  15.227  1.00  0.00    -0.392 OA
HETATM   14  H   UNL     1     -42.068 -51.941  14.447  1.00  0.00     0.210 HD
ENDBRANCH   1  13
BRANCH   1  15
HETATM   15  C   UNL     1     -42.708 -54.789  14.898  1.00  0.00     0.201 C 
BRANCH  15  16
HETATM   16  O   UNL     1     -43.499 -54.708  13.719  1.00  0.00    -0.384 OA
BRANCH  16  17
HETATM   17  C   UNL     1     -44.869 -55.012  13.968  1.00  0.00     0.206 C 
BRANCH  17  18
HETATM   18  C   UNL     1     -45.600 -53.711  14.181  1.00  0.00    -0.035 A 
HETATM   19  C   UNL     1     -45.723 -52.795  13.126  1.00  0.00     0.009 A 
HETATM   20  C   UNL     1     -46.386 -51.583  13.313  1.00  0.00     0.001 A 
HETATM   21  C   UNL     1     -46.935 -51.275  14.556  1.00  0.00     0.000 A 
HETATM   22  C   UNL     1     -46.823 -52.180  15.611  1.00  0.00     0.001 A 
HETATM   23  C   UNL     1     -46.159 -53.394  15.426  1.00  0.00     0.009 A 
ENDBRANCH  17  18
ENDBRANCH  16  17
ENDBRANCH  15  16
ENDBRANCH   1  15
TORSDOF 7
ENDMDL
MODEL 9
REMARK VINA RESULT:      -4.7      2.266      4.848
REMARK  7 active torsions:
REMARK  status: ('A' for Active; 'I' for Inactive)
REMARK    1  A    between atoms: N_6  and  C_7 
REMARK    2  A    between atoms: C_7  and  C_8 
REMARK    3  A    between atoms: C_8  and  O_9 
REMARK    4  A    between atoms: C_8  and  C_10 
REMARK    5  A    between atoms: C_10  and  O_11 
REMARK    6  A    between atoms: O_11  and  C_12 
REMARK    7  A    between atoms: C_12  and  C_13 
ROOT
HETATM    1  C   UNL     1     -41.887 -53.965  14.944  1.00  0.00     0.160 C 
ENDROOT
BRANCH   1   2
HETATM    2  C   UNL     1     -40.992 -54.090  13.693  1.00  0.00     0.166 C 
BRANCH   2   3
HETATM    3  N   UNL     1     -40.259 -52.864  13.392  1.00  0.00    -0.307 N 
HETATM    4  C   UNL     1     -39.061 -52.611  14.002  1.00  0.00     0.186 A 
HETATM    5  N   UNL     1     -38.322 -51.575  13.781  1.00  0.00    -0.355 N 
HETATM    6  C   UNL     1     -38.771 -50.666  12.858  1.00  0.00     0.017 A 
ATOM      7  HN  UNL     1     -37.439 -51.439  14.274  1.00  0.00     0.166 HD
HETATM    8  C   UNL     1     -37.841 -49.498  12.634  1.00  0.00     0.069 C 
HETATM    9  C   UNL     1     -39.941 -50.776  12.199  1.00  0.00     0.028 A 
HETATM   10  C   UNL     1     -40.787 -51.965  12.493  1.00  0.00     0.256 A 
HETATM   11  C   UNL     1     -40.437 -49.789  11.188  1.00  0.00     0.056 C 
HETATM   12  O   UNL     1     -41.880 -52.125  11.950  1.00  0.00    -0.267 OA
ENDBRANCH   2   3
ENDBRANCH   1   2
BRANCH   1  13
HETATM   13  O   UNL     1     -42.466 -52.664  15.079  1.00  0.00    -0.392 OA
HETATM   14  H   UNL     1     -42.222 -52.302  15.952  1.00  0.00     0.210 HD
ENDBRANCH   1  13
BRANCH   1  15
HETATM   15  C   UNL     1     -43.023 -54.997  14.896  1.00  0.00     0.201 C 
BRANCH  15  16
HETATM   16  O   UNL     1     -43.746 -54.845  13.681  1.00  0.00    -0.384 OA
BRANCH  16  17
HETATM   17  C   UNL     1     -45.145 -55.054  13.858  1.00  0.00     0.206 C 
BRANCH  17  18
HETATM   18  C   UNL     1     -45.778 -53.720  14.162  1.00  0.00    -0.035 A 
HETATM   19  C   UNL     1     -46.346 -53.485  15.423  1.00  0.00     0.009 A 
HETATM   20  C   UNL     1     -46.944 -52.260  15.715  1.00  0.00     0.001 A 
HETATM   21  C   UNL     1     -46.979 -51.256  14.748  1.00  0.00     0.000 A 
HETATM   22  C   UNL     1     -46.414 -51.477  13.493  1.00  0.00     0.001 A 
HETATM   23  C   UNL     1     -45.815 -52.703  13.199  1.00  0.00     0.009 A 
ENDBRANCH  17  18
ENDBRANCH  16  17
ENDBRANCH  15  16
ENDBRANCH   1  15
TORSDOF 7
ENDMDL
