MODEL 1
REMARK VINA RESULT:      -7.1      0.000      0.000
REMARK  6 active torsions:
REMARK  status: ('A' for Active; 'I' for Inactive)
REMARK    1  A    between atoms: C_2  and  O_3 
REMARK    2  A    between atoms: C_2  and  C_10 
REMARK    3  A    between atoms: O_3  and  C_4 
REMARK    4  A    between atoms: C_4  and  C_5 
REMARK       I    between atoms: C_10  and  N_12 
REMARK    5  A    between atoms: N_12  and  C_13 
REMARK    6  A    between atoms: C_17  and  C_20 
ROOT
HETATM    1  C   UNL     1     -41.712 -48.871  11.139  1.00  0.00     0.251 C 
HETATM    2  O   UNL     1     -42.595 -48.761  11.990  1.00  0.00    -0.270 OA
HETATM    3  N   UNL     1     -41.817 -48.333   9.870  1.00  0.00    -0.311 N 
HETATM    4  H   UNL     1     -41.336 -48.774   9.098  1.00  0.00     0.170 HD
ENDROOT
BRANCH   3   5
HETATM    5  C   UNL     1     -42.902 -47.538   9.483  1.00  0.00     0.108 A 
HETATM    6  C   UNL     1     -42.816 -46.149   9.455  1.00  0.00     0.049 A 
HETATM    7  C   UNL     1     -43.956 -45.414   9.161  1.00  0.00     0.006 A 
HETATM    8  C   UNL     1     -45.148 -46.085   8.928  1.00  0.00     0.034 A 
HETATM    9  C   UNL     1     -45.155 -47.481   8.949  1.00  0.00     0.118 A 
HETATM   10  N   UNL     1     -44.023 -48.211   9.178  1.00  0.00    -0.339 N 
ATOM     11  HN  UNL     1     -44.029 -49.229   9.119  1.00  0.00     0.167 HD
BRANCH   9  12
HETATM   12  C   UNL     1     -46.478 -48.224   8.802  1.00  0.00     0.432 C 
HETATM   13  F   UNL     1     -46.634 -49.235   9.704  1.00  0.00    -0.165 F 
HETATM   14  F   UNL     1     -47.565 -47.419   8.960  1.00  0.00    -0.165 F 
HETATM   15  F   UNL     1     -46.614 -48.806   7.575  1.00  0.00    -0.165 F 
ENDBRANCH   9  12
ENDBRANCH   3   5
BRANCH   1  16
HETATM   16  C   UNL     1     -40.421 -49.675  11.406  1.00  0.00     0.209 C 
HETATM   17  C   UNL     1     -39.365 -48.739  11.991  1.00  0.00     0.050 C 
BRANCH  16  18
HETATM   18  O   UNL     1     -40.589 -50.733  12.354  1.00  0.00    -0.374 OA
BRANCH  18  19
HETATM   19  C   UNL     1     -41.292 -51.864  11.832  1.00  0.00     0.200 C 
BRANCH  19  20
HETATM   20  C   UNL     1     -40.788 -53.141  12.505  1.00  0.00     0.145 C 
HETATM   21  C   UNL     1     -41.674 -53.623  13.641  1.00  0.00     0.036 C 
HETATM   22  C   UNL     1     -40.707 -54.283  14.608  1.00  0.00     0.029 C 
HETATM   23  C   UNL     1     -39.333 -53.952  14.074  1.00  0.00     0.168 C 
HETATM   24  O   UNL     1     -39.504 -52.913  13.105  1.00  0.00    -0.384 OA
ENDBRANCH  19  20
ENDBRANCH  18  19
ENDBRANCH  16  18
ENDBRANCH   1  16
TORSDOF 6
ENDMDL
MODEL 2
REMARK VINA RESULT:      -6.7      1.939      2.643
REMARK  6 active torsions:
REMARK  status: ('A' for Active; 'I' for Inactive)
REMARK    1  A    between atoms: C_2  and  O_3 
REMARK    2  A    between atoms: C_2  and  C_10 
REMARK    3  A    between atoms: O_3  and  C_4 
REMARK    4  A    between atoms: C_4  and  C_5 
REMARK       I    between atoms: C_10  and  N_12 
REMARK    5  A    between atoms: N_12  and  C_13 
REMARK    6  A    between atoms: C_17  and  C_20 
ROOT
HETATM    1  C   UNL     1     -41.255 -50.261  11.815  1.00  0.00     0.251 C 
HETATM    2  O   UNL     1     -42.293 -50.047  12.442  1.00  0.00    -0.270 OA
HETATM    3  N   UNL     1     -40.789 -49.423  10.820  1.00  0.00    -0.311 N 
HETATM    4  H   UNL     1     -40.234 -49.802  10.065  1.00  0.00     0.170 HD
ENDROOT
BRANCH   3   5
HETATM    5  C   UNL     1     -41.416 -48.211  10.509  1.00  0.00     0.108 A 
HETATM    6  C   UNL     1     -40.884 -46.989  10.911  1.00  0.00     0.049 A 
HETATM    7  C   UNL     1     -41.605 -45.831  10.661  1.00  0.00     0.006 A 
HETATM    8  C   UNL     1     -42.843 -45.928  10.042  1.00  0.00     0.034 A 
HETATM    9  C   UNL     1     -43.304 -47.185   9.645  1.00  0.00     0.118 A 
HETATM   10  N   UNL     1     -42.571 -48.323   9.834  1.00  0.00    -0.339 N 
ATOM     11  HN  UNL     1     -42.889 -49.223   9.475  1.00  0.00     0.167 HD
BRANCH   9  12
HETATM   12  C   UNL     1     -44.707 -47.316   9.063  1.00  0.00     0.432 C 
HETATM   13  F   UNL     1     -45.594 -47.907   9.916  1.00  0.00    -0.165 F 
HETATM   14  F   UNL     1     -45.262 -46.119   8.726  1.00  0.00    -0.165 F 
HETATM   15  F   UNL     1     -44.731 -48.076   7.929  1.00  0.00    -0.165 F 
ENDBRANCH   9  12
ENDBRANCH   3   5
BRANCH   1  16
HETATM   16  C   UNL     1     -40.406 -51.528  12.057  1.00  0.00     0.209 C 
HETATM   17  C   UNL     1     -39.758 -51.436  13.438  1.00  0.00     0.050 C 
BRANCH  16  18
HETATM   18  O   UNL     1     -41.166 -52.740  12.050  1.00  0.00    -0.374 OA
BRANCH  18  19
HETATM   19  C   UNL     1     -41.289 -53.346  13.339  1.00  0.00     0.200 C 
BRANCH  19  20
HETATM   20  C   UNL     1     -42.762 -53.400  13.745  1.00  0.00     0.145 C 
HETATM   21  C   UNL     1     -43.138 -54.656  14.511  1.00  0.00     0.036 C 
HETATM   22  C   UNL     1     -44.583 -54.908  14.117  1.00  0.00     0.029 C 
HETATM   23  C   UNL     1     -44.864 -53.920  13.009  1.00  0.00     0.168 C 
HETATM   24  O   UNL     1     -43.599 -53.408  12.580  1.00  0.00    -0.384 OA
ENDBRANCH  19  20
ENDBRANCH  18  19
ENDBRANCH  16  18
ENDBRANCH   1  16
TORSDOF 6
ENDMDL
MODEL 3
REMARK VINA RESULT:      -6.6      1.998      3.328
REMARK  6 active torsions:
REMARK  status: ('A' for Active; 'I' for Inactive)
REMARK    1  A    between atoms: C_2  and  O_3 
REMARK    2  A    between atoms: C_2  and  C_10 
REMARK    3  A    between atoms: O_3  and  C_4 
REMARK    4  A    between atoms: C_4  and  C_5 
REMARK       I    between atoms: C_10  and  N_12 
REMARK    5  A    between atoms: N_12  and  C_13 
REMARK    6  A    between atoms: C_17  and  C_20 
ROOT
HETATM    1  C   UNL     1     -42.211 -50.368  12.495  1.00  0.00     0.251 C 
HETATM    2  O   UNL     1     -43.213 -49.761  12.873  1.00  0.00    -0.270 OA
HETATM    3  N   UNL     1     -41.342 -49.870  11.543  1.00  0.00    -0.311 N 
HETATM    4  H   UNL     1     -40.822 -50.509  10.957  1.00  0.00     0.170 HD
ENDROOT
BRANCH   3   5
HETATM    5  C   UNL     1     -41.484 -48.589  10.999  1.00  0.00     0.108 A 
HETATM    6  C   UNL     1     -40.597 -47.561  11.308  1.00  0.00     0.049 A 
HETATM    7  C   UNL     1     -40.851 -46.289  10.818  1.00  0.00     0.006 A 
HETATM    8  C   UNL     1     -41.991 -46.075  10.056  1.00  0.00     0.034 A 
HETATM    9  C   UNL     1     -42.824 -47.158   9.766  1.00  0.00     0.118 A 
HETATM   10  N   UNL     1     -42.547 -48.425  10.195  1.00  0.00    -0.339 N 
ATOM     11  HN  UNL     1     -43.125 -49.217   9.915  1.00  0.00     0.167 HD
BRANCH   9  12
HETATM   12  C   UNL     1     -44.133 -46.915   9.023  1.00  0.00     0.432 C 
HETATM   13  F   UNL     1     -45.237 -47.262   9.744  1.00  0.00    -0.165 F 
HETATM   14  F   UNL     1     -44.317 -45.611   8.673  1.00  0.00    -0.165 F 
HETATM   15  F   UNL     1     -44.214 -47.632   7.864  1.00  0.00    -0.165 F 
ENDBRANCH   9  12
ENDBRANCH   3   5
BRANCH   1  16
HETATM   16  C   UNL     1     -41.868 -51.778  13.024  1.00  0.00     0.209 C 
HETATM   17  C   UNL     1     -42.875 -52.780  12.459  1.00  0.00     0.050 C 
BRANCH  16  18
HETATM   18  O   UNL     1     -40.574 -52.242  12.626  1.00  0.00    -0.374 OA
BRANCH  18  19
HETATM   19  C   UNL     1     -39.624 -52.273  13.694  1.00  0.00     0.200 C 
BRANCH  19  20
HETATM   20  C   UNL     1     -38.451 -51.347  13.367  1.00  0.00     0.145 C 
HETATM   21  C   UNL     1     -38.508 -50.012  14.089  1.00  0.00     0.036 C 
HETATM   22  C   UNL     1     -37.853 -49.042  13.120  1.00  0.00     0.029 C 
HETATM   23  C   UNL     1     -37.661 -49.831  11.847  1.00  0.00     0.168 C 
HETATM   24  O   UNL     1     -38.452 -51.017  11.970  1.00  0.00    -0.384 OA
ENDBRANCH  19  20
ENDBRANCH  18  19
ENDBRANCH  16  18
ENDBRANCH   1  16
TORSDOF 6
ENDMDL
MODEL 4
REMARK VINA RESULT:      -6.5      3.262      4.836
REMARK  6 active torsions:
REMARK  status: ('A' for Active; 'I' for Inactive)
REMARK    1  A    between atoms: C_2  and  O_3 
REMARK    2  A    between atoms: C_2  and  C_10 
REMARK    3  A    between atoms: O_3  and  C_4 
REMARK    4  A    between atoms: C_4  and  C_5 
REMARK       I    between atoms: C_10  and  N_12 
REMARK    5  A    between atoms: N_12  and  C_13 
REMARK    6  A    between atoms: C_17  and  C_20 
ROOT
HETATM    1  C   UNL     1     -42.095 -51.842  12.542  1.00  0.00     0.251 C 
HETATM    2  O   UNL     1     -42.823 -51.052  13.143  1.00  0.00    -0.270 OA
HETATM    3  N   UNL     1     -41.097 -51.437  11.676  1.00  0.00    -0.311 N 
HETATM    4  H   UNL     1     -40.829 -52.036  10.906  1.00  0.00     0.170 HD
ENDROOT
BRANCH   3   5
HETATM    5  C   UNL     1     -40.774 -50.089  11.486  1.00  0.00     0.108 A 
HETATM    6  C   UNL     1     -39.623 -49.529  12.034  1.00  0.00     0.049 A 
HETATM    7  C   UNL     1     -39.412 -48.165  11.896  1.00  0.00     0.006 A 
HETATM    8  C   UNL     1     -40.363 -47.399  11.237  1.00  0.00     0.034 A 
HETATM    9  C   UNL     1     -41.483 -48.032  10.692  1.00  0.00     0.118 A 
HETATM   10  N   UNL     1     -41.665 -49.384  10.772  1.00  0.00    -0.339 N 
ATOM     11  HN  UNL     1     -42.450 -49.840  10.307  1.00  0.00     0.167 HD
BRANCH   9  12
HETATM   12  C   UNL     1     -42.585 -47.188  10.062  1.00  0.00     0.432 C 
HETATM   13  F   UNL     1     -43.027 -47.679   8.868  1.00  0.00    -0.165 F 
HETATM   14  F   UNL     1     -43.692 -47.078  10.848  1.00  0.00    -0.165 F 
HETATM   15  F   UNL     1     -42.178 -45.911   9.802  1.00  0.00    -0.165 F 
ENDBRANCH   9  12
ENDBRANCH   3   5
BRANCH   1  16
HETATM   16  C   UNL     1     -42.275 -53.370  12.667  1.00  0.00     0.209 C 
HETATM   17  C   UNL     1     -40.915 -54.010  12.945  1.00  0.00     0.050 C 
BRANCH  16  18
HETATM   18  O   UNL     1     -43.130 -53.762  13.745  1.00  0.00    -0.374 OA
BRANCH  18  19
HETATM   19  C   UNL     1     -44.325 -54.422  13.318  1.00  0.00     0.200 C 
BRANCH  19  20
HETATM   20  C   UNL     1     -45.540 -53.556  13.651  1.00  0.00     0.145 C 
HETATM   21  C   UNL     1     -45.939 -52.610  12.532  1.00  0.00     0.036 C 
HETATM   22  C   UNL     1     -46.512 -51.404  13.256  1.00  0.00     0.029 C 
HETATM   23  C   UNL     1     -46.212 -51.646  14.716  1.00  0.00     0.168 C 
HETATM   24  O   UNL     1     -45.254 -52.707  14.772  1.00  0.00    -0.384 OA
ENDBRANCH  19  20
ENDBRANCH  18  19
ENDBRANCH  16  18
ENDBRANCH   1  16
TORSDOF 6
ENDMDL
MODEL 5
REMARK VINA RESULT:      -6.5      2.765      3.728
REMARK  6 active torsions:
REMARK  status: ('A' for Active; 'I' for Inactive)
REMARK    1  A    between atoms: C_2  and  O_3 
REMARK    2  A    between atoms: C_2  and  C_10 
REMARK    3  A    between atoms: O_3  and  C_4 
REMARK    4  A    between atoms: C_4  and  C_5 
REMARK       I    between atoms: C_10  and  N_12 
REMARK    5  A    between atoms: N_12  and  C_13 
REMARK    6  A    between atoms: C_17  and  C_20 
ROOT
HETATM    1  C   UNL     1     -42.123 -50.440  12.407  1.00  0.00     0.251 C 
HETATM    2  O   UNL     1     -43.108 -49.865  12.873  1.00  0.00    -0.270 OA
HETATM    3  N   UNL     1     -41.332 -49.893  11.415  1.00  0.00    -0.311 N 
HETATM    4  H   UNL     1     -40.842 -50.503  10.774  1.00  0.00     0.170 HD
ENDROOT
BRANCH   3   5
HETATM    5  C   UNL     1     -41.534 -48.598  10.925  1.00  0.00     0.108 A 
HETATM    6  C   UNL     1     -40.672 -47.553  11.245  1.00  0.00     0.049 A 
HETATM    7  C   UNL     1     -40.984 -46.272  10.812  1.00  0.00     0.006 A 
HETATM    8  C   UNL     1     -42.155 -46.070  10.096  1.00  0.00     0.034 A 
HETATM    9  C   UNL     1     -42.961 -47.169   9.792  1.00  0.00     0.118 A 
HETATM   10  N   UNL     1     -42.628 -48.441  10.163  1.00  0.00    -0.339 N 
ATOM     11  HN  UNL     1     -43.189 -49.241   9.871  1.00  0.00     0.167 HD
BRANCH   9  12
HETATM   12  C   UNL     1     -44.302 -46.943   9.101  1.00  0.00     0.432 C 
HETATM   13  F   UNL     1     -45.373 -47.283   9.875  1.00  0.00    -0.165 F 
HETATM   14  F   UNL     1     -44.506 -45.647   8.738  1.00  0.00    -0.165 F 
HETATM   15  F   UNL     1     -44.429 -47.681   7.959  1.00  0.00    -0.165 F 
ENDBRANCH   9  12
ENDBRANCH   3   5
BRANCH   1  16
HETATM   16  C   UNL     1     -41.719 -51.858  12.863  1.00  0.00     0.209 C 
HETATM   17  C   UNL     1     -41.422 -51.834  14.361  1.00  0.00     0.050 C 
BRANCH  16  18
HETATM   18  O   UNL     1     -42.745 -52.837  12.674  1.00  0.00    -0.374 OA
BRANCH  18  19
HETATM   19  C   UNL     1     -43.332 -53.296  13.894  1.00  0.00     0.200 C 
BRANCH  19  20
HETATM   20  C   UNL     1     -44.833 -53.006  13.887  1.00  0.00     0.145 C 
HETATM   21  C   UNL     1     -45.378 -52.645  12.515  1.00  0.00     0.036 C 
HETATM   22  C   UNL     1     -46.513 -51.680  12.812  1.00  0.00     0.029 C 
HETATM   23  C   UNL     1     -46.406 -51.394  14.292  1.00  0.00     0.168 C 
HETATM   24  O   UNL     1     -45.124 -51.870  14.714  1.00  0.00    -0.384 OA
ENDBRANCH  19  20
ENDBRANCH  18  19
ENDBRANCH  16  18
ENDBRANCH   1  16
TORSDOF 6
ENDMDL
MODEL 6
REMARK VINA RESULT:      -6.3      2.774      3.445
REMARK  6 active torsions:
REMARK  status: ('A' for Active; 'I' for Inactive)
REMARK    1  A    between atoms: C_2  and  O_3 
REMARK    2  A    between atoms: C_2  and  C_10 
REMARK    3  A    between atoms: O_3  and  C_4 
REMARK    4  A    between atoms: C_4  and  C_5 
REMARK       I    between atoms: C_10  and  N_12 
REMARK    5  A    between atoms: N_12  and  C_13 
REMARK    6  A    between atoms: C_17  and  C_20 
ROOT
HETATM    1  C   UNL     1     -42.352 -49.012  12.543  1.00  0.00     0.251 C 
HETATM    2  O   UNL     1     -41.980 -49.736  11.619  1.00  0.00    -0.270 OA
HETATM    3  N   UNL     1     -43.054 -47.838  12.345  1.00  0.00    -0.311 N 
HETATM    4  H   UNL     1     -42.968 -47.084  13.013  1.00  0.00     0.170 HD
ENDROOT
BRANCH   3   5
HETATM    5  C   UNL     1     -43.479 -47.426  11.077  1.00  0.00     0.108 A 
HETATM    6  C   UNL     1     -42.857 -46.379  10.401  1.00  0.00     0.049 A 
HETATM    7  C   UNL     1     -43.389 -45.952   9.194  1.00  0.00     0.006 A 
HETATM    8  C   UNL     1     -44.536 -46.564   8.709  1.00  0.00     0.034 A 
HETATM    9  C   UNL     1     -45.093 -47.624   9.428  1.00  0.00     0.118 A 
HETATM   10  N   UNL     1     -44.538 -48.089  10.587  1.00  0.00    -0.339 N 
ATOM     11  HN  UNL     1     -44.915 -48.909  11.062  1.00  0.00     0.167 HD
BRANCH   9  12
HETATM   12  C   UNL     1     -46.412 -48.231   8.961  1.00  0.00     0.432 C 
HETATM   13  F   UNL     1     -46.379 -48.669   7.670  1.00  0.00    -0.165 F 
HETATM   14  F   UNL     1     -46.801 -49.304   9.705  1.00  0.00    -0.165 F 
HETATM   15  F   UNL     1     -47.443 -47.338   9.017  1.00  0.00    -0.165 F 
ENDBRANCH   9  12
ENDBRANCH   3   5
BRANCH   1  16
HETATM   16  C   UNL     1     -42.015 -49.334  14.015  1.00  0.00     0.209 C 
HETATM   17  C   UNL     1     -41.743 -48.028  14.761  1.00  0.00     0.050 C 
BRANCH  16  18
HETATM   18  O   UNL     1     -43.077 -49.985  14.719  1.00  0.00    -0.374 OA
BRANCH  18  19
HETATM   19  C   UNL     1     -43.063 -51.409  14.588  1.00  0.00     0.200 C 
BRANCH  19  20
HETATM   20  C   UNL     1     -44.495 -51.928  14.458  1.00  0.00     0.145 C 
HETATM   21  C   UNL     1     -45.063 -51.808  13.054  1.00  0.00     0.036 C 
HETATM   22  C   UNL     1     -46.549 -51.583  13.276  1.00  0.00     0.029 C 
HETATM   23  C   UNL     1     -46.695 -51.381  14.766  1.00  0.00     0.168 C 
HETATM   24  O   UNL     1     -45.380 -51.160  15.285  1.00  0.00    -0.384 OA
ENDBRANCH  19  20
ENDBRANCH  18  19
ENDBRANCH  16  18
ENDBRANCH   1  16
TORSDOF 6
ENDMDL
MODEL 7
REMARK VINA RESULT:      -6.2      2.227      3.019
REMARK  6 active torsions:
REMARK  status: ('A' for Active; 'I' for Inactive)
REMARK    1  A    between atoms: C_2  and  O_3 
REMARK    2  A    between atoms: C_2  and  C_10 
REMARK    3  A    between atoms: O_3  and  C_4 
REMARK    4  A    between atoms: C_4  and  C_5 
REMARK       I    between atoms: C_10  and  N_12 
REMARK    5  A    between atoms: N_12  and  C_13 
REMARK    6  A    between atoms: C_17  and  C_20 
ROOT
HETATM    1  C   UNL     1     -42.316 -49.026  12.499  1.00  0.00     0.251 C 
HETATM    2  O   UNL     1     -41.910 -49.730  11.573  1.00  0.00    -0.270 OA
HETATM    3  N   UNL     1     -43.059 -47.877  12.301  1.00  0.00    -0.311 N 
HETATM    4  H   UNL     1     -43.005 -47.125  12.975  1.00  0.00     0.170 HD
ENDROOT
BRANCH   3   5
HETATM    5  C   UNL     1     -43.487 -47.473  11.032  1.00  0.00     0.108 A 
HETATM    6  C   UNL     1     -42.853 -46.445  10.340  1.00  0.00     0.049 A 
HETATM    7  C   UNL     1     -43.388 -46.022   9.132  1.00  0.00     0.006 A 
HETATM    8  C   UNL     1     -44.549 -46.620   8.664  1.00  0.00     0.034 A 
HETATM    9  C   UNL     1     -45.118 -47.662   9.399  1.00  0.00     0.118 A 
HETATM   10  N   UNL     1     -44.562 -48.123  10.558  1.00  0.00    -0.339 N 
ATOM     11  HN  UNL     1     -44.948 -48.931  11.046  1.00  0.00     0.167 HD
BRANCH   9  12
HETATM   12  C   UNL     1     -46.451 -48.251   8.950  1.00  0.00     0.432 C 
HETATM   13  F   UNL     1     -46.445 -48.676   7.654  1.00  0.00    -0.165 F 
HETATM   14  F   UNL     1     -46.837 -49.329   9.689  1.00  0.00    -0.165 F 
HETATM   15  F   UNL     1     -47.473 -47.350   9.034  1.00  0.00    -0.165 F 
ENDBRANCH   9  12
ENDBRANCH   3   5
BRANCH   1  16
HETATM   16  C   UNL     1     -41.980 -49.346  13.971  1.00  0.00     0.209 C 
HETATM   17  C   UNL     1     -43.001 -50.348  14.508  1.00  0.00     0.050 C 
BRANCH  16  18
HETATM   18  O   UNL     1     -40.695 -49.948  14.150  1.00  0.00    -0.374 OA
BRANCH  18  19
HETATM   19  C   UNL     1     -39.664 -49.011  14.475  1.00  0.00     0.200 C 
BRANCH  19  20
HETATM   20  C   UNL     1     -38.406 -49.328  13.665  1.00  0.00     0.145 C 
HETATM   21  C   UNL     1     -38.526 -48.983  12.191  1.00  0.00     0.036 C 
HETATM   22  C   UNL     1     -37.656 -50.018  11.499  1.00  0.00     0.029 C 
HETATM   23  C   UNL     1     -37.275 -50.997  12.585  1.00  0.00     0.168 C 
HETATM   24  O   UNL     1     -38.134 -50.736  13.698  1.00  0.00    -0.384 OA
ENDBRANCH  19  20
ENDBRANCH  18  19
ENDBRANCH  16  18
ENDBRANCH   1  16
TORSDOF 6
ENDMDL
MODEL 8
REMARK VINA RESULT:      -6.1      3.419      5.417
REMARK  6 active torsions:
REMARK  status: ('A' for Active; 'I' for Inactive)
REMARK    1  A    between atoms: C_2  and  O_3 
REMARK    2  A    between atoms: C_2  and  C_10 
REMARK    3  A    between atoms: O_3  and  C_4 
REMARK    4  A    between atoms: C_4  and  C_5 
REMARK       I    between atoms: C_10  and  N_12 
REMARK    5  A    between atoms: N_12  and  C_13 
REMARK    6  A    between atoms: C_17  and  C_20 
ROOT
HETATM    1  C   UNL     1     -41.474 -50.288  12.209  1.00  0.00     0.251 C 
HETATM    2  O   UNL     1     -41.686 -49.850  13.340  1.00  0.00    -0.270 OA
HETATM    3  N   UNL     1     -41.933 -51.519  11.779  1.00  0.00    -0.311 N 
HETATM    4  H   UNL     1     -41.418 -52.025  11.072  1.00  0.00     0.170 HD
ENDROOT
BRANCH   3   5
HETATM    5  C   UNL     1     -42.756 -52.327  12.570  1.00  0.00     0.108 A 
HETATM    6  C   UNL     1     -42.301 -53.528  13.110  1.00  0.00     0.049 A 
HETATM    7  C   UNL     1     -43.196 -54.333  13.799  1.00  0.00     0.006 A 
HETATM    8  C   UNL     1     -44.519 -53.929  13.909  1.00  0.00     0.034 A 
HETATM    9  C   UNL     1     -44.900 -52.701  13.364  1.00  0.00     0.118 A 
HETATM   10  N   UNL     1     -44.009 -51.876  12.737  1.00  0.00    -0.339 N 
ATOM     11  HN  UNL     1     -44.287 -50.951  12.407  1.00  0.00     0.167 HD
BRANCH   9  12
HETATM   12  C   UNL     1     -46.370 -52.299  13.384  1.00  0.00     0.432 C 
HETATM   13  F   UNL     1     -46.933 -52.243  12.143  1.00  0.00    -0.165 F 
HETATM   14  F   UNL     1     -47.150 -53.152  14.105  1.00  0.00    -0.165 F 
HETATM   15  F   UNL     1     -46.563 -51.061  13.927  1.00  0.00    -0.165 F 
ENDBRANCH   9  12
ENDBRANCH   3   5
BRANCH   1  16
HETATM   16  C   UNL     1     -40.623 -49.509  11.182  1.00  0.00     0.209 C 
HETATM   17  C   UNL     1     -41.446 -48.343  10.637  1.00  0.00     0.050 C 
BRANCH  16  18
HETATM   18  O   UNL     1     -39.435 -48.938  11.736  1.00  0.00    -0.374 OA
BRANCH  18  19
HETATM   19  C   UNL     1     -38.308 -49.818  11.706  1.00  0.00     0.200 C 
BRANCH  19  20
HETATM   20  C   UNL     1     -37.887 -50.167  13.133  1.00  0.00     0.145 C 
HETATM   21  C   UNL     1     -38.367 -51.532  13.595  1.00  0.00     0.036 C 
HETATM   22  C   UNL     1     -38.583 -51.361  15.088  1.00  0.00     0.029 C 
HETATM   23  C   UNL     1     -38.420 -49.880  15.340  1.00  0.00     0.168 C 
HETATM   24  O   UNL     1     -38.461 -49.236  14.063  1.00  0.00    -0.384 OA
ENDBRANCH  19  20
ENDBRANCH  18  19
ENDBRANCH  16  18
ENDBRANCH   1  16
TORSDOF 6
ENDMDL
MODEL 9
REMARK VINA RESULT:      -6.0      4.974      6.839
REMARK  6 active torsions:
REMARK  status: ('A' for Active; 'I' for Inactive)
REMARK    1  A    between atoms: C_2  and  O_3 
REMARK    2  A    between atoms: C_2  and  C_10 
REMARK    3  A    between atoms: O_3  and  C_4 
REMARK    4  A    between atoms: C_4  and  C_5 
REMARK       I    between atoms: C_10  and  N_12 
REMARK    5  A    between atoms: N_12  and  C_13 
REMARK    6  A    between atoms: C_17  and  C_20 
ROOT
HETATM    1  C   UNL     1     -41.331 -53.442  13.385  1.00  0.00     0.251 C 
HETATM    2  O   UNL     1     -40.575 -53.741  12.460  1.00  0.00    -0.270 OA
HETATM    3  N   UNL     1     -41.604 -52.135  13.742  1.00  0.00    -0.311 N 
HETATM    4  H   UNL     1     -41.841 -51.917  14.700  1.00  0.00     0.170 HD
ENDROOT
BRANCH   3   5
HETATM    5  C   UNL     1     -41.113 -51.043  13.016  1.00  0.00     0.108 A 
HETATM    6  C   UNL     1     -41.957 -50.216  12.280  1.00  0.00     0.049 A 
HETATM    7  C   UNL     1     -41.398 -49.214  11.501  1.00  0.00     0.006 A 
HETATM    8  C   UNL     1     -40.017 -49.083  11.461  1.00  0.00     0.034 A 
HETATM    9  C   UNL     1     -39.233 -49.933  12.244  1.00  0.00     0.118 A 
HETATM   10  N   UNL     1     -39.781 -50.882  13.060  1.00  0.00    -0.339 N 
ATOM     11  HN  UNL     1     -39.200 -51.447  13.680  1.00  0.00     0.167 HD
BRANCH   9  12
HETATM   12  C   UNL     1     -37.714 -49.869  12.125  1.00  0.00     0.432 C 
HETATM   13  F   UNL     1     -37.101 -51.060  12.385  1.00  0.00    -0.165 F 
HETATM   14  F   UNL     1     -37.288 -49.497  10.886  1.00  0.00    -0.165 F 
HETATM   15  F   UNL     1     -37.162 -48.977  12.999  1.00  0.00    -0.165 F 
ENDBRANCH   9  12
ENDBRANCH   3   5
BRANCH   1  16
HETATM   16  C   UNL     1     -42.002 -54.517  14.266  1.00  0.00     0.209 C 
HETATM   17  C   UNL     1     -41.275 -54.585  15.608  1.00  0.00     0.050 C 
BRANCH  16  18
HETATM   18  O   UNL     1     -43.374 -54.240  14.566  1.00  0.00    -0.374 OA
BRANCH  18  19
HETATM   19  C   UNL     1     -44.238 -54.330  13.430  1.00  0.00     0.200 C 
BRANCH  19  20
HETATM   20  C   UNL     1     -44.818 -52.951  13.113  1.00  0.00     0.145 C 
HETATM   21  C   UNL     1     -45.440 -52.260  14.315  1.00  0.00     0.036 C 
HETATM   22  C   UNL     1     -46.568 -51.434  13.720  1.00  0.00     0.029 C 
HETATM   23  C   UNL     1     -46.648 -51.864  12.275  1.00  0.00     0.168 C 
HETATM   24  O   UNL     1     -45.882 -53.067  12.157  1.00  0.00    -0.384 OA
ENDBRANCH  19  20
ENDBRANCH  18  19
ENDBRANCH  16  18
ENDBRANCH   1  16
TORSDOF 6
ENDMDL
