MODEL 1
REMARK VINA RESULT:      -6.2      0.000      0.000
REMARK  6 active torsions:
REMARK  status: ('A' for Active; 'I' for Inactive)
REMARK    1  A    between atoms: C_2  and  C_4 
REMARK    2  A    between atoms: C_4  and  N_5 
REMARK    3  A    between atoms: C_9  and  C_10 
REMARK    4  A    between atoms: C_10  and  N_11 
REMARK       I    between atoms: N_11  and  C_12 
REMARK    5  A    between atoms: C_12  and  C_14 
REMARK    6  A    between atoms: C_14  and  N_15 
ROOT
HETATM    1  N   UNL     1     -41.054 -50.333  12.493  1.00  0.00    -0.357 N 
HETATM    2  C   UNL     1     -40.824 -51.598  12.990  1.00  0.00     0.236 C 
HETATM    3  O   UNL     1     -40.115 -52.422  12.420  1.00  0.00    -0.272 OA
HETATM    4  H   UNL     1     -41.831 -49.789  12.856  1.00  0.00     0.162 HD
ENDROOT
BRANCH   1   5
HETATM    5  C   UNL     1     -40.466 -49.858  11.252  1.00  0.00     0.156 C 
BRANCH   5   6
HETATM    6  C   UNL     1     -40.889 -48.426  10.896  1.00  0.00     0.167 C 
HETATM    7  O   UNL     1     -39.919 -47.505  11.439  1.00  0.00    -0.381 OA
HETATM    8  C   UNL     1     -40.266 -46.149  11.118  1.00  0.00     0.198 C 
HETATM    9  C   UNL     1     -41.690 -45.793  11.585  1.00  0.00     0.298 C 
HETATM   10  N   UNL     1     -42.734 -46.718  11.089  1.00  0.00     0.093 N 
HETATM   11  C   UNL     1     -42.298 -48.094  11.426  1.00  0.00     0.305 C 
BRANCH  10  12
HETATM   12  C   UNL     1     -43.007 -46.518   9.654  1.00  0.00     0.276 C 
BRANCH  12  13
HETATM   13  C   UNL     1     -43.986 -47.550   9.047  1.00  0.00     0.006 C 
HETATM   14  C   UNL     1     -45.425 -47.034   9.053  1.00  0.00     0.011 C 
HETATM   15  C   UNL     1     -43.559 -47.916   7.624  1.00  0.00     0.011 C 
ENDBRANCH  12  13
ENDBRANCH  10  12
ENDBRANCH   5   6
ENDBRANCH   1   5
BRANCH   2  16
HETATM   16  C   UNL     1     -41.494 -51.878  14.336  1.00  0.00     0.235 C 
BRANCH  16  17
HETATM   17  N   UNL     1     -42.599 -52.825  14.207  1.00  0.00    -0.301 N 
HETATM   18  C   UNL     1     -42.413 -54.137  14.567  1.00  0.00     0.102 A 
HETATM   19  C   UNL     1     -43.404 -55.024  14.514  1.00  0.00     0.092 A 
HETATM   20  C   UNL     1     -44.737 -54.593  14.061  1.00  0.00     0.252 A 
HETATM   21  O   UNL     1     -45.659 -55.403  14.093  1.00  0.00    -0.268 OA
HETATM   22  N   UNL     1     -44.840 -53.282  13.633  1.00  0.00    -0.271 N 
HETATM   23  C   UNL     1     -46.117 -52.812  13.136  1.00  0.00     0.164 C 
HETATM   24  C   UNL     1     -43.805 -52.352  13.697  1.00  0.00     0.331 A 
HETATM   25  O   UNL     1     -43.942 -51.179  13.341  1.00  0.00    -0.246 OA
ENDBRANCH  16  17
ENDBRANCH   2  16
TORSDOF 6
ENDMDL
MODEL 2
REMARK VINA RESULT:      -6.0      1.626      2.311
REMARK  6 active torsions:
REMARK  status: ('A' for Active; 'I' for Inactive)
REMARK    1  A    between atoms: C_2  and  C_4 
REMARK    2  A    between atoms: C_4  and  N_5 
REMARK    3  A    between atoms: C_9  and  C_10 
REMARK    4  A    between atoms: C_10  and  N_11 
REMARK       I    between atoms: N_11  and  C_12 
REMARK    5  A    between atoms: C_12  and  C_14 
REMARK    6  A    between atoms: C_14  and  N_15 
ROOT
HETATM    1  N   UNL     1     -42.011 -51.067  11.787  1.00  0.00    -0.357 N 
HETATM    2  C   UNL     1     -42.210 -52.080  12.702  1.00  0.00     0.236 C 
HETATM    3  O   UNL     1     -41.469 -52.269  13.662  1.00  0.00    -0.272 OA
HETATM    4  H   UNL     1     -42.487 -51.105  10.891  1.00  0.00     0.162 HD
ENDROOT
BRANCH   1   5
HETATM    5  C   UNL     1     -40.910 -50.124  11.888  1.00  0.00     0.156 C 
BRANCH   5   6
HETATM    6  C   UNL     1     -41.319 -48.684  11.547  1.00  0.00     0.167 C 
HETATM    7  O   UNL     1     -40.546 -47.775  12.359  1.00  0.00    -0.381 OA
HETATM    8  C   UNL     1     -40.885 -46.411  12.064  1.00  0.00     0.198 C 
HETATM    9  C   UNL     1     -42.395 -46.146  12.221  1.00  0.00     0.298 C 
HETATM   10  N   UNL     1     -43.251 -47.066  11.438  1.00  0.00     0.093 N 
HETATM   11  C   UNL     1     -42.828 -48.447  11.767  1.00  0.00     0.305 C 
BRANCH  10  12
HETATM   12  C   UNL     1     -43.208 -46.761   9.996  1.00  0.00     0.276 C 
BRANCH  12  13
HETATM   13  C   UNL     1     -44.127 -47.656   9.133  1.00  0.00     0.006 C 
HETATM   14  C   UNL     1     -45.550 -47.103   9.065  1.00  0.00     0.011 C 
HETATM   15  C   UNL     1     -43.549 -47.812   7.725  1.00  0.00     0.011 C 
ENDBRANCH  12  13
ENDBRANCH  10  12
ENDBRANCH   5   6
ENDBRANCH   1   5
BRANCH   2  16
HETATM   16  C   UNL     1     -43.458 -52.926  12.444  1.00  0.00     0.235 C 
BRANCH  16  17
HETATM   17  N   UNL     1     -44.519 -52.638  13.405  1.00  0.00    -0.301 N 
HETATM   18  C   UNL     1     -45.377 -51.591  13.174  1.00  0.00     0.102 A 
HETATM   19  C   UNL     1     -46.389 -51.322  13.996  1.00  0.00     0.092 A 
HETATM   20  C   UNL     1     -46.600 -52.165  15.184  1.00  0.00     0.252 A 
HETATM   21  O   UNL     1     -47.584 -51.953  15.888  1.00  0.00    -0.268 OA
HETATM   22  N   UNL     1     -45.655 -53.149  15.408  1.00  0.00    -0.271 N 
HETATM   23  C   UNL     1     -45.787 -53.983  16.585  1.00  0.00     0.164 C 
HETATM   24  C   UNL     1     -44.601 -53.437  14.543  1.00  0.00     0.331 A 
HETATM   25  O   UNL     1     -43.798 -54.347  14.755  1.00  0.00    -0.246 OA
ENDBRANCH  16  17
ENDBRANCH   2  16
TORSDOF 6
ENDMDL
MODEL 3
REMARK VINA RESULT:      -6.0      2.271      6.839
REMARK  6 active torsions:
REMARK  status: ('A' for Active; 'I' for Inactive)
REMARK    1  A    between atoms: C_2  and  C_4 
REMARK    2  A    between atoms: C_4  and  N_5 
REMARK    3  A    between atoms: C_9  and  C_10 
REMARK    4  A    between atoms: C_10  and  N_11 
REMARK       I    between atoms: N_11  and  C_12 
REMARK    5  A    between atoms: C_12  and  C_14 
REMARK    6  A    between atoms: C_14  and  N_15 
ROOT
HETATM    1  N   UNL     1     -40.862 -51.853  11.577  1.00  0.00    -0.357 N 
HETATM    2  C   UNL     1     -40.100 -50.830  12.100  1.00  0.00     0.236 C 
HETATM    3  O   UNL     1     -39.435 -50.948  13.125  1.00  0.00    -0.272 OA
HETATM    4  H   UNL     1     -41.578 -51.639  10.889  1.00  0.00     0.162 HD
ENDROOT
BRANCH   1   5
HETATM    5  C   UNL     1     -40.934 -53.170  12.188  1.00  0.00     0.156 C 
BRANCH   5   6
HETATM    6  C   UNL     1     -42.094 -53.306  13.185  1.00  0.00     0.167 C 
HETATM    7  O   UNL     1     -41.975 -54.573  13.868  1.00  0.00    -0.381 OA
HETATM    8  C   UNL     1     -43.034 -54.739  14.824  1.00  0.00     0.198 C 
HETATM    9  C   UNL     1     -44.424 -54.586  14.177  1.00  0.00     0.298 C 
HETATM   10  N   UNL     1     -44.603 -53.320  13.431  1.00  0.00     0.093 N 
HETATM   11  C   UNL     1     -43.466 -53.200  12.489  1.00  0.00     0.305 C 
BRANCH  10  12
HETATM   12  C   UNL     1     -44.747 -52.166  14.337  1.00  0.00     0.276 C 
BRANCH  12  13
HETATM   13  C   UNL     1     -46.039 -51.346  14.115  1.00  0.00     0.006 C 
HETATM   14  C   UNL     1     -46.664 -51.636  12.750  1.00  0.00     0.011 C 
HETATM   15  C   UNL     1     -47.047 -51.626  15.232  1.00  0.00     0.011 C 
ENDBRANCH  12  13
ENDBRANCH  10  12
ENDBRANCH   5   6
ENDBRANCH   1   5
BRANCH   2  16
HETATM   16  C   UNL     1     -40.120 -49.543  11.274  1.00  0.00     0.235 C 
BRANCH  16  17
HETATM   17  N   UNL     1     -40.962 -48.517  11.885  1.00  0.00    -0.301 N 
HETATM   18  C   UNL     1     -42.314 -48.520  11.645  1.00  0.00     0.102 A 
HETATM   19  C   UNL     1     -43.127 -47.636  12.219  1.00  0.00     0.092 A 
HETATM   20  C   UNL     1     -42.570 -46.629  13.136  1.00  0.00     0.252 A 
HETATM   21  O   UNL     1     -43.342 -45.872  13.719  1.00  0.00    -0.268 OA
HETATM   22  N   UNL     1     -41.193 -46.624  13.270  1.00  0.00    -0.271 N 
HETATM   23  C   UNL     1     -40.583 -45.627  14.127  1.00  0.00     0.164 C 
HETATM   24  C   UNL     1     -40.343 -47.554  12.677  1.00  0.00     0.331 A 
HETATM   25  O   UNL     1     -39.123 -47.543  12.849  1.00  0.00    -0.246 OA
ENDBRANCH  16  17
ENDBRANCH   2  16
TORSDOF 6
ENDMDL
MODEL 4
REMARK VINA RESULT:      -6.0      2.213      7.141
REMARK  6 active torsions:
REMARK  status: ('A' for Active; 'I' for Inactive)
REMARK    1  A    between atoms: C_2  and  C_4 
REMARK    2  A    between atoms: C_4  and  N_5 
REMARK    3  A    between atoms: C_9  and  C_10 
REMARK    4  A    between atoms: C_10  and  N_11 
REMARK       I    between atoms: N_11  and  C_12 
REMARK    5  A    between atoms: C_12  and  C_14 
REMARK    6  A    between atoms: C_14  and  N_15 
ROOT
HETATM    1  N   UNL     1     -41.137 -51.179  11.428  1.00  0.00    -0.357 N 
HETATM    2  C   UNL     1     -40.521 -49.976  11.702  1.00  0.00     0.236 C 
HETATM    3  O   UNL     1     -39.682 -49.840  12.588  1.00  0.00    -0.272 OA
HETATM    4  H   UNL     1     -41.987 -51.188  10.873  1.00  0.00     0.162 HD
ENDROOT
BRANCH   1   5
HETATM    5  C   UNL     1     -40.837 -52.399  12.159  1.00  0.00     0.156 C 
BRANCH   5   6
HETATM    6  C   UNL     1     -41.972 -52.831  13.099  1.00  0.00     0.167 C 
HETATM    7  O   UNL     1     -41.700 -54.167  13.574  1.00  0.00    -0.381 OA
HETATM    8  C   UNL     1     -42.732 -54.609  14.471  1.00  0.00     0.198 C 
HETATM    9  C   UNL     1     -44.129 -54.523  13.828  1.00  0.00     0.298 C 
HETATM   10  N   UNL     1     -44.461 -53.184  13.289  1.00  0.00     0.093 N 
HETATM   11  C   UNL     1     -43.346 -52.779  12.401  1.00  0.00     0.305 C 
BRANCH  10  12
HETATM   12  C   UNL     1     -44.745 -52.216  14.364  1.00  0.00     0.276 C 
BRANCH  12  13
HETATM   13  C   UNL     1     -45.980 -51.323  14.101  1.00  0.00     0.006 C 
HETATM   14  C   UNL     1     -46.646 -51.662  12.767  1.00  0.00     0.011 C 
HETATM   15  C   UNL     1     -46.986 -51.455  15.246  1.00  0.00     0.011 C 
ENDBRANCH  12  13
ENDBRANCH  10  12
ENDBRANCH   5   6
ENDBRANCH   1   5
BRANCH   2  16
HETATM   16  C   UNL     1     -40.940 -48.829  10.781  1.00  0.00     0.235 C 
BRANCH  16  17
HETATM   17  N   UNL     1     -41.488 -47.701  11.531  1.00  0.00    -0.301 N 
HETATM   18  C   UNL     1     -42.646 -47.866  12.252  1.00  0.00     0.102 A 
HETATM   19  C   UNL     1     -43.155 -46.882  12.990  1.00  0.00     0.092 A 
HETATM   20  C   UNL     1     -42.464 -45.584  13.041  1.00  0.00     0.252 A 
HETATM   21  O   UNL     1     -42.903 -44.714  13.789  1.00  0.00    -0.268 OA
HETATM   22  N   UNL     1     -41.353 -45.453  12.229  1.00  0.00    -0.271 N 
HETATM   23  C   UNL     1     -40.656 -44.183  12.205  1.00  0.00     0.164 C 
HETATM   24  C   UNL     1     -40.815 -46.485  11.463  1.00  0.00     0.331 A 
HETATM   25  O   UNL     1     -39.799 -46.344  10.779  1.00  0.00    -0.246 OA
ENDBRANCH  16  17
ENDBRANCH   2  16
TORSDOF 6
ENDMDL
MODEL 5
REMARK VINA RESULT:      -6.0      2.909      7.096
REMARK  6 active torsions:
REMARK  status: ('A' for Active; 'I' for Inactive)
REMARK    1  A    between atoms: C_2  and  C_4 
REMARK    2  A    between atoms: C_4  and  N_5 
REMARK    3  A    between atoms: C_9  and  C_10 
REMARK    4  A    between atoms: C_10  and  N_11 
REMARK       I    between atoms: N_11  and  C_12 
REMARK    5  A    between atoms: C_12  and  C_14 
REMARK    6  A    between atoms: C_14  and  N_15 
ROOT
HETATM    1  N   UNL     1     -39.867 -51.163  12.970  1.00  0.00    -0.357 N 
HETATM    2  C   UNL     1     -38.601 -50.846  12.525  1.00  0.00     0.236 C 
HETATM    3  O   UNL     1     -37.626 -51.570  12.710  1.00  0.00    -0.272 OA
HETATM    4  H   UNL     1     -40.574 -50.435  13.018  1.00  0.00     0.162 HD
ENDROOT
BRANCH   1   5
HETATM    5  C   UNL     1     -40.163 -52.392  13.687  1.00  0.00     0.156 C 
BRANCH   5   6
HETATM    6  C   UNL     1     -41.667 -52.684  13.784  1.00  0.00     0.167 C 
HETATM    7  O   UNL     1     -41.850 -54.011  14.321  1.00  0.00    -0.381 OA
HETATM    8  C   UNL     1     -43.247 -54.324  14.444  1.00  0.00     0.198 C 
HETATM    9  C   UNL     1     -43.993 -54.160  13.106  1.00  0.00     0.298 C 
HETATM   10  N   UNL     1     -43.821 -52.829  12.481  1.00  0.00     0.093 N 
HETATM   11  C   UNL     1     -42.366 -52.559  12.414  1.00  0.00     0.305 C 
BRANCH  10  12
HETATM   12  C   UNL     1     -44.585 -51.787  13.192  1.00  0.00     0.276 C 
BRANCH  12  13
HETATM   13  C   UNL     1     -46.095 -52.091  13.326  1.00  0.00     0.006 C 
HETATM   14  C   UNL     1     -46.708 -51.382  14.534  1.00  0.00     0.011 C 
HETATM   15  C   UNL     1     -46.834 -51.696  12.046  1.00  0.00     0.011 C 
ENDBRANCH  12  13
ENDBRANCH  10  12
ENDBRANCH   5   6
ENDBRANCH   1   5
BRANCH   2  16
HETATM   16  C   UNL     1     -38.516 -49.533  11.745  1.00  0.00     0.235 C 
BRANCH  16  17
HETATM   17  N   UNL     1     -38.697 -48.372  12.613  1.00  0.00    -0.301 N 
HETATM   18  C   UNL     1     -37.916 -48.236  13.735  1.00  0.00     0.102 A 
HETATM   19  C   UNL     1     -38.010 -47.171  14.528  1.00  0.00     0.092 A 
HETATM   20  C   UNL     1     -38.973 -46.108  14.199  1.00  0.00     0.252 A 
HETATM   21  O   UNL     1     -38.992 -45.096  14.895  1.00  0.00    -0.268 OA
HETATM   22  N   UNL     1     -39.789 -46.341  13.107  1.00  0.00    -0.271 N 
HETATM   23  C   UNL     1     -40.785 -45.348  12.760  1.00  0.00     0.164 C 
HETATM   24  C   UNL     1     -39.684 -47.451  12.272  1.00  0.00     0.331 A 
HETATM   25  O   UNL     1     -40.403 -47.609  11.284  1.00  0.00    -0.246 OA
ENDBRANCH  16  17
ENDBRANCH   2  16
TORSDOF 6
ENDMDL
MODEL 6
REMARK VINA RESULT:      -5.7      2.002      7.006
REMARK  6 active torsions:
REMARK  status: ('A' for Active; 'I' for Inactive)
REMARK    1  A    between atoms: C_2  and  C_4 
REMARK    2  A    between atoms: C_4  and  N_5 
REMARK    3  A    between atoms: C_9  and  C_10 
REMARK    4  A    between atoms: C_10  and  N_11 
REMARK       I    between atoms: N_11  and  C_12 
REMARK    5  A    between atoms: C_12  and  C_14 
REMARK    6  A    between atoms: C_14  and  N_15 
ROOT
HETATM    1  N   UNL     1     -40.027 -50.399  13.390  1.00  0.00    -0.357 N 
HETATM    2  C   UNL     1     -39.761 -49.046  13.379  1.00  0.00     0.236 C 
HETATM    3  O   UNL     1     -39.824 -48.344  14.384  1.00  0.00    -0.272 OA
HETATM    4  H   UNL     1     -40.208 -50.878  12.513  1.00  0.00     0.162 HD
ENDROOT
BRANCH   1   5
HETATM    5  C   UNL     1     -40.396 -51.116  14.599  1.00  0.00     0.156 C 
BRANCH   5   6
HETATM    6  C   UNL     1     -41.632 -52.009  14.415  1.00  0.00     0.167 C 
HETATM    7  O   UNL     1     -41.196 -53.351  14.108  1.00  0.00    -0.381 OA
HETATM    8  C   UNL     1     -42.322 -54.228  13.942  1.00  0.00     0.198 C 
HETATM    9  C   UNL     1     -43.304 -53.707  12.876  1.00  0.00     0.298 C 
HETATM   10  N   UNL     1     -43.767 -52.321  13.112  1.00  0.00     0.093 N 
HETATM   11  C   UNL     1     -42.562 -51.481  13.304  1.00  0.00     0.305 C 
BRANCH  10  12
HETATM   12  C   UNL     1     -44.726 -52.246  14.229  1.00  0.00     0.276 C 
BRANCH  12  13
HETATM   13  C   UNL     1     -45.956 -51.351  13.949  1.00  0.00     0.006 C 
HETATM   14  C   UNL     1     -46.592 -51.674  12.598  1.00  0.00     0.011 C 
HETATM   15  C   UNL     1     -46.987 -51.495  15.071  1.00  0.00     0.011 C 
ENDBRANCH  12  13
ENDBRANCH  10  12
ENDBRANCH   5   6
ENDBRANCH   1   5
BRANCH   2  16
HETATM   16  C   UNL     1     -39.339 -48.498  12.015  1.00  0.00     0.235 C 
BRANCH  16  17
HETATM   17  N   UNL     1     -40.424 -47.771  11.361  1.00  0.00    -0.301 N 
HETATM   18  C   UNL     1     -41.351 -48.461  10.618  1.00  0.00     0.102 A 
HETATM   19  C   UNL     1     -42.384 -47.848  10.046  1.00  0.00     0.092 A 
HETATM   20  C   UNL     1     -42.545 -46.394  10.212  1.00  0.00     0.252 A 
HETATM   21  O   UNL     1     -43.547 -45.857   9.745  1.00  0.00    -0.268 OA
HETATM   22  N   UNL     1     -41.536 -45.744  10.899  1.00  0.00    -0.271 N 
HETATM   23  C   UNL     1     -41.619 -44.306  11.057  1.00  0.00     0.164 C 
HETATM   24  C   UNL     1     -40.459 -46.387  11.505  1.00  0.00     0.331 A 
HETATM   25  O   UNL     1     -39.597 -45.779  12.142  1.00  0.00    -0.246 OA
ENDBRANCH  16  17
ENDBRANCH   2  16
TORSDOF 6
ENDMDL
MODEL 7
REMARK VINA RESULT:      -5.6      1.753      2.881
REMARK  6 active torsions:
REMARK  status: ('A' for Active; 'I' for Inactive)
REMARK    1  A    between atoms: C_2  and  C_4 
REMARK    2  A    between atoms: C_4  and  N_5 
REMARK    3  A    between atoms: C_9  and  C_10 
REMARK    4  A    between atoms: C_10  and  N_11 
REMARK       I    between atoms: N_11  and  C_12 
REMARK    5  A    between atoms: C_12  and  C_14 
REMARK    6  A    between atoms: C_14  and  N_15 
ROOT
HETATM    1  N   UNL     1     -40.874 -51.204  12.747  1.00  0.00    -0.357 N 
HETATM    2  C   UNL     1     -40.225 -52.391  13.015  1.00  0.00     0.236 C 
HETATM    3  O   UNL     1     -39.133 -52.446  13.572  1.00  0.00    -0.272 OA
HETATM    4  H   UNL     1     -41.634 -51.193  12.074  1.00  0.00     0.162 HD
ENDROOT
BRANCH   1   5
HETATM    5  C   UNL     1     -40.325 -49.910  13.115  1.00  0.00     0.156 C 
BRANCH   5   6
HETATM    6  C   UNL     1     -41.102 -48.733  12.507  1.00  0.00     0.167 C 
HETATM    7  O   UNL     1     -42.344 -49.227  11.961  1.00  0.00    -0.381 OA
HETATM    8  C   UNL     1     -43.114 -48.156  11.392  1.00  0.00     0.198 C 
HETATM    9  C   UNL     1     -42.316 -47.374  10.332  1.00  0.00     0.298 C 
HETATM   10  N   UNL     1     -41.012 -46.865  10.816  1.00  0.00     0.093 N 
HETATM   11  C   UNL     1     -40.288 -48.011  11.414  1.00  0.00     0.305 C 
BRANCH  10  12
HETATM   12  C   UNL     1     -41.176 -45.723  11.733  1.00  0.00     0.276 C 
BRANCH  12  13
HETATM   13  C   UNL     1     -40.191 -44.559  11.476  1.00  0.00     0.006 C 
HETATM   14  C   UNL     1     -39.136 -44.459  12.578  1.00  0.00     0.011 C 
HETATM   15  C   UNL     1     -39.519 -44.721  10.110  1.00  0.00     0.011 C 
ENDBRANCH  12  13
ENDBRANCH  10  12
ENDBRANCH   5   6
ENDBRANCH   1   5
BRANCH   2  16
HETATM   16  C   UNL     1     -40.999 -53.642  12.594  1.00  0.00     0.235 C 
BRANCH  16  17
HETATM   17  N   UNL     1     -42.091 -53.942  13.517  1.00  0.00    -0.301 N 
HETATM   18  C   UNL     1     -41.817 -54.563  14.712  1.00  0.00     0.102 A 
HETATM   19  C   UNL     1     -42.771 -54.811  15.606  1.00  0.00     0.092 A 
HETATM   20  C   UNL     1     -44.157 -54.411  15.314  1.00  0.00     0.252 A 
HETATM   21  O   UNL     1     -45.011 -54.575  16.181  1.00  0.00    -0.268 OA
HETATM   22  N   UNL     1     -44.383 -53.868  14.062  1.00  0.00    -0.271 N 
HETATM   23  C   UNL     1     -45.736 -53.494  13.703  1.00  0.00     0.164 C 
HETATM   24  C   UNL     1     -43.384 -53.600  13.130  1.00  0.00     0.331 A 
HETATM   25  O   UNL     1     -43.616 -53.080  12.038  1.00  0.00    -0.246 OA
ENDBRANCH  16  17
ENDBRANCH   2  16
TORSDOF 6
ENDMDL
MODEL 8
REMARK VINA RESULT:      -5.6      2.360      3.729
REMARK  6 active torsions:
REMARK  status: ('A' for Active; 'I' for Inactive)
REMARK    1  A    between atoms: C_2  and  C_4 
REMARK    2  A    between atoms: C_4  and  N_5 
REMARK    3  A    between atoms: C_9  and  C_10 
REMARK    4  A    between atoms: C_10  and  N_11 
REMARK       I    between atoms: N_11  and  C_12 
REMARK    5  A    between atoms: C_12  and  C_14 
REMARK    6  A    between atoms: C_14  and  N_15 
ROOT
HETATM    1  N   UNL     1     -40.132 -52.652  15.259  1.00  0.00    -0.357 N 
HETATM    2  C   UNL     1     -40.130 -53.925  14.729  1.00  0.00     0.236 C 
HETATM    3  O   UNL     1     -39.185 -54.383  14.093  1.00  0.00    -0.272 OA
HETATM    4  H   UNL     1     -41.011 -52.235  15.549  1.00  0.00     0.162 HD
ENDROOT
BRANCH   1   5
HETATM    5  C   UNL     1     -39.007 -51.743  15.121  1.00  0.00     0.156 C 
BRANCH   5   6
HETATM    6  C   UNL     1     -38.927 -51.091  13.733  1.00  0.00     0.167 C 
HETATM    7  O   UNL     1     -37.691 -51.489  13.101  1.00  0.00    -0.381 OA
HETATM    8  C   UNL     1     -37.580 -50.914  11.790  1.00  0.00     0.198 C 
HETATM    9  C   UNL     1     -37.717 -49.380  11.820  1.00  0.00     0.298 C 
HETATM   10  N   UNL     1     -38.950 -48.900  12.485  1.00  0.00     0.093 N 
HETATM   11  C   UNL     1     -39.016 -49.554  13.813  1.00  0.00     0.305 C 
BRANCH  10  12
HETATM   12  C   UNL     1     -40.146 -49.127  11.653  1.00  0.00     0.276 C 
BRANCH  12  13
HETATM   13  C   UNL     1     -41.005 -47.863  11.422  1.00  0.00     0.006 C 
HETATM   14  C   UNL     1     -40.138 -46.628  11.180  1.00  0.00     0.011 C 
HETATM   15  C   UNL     1     -41.965 -48.077  10.249  1.00  0.00     0.011 C 
ENDBRANCH  12  13
ENDBRANCH  10  12
ENDBRANCH   5   6
ENDBRANCH   1   5
BRANCH   2  16
HETATM   16  C   UNL     1     -41.389 -54.737  15.034  1.00  0.00     0.235 C 
BRANCH  16  17
HETATM   17  N   UNL     1     -42.548 -54.241  14.297  1.00  0.00    -0.301 N 
HETATM   18  C   UNL     1     -42.362 -53.567  13.114  1.00  0.00     0.102 A 
HETATM   19  C   UNL     1     -43.389 -53.141  12.383  1.00  0.00     0.092 A 
HETATM   20  C   UNL     1     -44.762 -53.396  12.847  1.00  0.00     0.252 A 
HETATM   21  O   UNL     1     -45.698 -53.066  12.123  1.00  0.00    -0.268 OA
HETATM   22  N   UNL     1     -44.884 -54.002  14.084  1.00  0.00    -0.271 N 
HETATM   23  C   UNL     1     -46.213 -54.240  14.612  1.00  0.00     0.164 C 
HETATM   24  C   UNL     1     -43.810 -54.456  14.845  1.00  0.00     0.331 A 
HETATM   25  O   UNL     1     -43.957 -55.028  15.927  1.00  0.00    -0.246 OA
ENDBRANCH  16  17
ENDBRANCH   2  16
TORSDOF 6
ENDMDL
MODEL 9
REMARK VINA RESULT:      -5.5      2.341      3.975
REMARK  6 active torsions:
REMARK  status: ('A' for Active; 'I' for Inactive)
REMARK    1  A    between atoms: C_2  and  C_4 
REMARK    2  A    between atoms: C_4  and  N_5 
REMARK    3  A    between atoms: C_9  and  C_10 
REMARK    4  A    between atoms: C_10  and  N_11 
REMARK       I    between atoms: N_11  and  C_12 
REMARK    5  A    between atoms: C_12  and  C_14 
REMARK    6  A    between atoms: C_14  and  N_15 
ROOT
HETATM    1  N   UNL     1     -42.533 -52.366  11.897  1.00  0.00    -0.357 N 
HETATM    2  C   UNL     1     -42.752 -53.387  12.796  1.00  0.00     0.236 C 
HETATM    3  O   UNL     1     -41.893 -53.787  13.577  1.00  0.00    -0.272 OA
HETATM    4  H   UNL     1     -43.171 -52.244  11.116  1.00  0.00     0.162 HD
ENDROOT
BRANCH   1   5
HETATM    5  C   UNL     1     -41.265 -51.662  11.802  1.00  0.00     0.156 C 
BRANCH   5   6
HETATM    6  C   UNL     1     -41.363 -50.188  12.222  1.00  0.00     0.167 C 
HETATM    7  O   UNL     1     -42.741 -49.881  12.526  1.00  0.00    -0.381 OA
HETATM    8  C   UNL     1     -42.879 -48.512  12.939  1.00  0.00     0.198 C 
HETATM    9  C   UNL     1     -42.311 -47.534  11.894  1.00  0.00     0.298 C 
HETATM   10  N   UNL     1     -40.908 -47.813  11.511  1.00  0.00     0.093 N 
HETATM   11  C   UNL     1     -40.832 -49.241  11.127  1.00  0.00     0.305 C 
BRANCH  10  12
HETATM   12  C   UNL     1     -39.964 -47.435  12.579  1.00  0.00     0.276 C 
BRANCH  12  13
HETATM   13  C   UNL     1     -40.272 -46.072  13.243  1.00  0.00     0.006 C 
HETATM   14  C   UNL     1     -40.245 -46.169  14.768  1.00  0.00     0.011 C 
HETATM   15  C   UNL     1     -39.283 -45.009  12.760  1.00  0.00     0.011 C 
ENDBRANCH  12  13
ENDBRANCH  10  12
ENDBRANCH   5   6
ENDBRANCH   1   5
BRANCH   2  16
HETATM   16  C   UNL     1     -44.171 -53.957  12.770  1.00  0.00     0.235 C 
BRANCH  16  17
HETATM   17  N   UNL     1     -45.045 -53.284  13.727  1.00  0.00    -0.301 N 
HETATM   18  C   UNL     1     -45.725 -52.153  13.345  1.00  0.00     0.102 A 
HETATM   19  C   UNL     1     -46.571 -51.535  14.166  1.00  0.00     0.092 A 
HETATM   20  C   UNL     1     -46.789 -52.072  15.519  1.00  0.00     0.252 A 
HETATM   21  O   UNL     1     -47.630 -51.537  16.235  1.00  0.00    -0.268 OA
HETATM   22  N   UNL     1     -46.014 -53.161  15.874  1.00  0.00    -0.271 N 
HETATM   23  C   UNL     1     -46.154 -53.707  17.208  1.00  0.00     0.164 C 
HETATM   24  C   UNL     1     -45.135 -53.814  15.012  1.00  0.00     0.331 A 
HETATM   25  O   UNL     1     -44.487 -54.806  15.350  1.00  0.00    -0.246 OA
ENDBRANCH  16  17
ENDBRANCH   2  16
TORSDOF 6
ENDMDL
