MODEL 1
REMARK VINA RESULT:      -5.4      0.000      0.000
REMARK  3 active torsions:
REMARK  status: ('A' for Active; 'I' for Inactive)
REMARK    1  A    between atoms: C_1  and  N_2 
REMARK    2  A    between atoms: C_1  and  C_11 
REMARK    3  A    between atoms: N_2  and  C_3 
ROOT
HETATM    1  N   UNL     1     -42.158 -49.387  11.459  1.00  0.00    -0.373 N 
HETATM    2  H   UNL     1     -42.474 -50.242  11.003  1.00  0.00     0.161 HD
ENDROOT
BRANCH   1   3
HETATM    3  C   UNL     1     -42.922 -48.187  11.139  1.00  0.00     0.155 C 
BRANCH   3   4
HETATM    4  C   UNL     1     -42.379 -47.501   9.866  1.00  0.00     0.167 C 
HETATM    5  C   UNL     1     -42.312 -45.968  10.038  1.00  0.00     0.303 C 
HETATM    6  N   UNL     1     -43.648 -45.359  10.112  1.00  0.00     0.087 N 
HETATM    7  C   UNL     1     -44.400 -45.733   8.901  1.00  0.00     0.295 C 
HETATM    8  H   UNL     1     -43.556 -44.343  10.145  1.00  0.00     0.316 HD
HETATM    9  C   UNL     1     -44.441 -47.254   8.680  1.00  0.00     0.198 C 
HETATM   10  O   UNL     1     -43.134 -47.840   8.682  1.00  0.00    -0.381 OA
ENDBRANCH   3   4
ENDBRANCH   1   3
BRANCH   1  11
HETATM   11  C   UNL     1     -40.786 -49.377  11.609  1.00  0.00     0.115 A 
HETATM   12  C   UNL     1     -40.142 -48.777  12.681  1.00  0.00     0.051 A 
HETATM   13  C   UNL     1     -38.754 -48.842  12.782  1.00  0.00     0.022 A 
HETATM   14  C   UNL     1     -38.063 -49.530  11.813  1.00  0.00     0.107 A 
HETATM   15  N   UNL     1     -38.688 -50.123  10.782  1.00  0.00    -0.310 N 
HETATM   16  N   UNL     1     -40.059 -50.043  10.687  1.00  0.00    -0.286 N 
ATOM     17  HN  UNL     1     -38.152 -50.627  10.076  1.00  0.00     0.186 HD
ATOM     18  HN  UNL     1     -40.534 -50.495   9.905  1.00  0.00     0.188 HD
ENDBRANCH   1  11
TORSDOF 3
ENDMDL
MODEL 2
REMARK VINA RESULT:      -5.4      4.725      5.937
REMARK  3 active torsions:
REMARK  status: ('A' for Active; 'I' for Inactive)
REMARK    1  A    between atoms: C_1  and  N_2 
REMARK    2  A    between atoms: C_1  and  C_11 
REMARK    3  A    between atoms: N_2  and  C_3 
ROOT
HETATM    1  N   UNL     1     -42.282 -52.396  11.721  1.00  0.00    -0.373 N 
HETATM    2  H   UNL     1     -42.823 -52.016  10.946  1.00  0.00     0.161 HD
ENDROOT
BRANCH   1   3
HETATM    3  C   UNL     1     -43.065 -52.910  12.839  1.00  0.00     0.155 C 
BRANCH   3   4
HETATM    4  C   UNL     1     -44.537 -53.144  12.430  1.00  0.00     0.167 C 
HETATM    5  C   UNL     1     -45.494 -52.237  13.232  1.00  0.00     0.303 C 
HETATM    6  N   UNL     1     -45.557 -52.613  14.652  1.00  0.00     0.087 N 
HETATM    7  C   UNL     1     -45.952 -54.030  14.743  1.00  0.00     0.295 C 
HETATM    8  H   UNL     1     -46.258 -52.042  15.124  1.00  0.00     0.316 HD
HETATM    9  C   UNL     1     -45.041 -54.951  13.914  1.00  0.00     0.198 C 
HETATM   10  O   UNL     1     -44.937 -54.527  12.550  1.00  0.00    -0.381 OA
ENDBRANCH   3   4
ENDBRANCH   1   3
BRANCH   1  11
HETATM   11  C   UNL     1     -41.103 -51.701  11.897  1.00  0.00     0.115 A 
HETATM   12  C   UNL     1     -40.257 -51.899  12.979  1.00  0.00     0.051 A 
HETATM   13  C   UNL     1     -39.064 -51.185  13.067  1.00  0.00     0.022 A 
HETATM   14  C   UNL     1     -38.750 -50.316  12.050  1.00  0.00     0.107 A 
HETATM   15  N   UNL     1     -39.562 -50.135  10.995  1.00  0.00    -0.310 N 
HETATM   16  N   UNL     1     -40.744 -50.838  10.925  1.00  0.00    -0.286 N 
ATOM     17  HN  UNL     1     -39.305 -49.484  10.253  1.00  0.00     0.186 HD
ATOM     18  HN  UNL     1     -41.360 -50.702  10.122  1.00  0.00     0.188 HD
ENDBRANCH   1  11
TORSDOF 3
ENDMDL
MODEL 3
REMARK VINA RESULT:      -5.3      4.494      6.462
REMARK  3 active torsions:
REMARK  status: ('A' for Active; 'I' for Inactive)
REMARK    1  A    between atoms: C_1  and  N_2 
REMARK    2  A    between atoms: C_1  and  C_11 
REMARK    3  A    between atoms: N_2  and  C_3 
ROOT
HETATM    1  N   UNL     1     -42.677 -52.674  11.692  1.00  0.00    -0.373 N 
HETATM    2  H   UNL     1     -42.732 -52.980  10.722  1.00  0.00     0.161 HD
ENDROOT
BRANCH   1   3
HETATM    3  C   UNL     1     -41.330 -52.447  12.203  1.00  0.00     0.155 C 
BRANCH   3   4
HETATM    4  C   UNL     1     -41.183 -51.022  12.781  1.00  0.00     0.167 C 
HETATM    5  C   UNL     1     -41.337 -49.950  11.681  1.00  0.00     0.303 C 
HETATM    6  N   UNL     1     -40.213 -49.963  10.733  1.00  0.00     0.087 N 
HETATM    7  C   UNL     1     -38.961 -49.784  11.490  1.00  0.00     0.295 C 
HETATM    8  H   UNL     1     -40.316 -49.190  10.075  1.00  0.00     0.316 HD
HETATM    9  C   UNL     1     -38.806 -50.811  12.624  1.00  0.00     0.198 C 
HETATM   10  O   UNL     1     -39.942 -50.834  13.496  1.00  0.00    -0.381 OA
ENDBRANCH   3   4
ENDBRANCH   1   3
BRANCH   1  11
HETATM   11  C   UNL     1     -43.675 -53.244  12.455  1.00  0.00     0.115 A 
HETATM   12  C   UNL     1     -43.435 -54.202  13.430  1.00  0.00     0.051 A 
HETATM   13  C   UNL     1     -44.492 -54.703  14.186  1.00  0.00     0.022 A 
HETATM   14  C   UNL     1     -45.752 -54.206  13.952  1.00  0.00     0.107 A 
HETATM   15  N   UNL     1     -45.983 -53.268  13.017  1.00  0.00    -0.310 N 
HETATM   16  N   UNL     1     -44.932 -52.788  12.269  1.00  0.00    -0.286 N 
ATOM     17  HN  UNL     1     -46.928 -52.915  12.864  1.00  0.00     0.186 HD
ATOM     18  HN  UNL     1     -45.106 -52.075  11.561  1.00  0.00     0.188 HD
ENDBRANCH   1  11
TORSDOF 3
ENDMDL
MODEL 4
REMARK VINA RESULT:      -5.3      2.657      5.695
REMARK  3 active torsions:
REMARK  status: ('A' for Active; 'I' for Inactive)
REMARK    1  A    between atoms: C_1  and  N_2 
REMARK    2  A    between atoms: C_1  and  C_11 
REMARK    3  A    between atoms: N_2  and  C_3 
ROOT
HETATM    1  N   UNL     1     -44.167 -46.572   9.654  1.00  0.00    -0.373 N 
HETATM    2  H   UNL     1     -44.561 -45.633   9.618  1.00  0.00     0.161 HD
ENDROOT
BRANCH   1   3
HETATM    3  C   UNL     1     -42.710 -46.641   9.654  1.00  0.00     0.155 C 
BRANCH   3   4
HETATM    4  C   UNL     1     -42.108 -45.738  10.754  1.00  0.00     0.167 C 
HETATM    5  C   UNL     1     -40.626 -45.415  10.468  1.00  0.00     0.303 C 
HETATM    6  N   UNL     1     -39.764 -46.599  10.604  1.00  0.00     0.087 N 
HETATM    7  C   UNL     1     -39.944 -47.156  11.956  1.00  0.00     0.295 C 
HETATM    8  H   UNL     1     -38.789 -46.324  10.486  1.00  0.00     0.316 HD
HETATM    9  C   UNL     1     -41.419 -47.442  12.284  1.00  0.00     0.198 C 
HETATM   10  O   UNL     1     -42.254 -46.296  12.078  1.00  0.00    -0.381 OA
ENDBRANCH   3   4
ENDBRANCH   1   3
BRANCH   1  11
HETATM   11  C   UNL     1     -44.953 -47.472   8.964  1.00  0.00     0.115 A 
HETATM   12  C   UNL     1     -46.175 -47.932   9.433  1.00  0.00     0.051 A 
HETATM   13  C   UNL     1     -46.929 -48.812   8.660  1.00  0.00     0.022 A 
HETATM   14  C   UNL     1     -46.439 -49.180   7.429  1.00  0.00     0.107 A 
HETATM   15  N   UNL     1     -45.262 -48.723   6.968  1.00  0.00    -0.310 N 
HETATM   16  N   UNL     1     -44.521 -47.863   7.746  1.00  0.00    -0.286 N 
ATOM     17  HN  UNL     1     -44.921 -49.011   6.051  1.00  0.00     0.186 HD
ATOM     18  HN  UNL     1     -43.628 -47.514   7.395  1.00  0.00     0.188 HD
ENDBRANCH   1  11
TORSDOF 3
ENDMDL
MODEL 5
REMARK VINA RESULT:      -5.1      3.233      4.068
REMARK  3 active torsions:
REMARK  status: ('A' for Active; 'I' for Inactive)
REMARK    1  A    between atoms: C_1  and  N_2 
REMARK    2  A    between atoms: C_1  and  C_11 
REMARK    3  A    between atoms: N_2  and  C_3 
ROOT
HETATM    1  N   UNL     1     -40.750 -50.857  11.146  1.00  0.00    -0.373 N 
HETATM    2  H   UNL     1     -40.686 -51.137  10.169  1.00  0.00     0.161 HD
ENDROOT
BRANCH   1   3
HETATM    3  C   UNL     1     -40.154 -49.565  11.467  1.00  0.00     0.155 C 
BRANCH   3   4
HETATM    4  C   UNL     1     -41.237 -48.523  11.826  1.00  0.00     0.167 C 
HETATM    5  C   UNL     1     -41.461 -47.525  10.670  1.00  0.00     0.303 C 
HETATM    6  N   UNL     1     -40.304 -46.638  10.470  1.00  0.00     0.087 N 
HETATM    7  C   UNL     1     -40.024 -45.943  11.739  1.00  0.00     0.295 C 
HETATM    8  H   UNL     1     -40.527 -45.947   9.755  1.00  0.00     0.316 HD
HETATM    9  C   UNL     1     -39.844 -46.914  12.917  1.00  0.00     0.198 C 
HETATM   10  O   UNL     1     -40.949 -47.816  13.052  1.00  0.00    -0.381 OA
ENDBRANCH   3   4
ENDBRANCH   1   3
BRANCH   1  11
HETATM   11  C   UNL     1     -40.659 -51.947  11.987  1.00  0.00     0.115 A 
HETATM   12  C   UNL     1     -40.409 -51.840  13.348  1.00  0.00     0.051 A 
HETATM   13  C   UNL     1     -40.370 -52.986  14.139  1.00  0.00     0.022 A 
HETATM   14  C   UNL     1     -40.609 -54.199  13.539  1.00  0.00     0.107 A 
HETATM   15  N   UNL     1     -40.865 -54.301  12.223  1.00  0.00    -0.310 N 
HETATM   16  N   UNL     1     -40.890 -53.163  11.450  1.00  0.00    -0.286 N 
ATOM     17  HN  UNL     1     -41.039 -55.214  11.802  1.00  0.00     0.186 HD
ATOM     18  HN  UNL     1     -41.086 -53.240  10.452  1.00  0.00     0.188 HD
ENDBRANCH   1  11
TORSDOF 3
ENDMDL
MODEL 6
REMARK VINA RESULT:      -5.0      3.690      5.989
REMARK  3 active torsions:
REMARK  status: ('A' for Active; 'I' for Inactive)
REMARK    1  A    between atoms: C_1  and  N_2 
REMARK    2  A    between atoms: C_1  and  C_11 
REMARK    3  A    between atoms: N_2  and  C_3 
ROOT
HETATM    1  N   UNL     1     -40.668 -51.009  11.153  1.00  0.00    -0.373 N 
HETATM    2  H   UNL     1     -40.625 -51.328  10.186  1.00  0.00     0.161 HD
ENDROOT
BRANCH   1   3
HETATM    3  C   UNL     1     -41.556 -51.769  12.025  1.00  0.00     0.155 C 
BRANCH   3   4
HETATM    4  C   UNL     1     -40.926 -53.122  12.424  1.00  0.00     0.167 C 
HETATM    5  C   UNL     1     -41.882 -53.947  13.311  1.00  0.00     0.303 C 
HETATM    6  N   UNL     1     -42.064 -53.345  14.641  1.00  0.00     0.087 N 
HETATM    7  C   UNL     1     -40.740 -53.190  15.269  1.00  0.00     0.295 C 
HETATM    8  H   UNL     1     -42.636 -53.962  15.217  1.00  0.00     0.316 HD
HETATM    9  C   UNL     1     -39.754 -52.412  14.383  1.00  0.00     0.198 C 
HETATM   10  O   UNL     1     -39.643 -52.973  13.070  1.00  0.00    -0.381 OA
ENDBRANCH   3   4
ENDBRANCH   1   3
BRANCH   1  11
HETATM   11  C   UNL     1     -40.541 -49.638  11.234  1.00  0.00     0.115 A 
HETATM   12  C   UNL     1     -39.692 -49.003  12.129  1.00  0.00     0.051 A 
HETATM   13  C   UNL     1     -39.590 -47.614  12.124  1.00  0.00     0.022 A 
HETATM   14  C   UNL     1     -40.328 -46.911  11.202  1.00  0.00     0.107 A 
HETATM   15  N   UNL     1     -41.140 -47.526  10.325  1.00  0.00    -0.310 N 
HETATM   16  N   UNL     1     -41.240 -48.899  10.347  1.00  0.00    -0.286 N 
ATOM     17  HN  UNL     1     -41.677 -46.981   9.650  1.00  0.00     0.186 HD
ATOM     18  HN  UNL     1     -41.854 -49.366   9.680  1.00  0.00     0.188 HD
ENDBRANCH   1  11
TORSDOF 3
ENDMDL
MODEL 7
REMARK VINA RESULT:      -4.9      5.645      7.880
REMARK  3 active torsions:
REMARK  status: ('A' for Active; 'I' for Inactive)
REMARK    1  A    between atoms: C_1  and  N_2 
REMARK    2  A    between atoms: C_1  and  C_11 
REMARK    3  A    between atoms: N_2  and  C_3 
ROOT
HETATM    1  N   UNL     1     -43.815 -53.045  12.060  1.00  0.00    -0.373 N 
HETATM    2  H   UNL     1     -43.822 -53.956  11.606  1.00  0.00     0.161 HD
ENDROOT
BRANCH   1   3
HETATM    3  C   UNL     1     -42.494 -52.507  12.364  1.00  0.00     0.155 C 
BRANCH   3   4
HETATM    4  C   UNL     1     -41.510 -53.630  12.759  1.00  0.00     0.167 C 
HETATM    5  C   UNL     1     -41.803 -54.162  14.179  1.00  0.00     0.303 C 
HETATM    6  N   UNL     1     -41.494 -53.169  15.218  1.00  0.00     0.087 N 
HETATM    7  C   UNL     1     -40.084 -52.764  15.074  1.00  0.00     0.295 C 
HETATM    8  H   UNL     1     -41.627 -53.589  16.138  1.00  0.00     0.316 HD
HETATM    9  C   UNL     1     -39.754 -52.275  13.654  1.00  0.00     0.198 C 
HETATM   10  O   UNL     1     -40.127 -53.227  12.651  1.00  0.00    -0.381 OA
ENDBRANCH   3   4
ENDBRANCH   1   3
BRANCH   1  11
HETATM   11  C   UNL     1     -44.890 -52.901  12.913  1.00  0.00     0.115 A 
HETATM   12  C   UNL     1     -45.379 -51.668  13.321  1.00  0.00     0.051 A 
HETATM   13  C   UNL     1     -46.494 -51.604  14.154  1.00  0.00     0.022 A 
HETATM   14  C   UNL     1     -47.095 -52.783  14.528  1.00  0.00     0.107 A 
HETATM   15  N   UNL     1     -46.630 -53.976  14.121  1.00  0.00    -0.310 N 
HETATM   16  N   UNL     1     -45.521 -54.027  13.307  1.00  0.00    -0.286 N 
ATOM     17  HN  UNL     1     -47.094 -54.836  14.413  1.00  0.00     0.186 HD
ATOM     18  HN  UNL     1     -45.169 -54.933  12.997  1.00  0.00     0.188 HD
ENDBRANCH   1  11
TORSDOF 3
ENDMDL
MODEL 8
REMARK VINA RESULT:      -4.9      2.809      3.185
REMARK  3 active torsions:
REMARK  status: ('A' for Active; 'I' for Inactive)
REMARK    1  A    between atoms: C_1  and  N_2 
REMARK    2  A    between atoms: C_1  and  C_11 
REMARK    3  A    between atoms: N_2  and  C_3 
ROOT
HETATM    1  N   UNL     1     -40.703 -50.544  11.133  1.00  0.00    -0.373 N 
HETATM    2  H   UNL     1     -39.819 -50.286  10.698  1.00  0.00     0.161 HD
ENDROOT
BRANCH   1   3
HETATM    3  C   UNL     1     -41.547 -49.428  11.546  1.00  0.00     0.155 C 
BRANCH   3   4
HETATM    4  C   UNL     1     -41.446 -48.252  10.550  1.00  0.00     0.167 C 
HETATM    5  C   UNL     1     -40.562 -47.116  11.108  1.00  0.00     0.303 C 
HETATM    6  N   UNL     1     -41.191 -46.435  12.251  1.00  0.00     0.087 N 
HETATM    7  C   UNL     1     -42.511 -45.935  11.828  1.00  0.00     0.295 C 
HETATM    8  H   UNL     1     -40.611 -45.645  12.535  1.00  0.00     0.316 HD
HETATM    9  C   UNL     1     -43.394 -47.039  11.223  1.00  0.00     0.198 C 
HETATM   10  O   UNL     1     -42.737 -47.737  10.158  1.00  0.00    -0.381 OA
ENDBRANCH   3   4
ENDBRANCH   1   3
BRANCH   1  11
HETATM   11  C   UNL     1     -40.576 -51.697  11.881  1.00  0.00     0.115 A 
HETATM   12  C   UNL     1     -40.049 -51.718  13.165  1.00  0.00     0.051 A 
HETATM   13  C   UNL     1     -39.989 -52.917  13.871  1.00  0.00     0.022 A 
HETATM   14  C   UNL     1     -40.486 -54.050  13.272  1.00  0.00     0.107 A 
HETATM   15  N   UNL     1     -41.009 -54.027  12.035  1.00  0.00    -0.310 N 
HETATM   16  N   UNL     1     -41.053 -52.838  11.342  1.00  0.00    -0.286 N 
ATOM     17  HN  UNL     1     -41.371 -54.882  11.613  1.00  0.00     0.186 HD
ATOM     18  HN  UNL     1     -41.452 -52.820  10.403  1.00  0.00     0.188 HD
ENDBRANCH   1  11
TORSDOF 3
ENDMDL
MODEL 9
REMARK VINA RESULT:      -4.9      3.984      5.889
REMARK  3 active torsions:
REMARK  status: ('A' for Active; 'I' for Inactive)
REMARK    1  A    between atoms: C_1  and  N_2 
REMARK    2  A    between atoms: C_1  and  C_11 
REMARK    3  A    between atoms: N_2  and  C_3 
ROOT
HETATM    1  N   UNL     1     -40.771 -51.519  11.313  1.00  0.00    -0.373 N 
HETATM    2  H   UNL     1     -39.973 -51.920  10.822  1.00  0.00     0.161 HD
ENDROOT
BRANCH   1   3
HETATM    3  C   UNL     1     -40.579 -50.166  11.822  1.00  0.00     0.155 C 
BRANCH   3   4
HETATM    4  C   UNL     1     -39.138 -49.671  11.566  1.00  0.00     0.167 C 
HETATM    5  C   UNL     1     -38.096 -50.632  12.178  1.00  0.00     0.303 C 
HETATM    6  N   UNL     1     -38.120 -50.612  13.648  1.00  0.00     0.087 N 
HETATM    7  C   UNL     1     -37.908 -49.225  14.101  1.00  0.00     0.295 C 
HETATM    8  H   UNL     1     -37.365 -51.197  14.007  1.00  0.00     0.316 HD
HETATM    9  C   UNL     1     -38.903 -48.240  13.467  1.00  0.00     0.198 C 
HETATM   10  O   UNL     1     -38.917 -48.324  12.037  1.00  0.00    -0.381 OA
ENDBRANCH   3   4
ENDBRANCH   1   3
BRANCH   1  11
HETATM   11  C   UNL     1     -41.465 -52.485  12.013  1.00  0.00     0.115 A 
HETATM   12  C   UNL     1     -40.916 -53.205  13.065  1.00  0.00     0.051 A 
HETATM   13  C   UNL     1     -41.694 -54.138  13.748  1.00  0.00     0.022 A 
HETATM   14  C   UNL     1     -43.005 -54.297  13.365  1.00  0.00     0.107 A 
HETATM   15  N   UNL     1     -43.540 -53.589  12.356  1.00  0.00    -0.310 N 
HETATM   16  N   UNL     1     -42.759 -52.678  11.681  1.00  0.00    -0.286 N 
ATOM     17  HN  UNL     1     -44.515 -53.726  12.091  1.00  0.00     0.186 HD
ATOM     18  HN  UNL     1     -43.165 -52.140  10.916  1.00  0.00     0.188 HD
ENDBRANCH   1  11
TORSDOF 3
ENDMDL
