MODEL 1
REMARK VINA RESULT:      -5.8      0.000      0.000
REMARK  5 active torsions:
REMARK  status: ('A' for Active; 'I' for Inactive)
REMARK    1  A    between atoms: C_2  and  N_3 
REMARK    2  A    between atoms: C_2  and  C_14 
REMARK    3  A    between atoms: N_3  and  C_4 
REMARK    4  A    between atoms: C_4  and  C_5 
REMARK       I    between atoms: N_8  and  C_11 
REMARK    5  A    between atoms: C_14  and  N_16 
ROOT
HETATM    1  N   UNL     1     -42.629 -52.705  11.736  1.00  0.00     0.090 N 
HETATM    2  H   UNL     1     -42.703 -53.128  10.807  1.00  0.00     0.316 HD
ENDROOT
BRANCH   1   3
HETATM    3  C   UNL     1     -41.275 -52.109  11.889  1.00  0.00     0.240 C 
HETATM    4  C   UNL     1     -40.516 -52.810  13.030  1.00  0.00     0.045 C 
BRANCH   3   5
HETATM    5  C   UNL     1     -41.251 -50.553  12.026  1.00  0.00     0.136 C 
HETATM    6  C   UNL     1     -42.043 -50.028  13.230  1.00  0.00     0.036 C 
BRANCH   5   7
HETATM    7  N   UNL     1     -39.886 -50.025  12.079  1.00  0.00    -0.297 N 
HETATM    8  C   UNL     1     -39.280 -49.454  13.166  1.00  0.00     0.112 A 
HETATM    9  C   UNL     1     -37.985 -49.194  12.790  1.00  0.00     0.037 A 
HETATM   10  C   UNL     1     -37.896 -49.661  11.467  1.00  0.00     0.108 A 
HETATM   11  N   UNL     1     -39.046 -50.185  11.034  1.00  0.00    -0.310 N 
ATOM     12  HN  UNL     1     -39.243 -50.608  10.128  1.00  0.00     0.186 HD
ENDBRANCH   5   7
ENDBRANCH   3   5
ENDBRANCH   1   3
BRANCH   1  13
HETATM   13  C   UNL     1     -42.985 -53.681  12.758  1.00  0.00     0.274 C 
BRANCH  13  14
HETATM   14  C   UNL     1     -44.501 -53.958  12.831  1.00  0.00     0.017 C 
HETATM   15  C   UNL     1     -45.386 -52.695  12.758  1.00  0.00     0.026 C 
HETATM   16  C   UNL     1     -45.444 -51.882  14.058  1.00  0.00     0.126 C 
HETATM   17  N   UNL     1     -45.624 -52.724  15.243  1.00  0.00    -0.352 N 
HETATM   18  C   UNL     1     -44.689 -53.840  15.349  1.00  0.00     0.126 C 
HETATM   19  C   UNL     1     -46.443 -52.480  16.337  1.00  0.00     0.215 C 
HETATM   20  C   UNL     1     -44.822 -54.732  14.121  1.00  0.00     0.026 C 
HETATM   21  O   UNL     1     -46.398 -53.174  17.358  1.00  0.00    -0.274 OA
HETATM   22  C   UNL     1     -47.462 -51.371  16.291  1.00  0.00     0.117 C 
ENDBRANCH  13  14
ENDBRANCH   1  13
TORSDOF 5
ENDMDL
MODEL 2
REMARK VINA RESULT:      -5.8      3.098      4.266
REMARK  5 active torsions:
REMARK  status: ('A' for Active; 'I' for Inactive)
REMARK    1  A    between atoms: C_2  and  N_3 
REMARK    2  A    between atoms: C_2  and  C_14 
REMARK    3  A    between atoms: N_3  and  C_4 
REMARK    4  A    between atoms: C_4  and  C_5 
REMARK       I    between atoms: N_8  and  C_11 
REMARK    5  A    between atoms: C_14  and  N_16 
ROOT
HETATM    1  N   UNL     1     -42.346 -51.564  12.152  1.00  0.00     0.090 N 
HETATM    2  H   UNL     1     -41.675 -52.081  11.579  1.00  0.00     0.316 HD
ENDROOT
BRANCH   1   3
HETATM    3  C   UNL     1     -41.830 -50.186  12.373  1.00  0.00     0.240 C 
HETATM    4  C   UNL     1     -43.003 -49.212  12.583  1.00  0.00     0.045 C 
BRANCH   3   5
HETATM    5  C   UNL     1     -40.821 -49.678  11.295  1.00  0.00     0.136 C 
HETATM    6  C   UNL     1     -40.941 -48.178  10.997  1.00  0.00     0.036 C 
BRANCH   5   7
HETATM    7  N   UNL     1     -39.434 -49.990  11.647  1.00  0.00    -0.297 N 
HETATM    8  C   UNL     1     -39.004 -50.571  12.810  1.00  0.00     0.112 A 
HETATM    9  C   UNL     1     -37.650 -50.757  12.667  1.00  0.00     0.037 A 
HETATM   10  C   UNL     1     -37.358 -50.280  11.378  1.00  0.00     0.108 A 
HETATM   11  N   UNL     1     -38.444 -49.828  10.744  1.00  0.00    -0.310 N 
ATOM     12  HN  UNL     1     -38.509 -49.450   9.799  1.00  0.00     0.186 HD
ENDBRANCH   5   7
ENDBRANCH   3   5
ENDBRANCH   1   3
BRANCH   1  13
HETATM   13  C   UNL     1     -42.639 -52.309  13.371  1.00  0.00     0.274 C 
BRANCH  13  14
HETATM   14  C   UNL     1     -42.459 -53.833  13.208  1.00  0.00     0.017 C 
HETATM   15  C   UNL     1     -42.939 -54.667  14.415  1.00  0.00     0.026 C 
HETATM   16  C   UNL     1     -41.984 -54.655  15.616  1.00  0.00     0.126 C 
HETATM   17  N   UNL     1     -40.584 -54.837  15.226  1.00  0.00    -0.352 N 
HETATM   18  C   UNL     1     -40.124 -53.946  14.165  1.00  0.00     0.126 C 
HETATM   19  C   UNL     1     -39.625 -55.615  15.859  1.00  0.00     0.215 C 
HETATM   20  C   UNL     1     -40.982 -54.150  12.923  1.00  0.00     0.026 C 
HETATM   21  O   UNL     1     -38.430 -55.570  15.543  1.00  0.00    -0.274 OA
HETATM   22  C   UNL     1     -40.025 -56.588  16.937  1.00  0.00     0.117 C 
ENDBRANCH  13  14
ENDBRANCH   1  13
TORSDOF 5
ENDMDL
MODEL 3
REMARK VINA RESULT:      -5.7      3.920      7.410
REMARK  5 active torsions:
REMARK  status: ('A' for Active; 'I' for Inactive)
REMARK    1  A    between atoms: C_2  and  N_3 
REMARK    2  A    between atoms: C_2  and  C_14 
REMARK    3  A    between atoms: N_3  and  C_4 
REMARK    4  A    between atoms: C_4  and  C_5 
REMARK       I    between atoms: N_8  and  C_11 
REMARK    5  A    between atoms: C_14  and  N_16 
ROOT
HETATM    1  N   UNL     1     -42.491 -50.655  11.985  1.00  0.00     0.090 N 
HETATM    2  H   UNL     1     -43.487 -50.442  12.081  1.00  0.00     0.316 HD
ENDROOT
BRANCH   1   3
HETATM    3  C   UNL     1     -42.196 -51.921  12.710  1.00  0.00     0.240 C 
HETATM    4  C   UNL     1     -40.829 -52.474  12.268  1.00  0.00     0.045 C 
BRANCH   3   5
HETATM    5  C   UNL     1     -43.324 -52.999  12.641  1.00  0.00     0.136 C 
HETATM    6  C   UNL     1     -43.061 -54.223  13.528  1.00  0.00     0.036 C 
BRANCH   5   7
HETATM    7  N   UNL     1     -44.640 -52.442  12.964  1.00  0.00    -0.297 N 
HETATM    8  C   UNL     1     -45.015 -51.891  14.159  1.00  0.00     0.112 A 
HETATM    9  C   UNL     1     -46.293 -51.421  13.979  1.00  0.00     0.037 A 
HETATM   10  C   UNL     1     -46.596 -51.713  12.638  1.00  0.00     0.108 A 
HETATM   11  N   UNL     1     -45.585 -52.319  12.008  1.00  0.00    -0.310 N 
ATOM     12  HN  UNL     1     -45.540 -52.618  11.035  1.00  0.00     0.186 HD
ENDBRANCH   5   7
ENDBRANCH   3   5
ENDBRANCH   1   3
BRANCH   1  13
HETATM   13  C   UNL     1     -41.694 -49.510  12.407  1.00  0.00     0.274 C 
BRANCH  13  14
HETATM   14  C   UNL     1     -40.955 -48.823  11.240  1.00  0.00     0.017 C 
HETATM   15  C   UNL     1     -39.831 -47.858  11.673  1.00  0.00     0.026 C 
HETATM   16  C   UNL     1     -40.324 -46.502  12.196  1.00  0.00     0.126 C 
HETATM   17  N   UNL     1     -41.379 -45.924  11.361  1.00  0.00    -0.352 N 
HETATM   18  C   UNL     1     -42.491 -46.824  11.071  1.00  0.00     0.126 C 
HETATM   19  C   UNL     1     -41.521 -44.598  10.976  1.00  0.00     0.215 C 
HETATM   20  C   UNL     1     -41.967 -48.067  10.363  1.00  0.00     0.026 C 
HETATM   21  O   UNL     1     -42.538 -44.186  10.406  1.00  0.00    -0.274 OA
HETATM   22  C   UNL     1     -40.402 -43.616  11.204  1.00  0.00     0.117 C 
ENDBRANCH  13  14
ENDBRANCH   1  13
TORSDOF 5
ENDMDL
MODEL 4
REMARK VINA RESULT:      -5.6      1.314      2.033
REMARK  5 active torsions:
REMARK  status: ('A' for Active; 'I' for Inactive)
REMARK    1  A    between atoms: C_2  and  N_3 
REMARK    2  A    between atoms: C_2  and  C_14 
REMARK    3  A    between atoms: N_3  and  C_4 
REMARK    4  A    between atoms: C_4  and  C_5 
REMARK       I    between atoms: N_8  and  C_11 
REMARK    5  A    between atoms: C_14  and  N_16 
ROOT
HETATM    1  N   UNL     1     -42.912 -52.641  11.817  1.00  0.00     0.090 N 
HETATM    2  H   UNL     1     -42.996 -52.955  10.847  1.00  0.00     0.316 HD
ENDROOT
BRANCH   1   3
HETATM    3  C   UNL     1     -41.551 -52.075  12.025  1.00  0.00     0.240 C 
HETATM    4  C   UNL     1     -40.637 -53.127  12.679  1.00  0.00     0.045 C 
BRANCH   3   5
HETATM    5  C   UNL     1     -41.514 -50.706  12.775  1.00  0.00     0.136 C 
HETATM    6  C   UNL     1     -40.128 -50.340  13.322  1.00  0.00     0.036 C 
BRANCH   5   7
HETATM    7  N   UNL     1     -42.008 -49.607  11.942  1.00  0.00    -0.297 N 
HETATM    8  C   UNL     1     -43.050 -48.770  12.240  1.00  0.00     0.112 A 
HETATM    9  C   UNL     1     -43.097 -47.842  11.229  1.00  0.00     0.037 A 
HETATM   10  C   UNL     1     -42.032 -48.186  10.379  1.00  0.00     0.108 A 
HETATM   11  N   UNL     1     -41.353 -49.249  10.818  1.00  0.00    -0.310 N 
ATOM     12  HN  UNL     1     -40.532 -49.687  10.401  1.00  0.00     0.186 HD
ENDBRANCH   5   7
ENDBRANCH   3   5
ENDBRANCH   1   3
BRANCH   1  13
HETATM   13  C   UNL     1     -43.267 -53.725  12.725  1.00  0.00     0.274 C 
BRANCH  13  14
HETATM   14  C   UNL     1     -44.790 -53.935  12.853  1.00  0.00     0.017 C 
HETATM   15  C   UNL     1     -45.619 -52.633  12.833  1.00  0.00     0.026 C 
HETATM   16  C   UNL     1     -45.590 -51.840  14.146  1.00  0.00     0.126 C 
HETATM   17  N   UNL     1     -45.762 -52.692  15.325  1.00  0.00    -0.352 N 
HETATM   18  C   UNL     1     -44.876 -53.850  15.377  1.00  0.00     0.126 C 
HETATM   19  C   UNL     1     -46.528 -52.430  16.452  1.00  0.00     0.215 C 
HETATM   20  C   UNL     1     -45.096 -54.715  14.142  1.00  0.00     0.026 C 
HETATM   21  O   UNL     1     -46.475 -53.142  17.461  1.00  0.00    -0.274 OA
HETATM   22  C   UNL     1     -47.496 -51.276  16.463  1.00  0.00     0.117 C 
ENDBRANCH  13  14
ENDBRANCH   1  13
TORSDOF 5
ENDMDL
MODEL 5
REMARK VINA RESULT:      -5.6      4.503      6.681
REMARK  5 active torsions:
REMARK  status: ('A' for Active; 'I' for Inactive)
REMARK    1  A    between atoms: C_2  and  N_3 
REMARK    2  A    between atoms: C_2  and  C_14 
REMARK    3  A    between atoms: N_3  and  C_4 
REMARK    4  A    between atoms: C_4  and  C_5 
REMARK       I    between atoms: N_8  and  C_11 
REMARK    5  A    between atoms: C_14  and  N_16 
ROOT
HETATM    1  N   UNL     1     -40.166 -48.322  14.277  1.00  0.00     0.090 N 
HETATM    2  H   UNL     1     -39.939 -47.942  15.199  1.00  0.00     0.316 HD
ENDROOT
BRANCH   1   3
HETATM    3  C   UNL     1     -39.004 -49.106  13.777  1.00  0.00     0.240 C 
HETATM    4  C   UNL     1     -37.715 -48.275  13.904  1.00  0.00     0.045 C 
BRANCH   3   5
HETATM    5  C   UNL     1     -39.183 -49.712  12.349  1.00  0.00     0.136 C 
HETATM    6  C   UNL     1     -37.871 -49.838  11.564  1.00  0.00     0.036 C 
BRANCH   5   7
HETATM    7  N   UNL     1     -39.852 -51.015  12.382  1.00  0.00    -0.297 N 
HETATM    8  C   UNL     1     -39.793 -51.930  13.398  1.00  0.00     0.112 A 
HETATM    9  C   UNL     1     -40.639 -52.952  13.042  1.00  0.00     0.037 A 
HETATM   10  C   UNL     1     -41.181 -52.554  11.808  1.00  0.00     0.108 A 
HETATM   11  N   UNL     1     -40.719 -51.365  11.409  1.00  0.00    -0.310 N 
ATOM     12  HN  UNL     1     -40.965 -50.845  10.567  1.00  0.00     0.186 HD
ENDBRANCH   5   7
ENDBRANCH   3   5
ENDBRANCH   1   3
BRANCH   1  13
HETATM   13  C   UNL     1     -40.606 -47.250  13.391  1.00  0.00     0.274 C 
BRANCH  13  14
HETATM   14  C   UNL     1     -42.126 -47.265  13.129  1.00  0.00     0.017 C 
HETATM   15  C   UNL     1     -42.609 -48.426  12.233  1.00  0.00     0.026 C 
HETATM   16  C   UNL     1     -42.325 -48.235  10.737  1.00  0.00     0.126 C 
HETATM   17  N   UNL     1     -42.647 -46.886  10.268  1.00  0.00    -0.352 N 
HETATM   18  C   UNL     1     -42.071 -45.807  11.065  1.00  0.00     0.126 C 
HETATM   19  C   UNL     1     -43.271 -46.530   9.080  1.00  0.00     0.215 C 
HETATM   20  C   UNL     1     -42.554 -45.926  12.505  1.00  0.00     0.026 C 
HETATM   21  O   UNL     1     -43.348 -45.354   8.706  1.00  0.00    -0.274 OA
HETATM   22  C   UNL     1     -43.925 -47.580   8.220  1.00  0.00     0.117 C 
ENDBRANCH  13  14
ENDBRANCH   1  13
TORSDOF 5
ENDMDL
MODEL 6
REMARK VINA RESULT:      -5.5      3.344      4.626
REMARK  5 active torsions:
REMARK  status: ('A' for Active; 'I' for Inactive)
REMARK    1  A    between atoms: C_2  and  N_3 
REMARK    2  A    between atoms: C_2  and  C_14 
REMARK    3  A    between atoms: N_3  and  C_4 
REMARK    4  A    between atoms: C_4  and  C_5 
REMARK       I    between atoms: N_8  and  C_11 
REMARK    5  A    between atoms: C_14  and  N_16 
ROOT
HETATM    1  N   UNL     1     -41.941 -50.121  11.670  1.00  0.00     0.090 N 
HETATM    2  H   UNL     1     -42.500 -50.587  10.951  1.00  0.00     0.316 HD
ENDROOT
BRANCH   1   3
HETATM    3  C   UNL     1     -41.022 -49.151  11.015  1.00  0.00     0.240 C 
HETATM    4  C   UNL     1     -39.589 -49.345  11.542  1.00  0.00     0.045 C 
BRANCH   3   5
HETATM    5  C   UNL     1     -41.482 -47.660  11.077  1.00  0.00     0.136 C 
HETATM    6  C   UNL     1     -40.323 -46.656  11.055  1.00  0.00     0.036 C 
BRANCH   5   7
HETATM    7  N   UNL     1     -42.428 -47.329  10.008  1.00  0.00    -0.297 N 
HETATM    8  C   UNL     1     -43.068 -46.132   9.835  1.00  0.00     0.112 A 
HETATM    9  C   UNL     1     -43.777 -46.242   8.664  1.00  0.00     0.037 A 
HETATM   10  C   UNL     1     -43.484 -47.533   8.190  1.00  0.00     0.108 A 
HETATM   11  N   UNL     1     -42.648 -48.194   8.995  1.00  0.00    -0.310 N 
ATOM     12  HN  UNL     1     -42.266 -49.131   8.872  1.00  0.00     0.186 HD
ENDBRANCH   5   7
ENDBRANCH   3   5
ENDBRANCH   1   3
BRANCH   1  13
HETATM   13  C   UNL     1     -41.282 -51.113  12.511  1.00  0.00     0.274 C 
BRANCH  13  14
HETATM   14  C   UNL     1     -41.897 -51.216  13.922  1.00  0.00     0.017 C 
HETATM   15  C   UNL     1     -41.030 -51.982  14.944  1.00  0.00     0.026 C 
HETATM   16  C   UNL     1     -41.062 -53.509  14.788  1.00  0.00     0.126 C 
HETATM   17  N   UNL     1     -42.415 -54.027  14.580  1.00  0.00    -0.352 N 
HETATM   18  C   UNL     1     -43.168 -53.363  13.520  1.00  0.00     0.126 C 
HETATM   19  C   UNL     1     -42.980 -55.165  15.140  1.00  0.00     0.215 C 
HETATM   20  C   UNL     1     -43.283 -51.877  13.833  1.00  0.00     0.026 C 
HETATM   21  O   UNL     1     -44.075 -55.603  14.770  1.00  0.00    -0.274 OA
HETATM   22  C   UNL     1     -42.284 -55.884  16.266  1.00  0.00     0.117 C 
ENDBRANCH  13  14
ENDBRANCH   1  13
TORSDOF 5
ENDMDL
MODEL 7
REMARK VINA RESULT:      -5.4      2.393      3.415
REMARK  5 active torsions:
REMARK  status: ('A' for Active; 'I' for Inactive)
REMARK    1  A    between atoms: C_2  and  N_3 
REMARK    2  A    between atoms: C_2  and  C_14 
REMARK    3  A    between atoms: N_3  and  C_4 
REMARK    4  A    between atoms: C_4  and  C_5 
REMARK       I    between atoms: N_8  and  C_11 
REMARK    5  A    between atoms: C_14  and  N_16 
ROOT
HETATM    1  N   UNL     1     -40.892 -51.189  11.309  1.00  0.00     0.090 N 
HETATM    2  H   UNL     1     -40.495 -51.729  10.536  1.00  0.00     0.316 HD
ENDROOT
BRANCH   1   3
HETATM    3  C   UNL     1     -40.162 -49.897  11.420  1.00  0.00     0.240 C 
HETATM    4  C   UNL     1     -38.829 -50.107  12.159  1.00  0.00     0.045 C 
BRANCH   3   5
HETATM    5  C   UNL     1     -40.994 -48.718  12.017  1.00  0.00     0.136 C 
HETATM    6  C   UNL     1     -40.145 -47.503  12.413  1.00  0.00     0.036 C 
BRANCH   5   7
HETATM    7  N   UNL     1     -42.064 -48.285  11.115  1.00  0.00    -0.297 N 
HETATM    8  C   UNL     1     -43.279 -47.773  11.486  1.00  0.00     0.112 A 
HETATM    9  C   UNL     1     -43.917 -47.421  10.322  1.00  0.00     0.037 A 
HETATM   10  C   UNL     1     -43.001 -47.736   9.303  1.00  0.00     0.108 A 
HETATM   11  N   UNL     1     -41.863 -48.245   9.781  1.00  0.00    -0.310 N 
ATOM     12  HN  UNL     1     -41.036 -48.536   9.260  1.00  0.00     0.186 HD
ENDBRANCH   5   7
ENDBRANCH   3   5
ENDBRANCH   1   3
BRANCH   1  13
HETATM   13  C   UNL     1     -40.901 -51.991  12.526  1.00  0.00     0.274 C 
BRANCH  13  14
HETATM   14  C   UNL     1     -41.801 -53.240  12.422  1.00  0.00     0.017 C 
HETATM   15  C   UNL     1     -43.314 -52.938  12.392  1.00  0.00     0.026 C 
HETATM   16  C   UNL     1     -43.919 -52.581  13.756  1.00  0.00     0.126 C 
HETATM   17  N   UNL     1     -43.464 -53.471  14.826  1.00  0.00    -0.352 N 
HETATM   18  C   UNL     1     -42.017 -53.639  14.908  1.00  0.00     0.126 C 
HETATM   19  C   UNL     1     -44.224 -54.014  15.853  1.00  0.00     0.215 C 
HETATM   20  C   UNL     1     -41.494 -54.194  13.589  1.00  0.00     0.026 C 
HETATM   21  O   UNL     1     -43.709 -54.622  16.799  1.00  0.00    -0.274 OA
HETATM   22  C   UNL     1     -45.727 -53.918  15.821  1.00  0.00     0.117 C 
ENDBRANCH  13  14
ENDBRANCH   1  13
TORSDOF 5
ENDMDL
MODEL 8
REMARK VINA RESULT:      -5.3      2.175      3.666
REMARK  5 active torsions:
REMARK  status: ('A' for Active; 'I' for Inactive)
REMARK    1  A    between atoms: C_2  and  N_3 
REMARK    2  A    between atoms: C_2  and  C_14 
REMARK    3  A    between atoms: N_3  and  C_4 
REMARK    4  A    between atoms: C_4  and  C_5 
REMARK       I    between atoms: N_8  and  C_11 
REMARK    5  A    between atoms: C_14  and  N_16 
ROOT
HETATM    1  N   UNL     1     -39.540 -50.772  14.079  1.00  0.00     0.090 N 
HETATM    2  H   UNL     1     -40.101 -50.133  13.511  1.00  0.00     0.316 HD
ENDROOT
BRANCH   1   3
HETATM    3  C   UNL     1     -38.098 -50.488  13.844  1.00  0.00     0.240 C 
HETATM    4  C   UNL     1     -37.420 -50.079  15.164  1.00  0.00     0.045 C 
BRANCH   3   5
HETATM    5  C   UNL     1     -37.804 -49.481  12.687  1.00  0.00     0.136 C 
HETATM    6  C   UNL     1     -37.405 -50.157  11.369  1.00  0.00     0.036 C 
BRANCH   5   7
HETATM    7  N   UNL     1     -38.930 -48.576  12.443  1.00  0.00    -0.297 N 
HETATM    8  C   UNL     1     -39.273 -47.488  13.200  1.00  0.00     0.112 A 
HETATM    9  C   UNL     1     -40.326 -46.888  12.553  1.00  0.00     0.037 A 
HETATM   10  C   UNL     1     -40.532 -47.672  11.404  1.00  0.00     0.108 A 
HETATM   11  N   UNL     1     -39.672 -48.691  11.322  1.00  0.00    -0.310 N 
ATOM     12  HN  UNL     1     -39.596 -49.392  10.585  1.00  0.00     0.186 HD
ENDBRANCH   5   7
ENDBRANCH   3   5
ENDBRANCH   1   3
BRANCH   1  13
HETATM   13  C   UNL     1     -39.940 -52.150  13.822  1.00  0.00     0.274 C 
BRANCH  13  14
HETATM   14  C   UNL     1     -40.701 -52.322  12.491  1.00  0.00     0.017 C 
HETATM   15  C   UNL     1     -41.809 -51.276  12.247  1.00  0.00     0.026 C 
HETATM   16  C   UNL     1     -43.097 -51.515  13.046  1.00  0.00     0.126 C 
HETATM   17  N   UNL     1     -43.523 -52.917  13.025  1.00  0.00    -0.352 N 
HETATM   18  C   UNL     1     -42.483 -53.876  13.382  1.00  0.00     0.126 C 
HETATM   19  C   UNL     1     -44.814 -53.406  12.883  1.00  0.00     0.215 C 
HETATM   20  C   UNL     1     -41.308 -53.734  12.423  1.00  0.00     0.026 C 
HETATM   21  O   UNL     1     -45.083 -54.601  13.043  1.00  0.00    -0.274 OA
HETATM   22  C   UNL     1     -45.936 -52.486  12.478  1.00  0.00     0.117 C 
ENDBRANCH  13  14
ENDBRANCH   1  13
TORSDOF 5
ENDMDL
MODEL 9
REMARK VINA RESULT:      -5.3      1.691      2.295
REMARK  5 active torsions:
REMARK  status: ('A' for Active; 'I' for Inactive)
REMARK    1  A    between atoms: C_2  and  N_3 
REMARK    2  A    between atoms: C_2  and  C_14 
REMARK    3  A    between atoms: N_3  and  C_4 
REMARK    4  A    between atoms: C_4  and  C_5 
REMARK       I    between atoms: N_8  and  C_11 
REMARK    5  A    between atoms: C_14  and  N_16 
ROOT
HETATM    1  N   UNL     1     -43.248 -52.786  12.087  1.00  0.00     0.090 N 
HETATM    2  H   UNL     1     -43.449 -53.632  11.549  1.00  0.00     0.316 HD
ENDROOT
BRANCH   1   3
HETATM    3  C   UNL     1     -41.787 -52.726  12.364  1.00  0.00     0.240 C 
HETATM    4  C   UNL     1     -41.295 -54.085  12.892  1.00  0.00     0.045 C 
BRANCH   3   5
HETATM    5  C   UNL     1     -41.336 -51.536  13.270  1.00  0.00     0.136 C 
HETATM    6  C   UNL     1     -40.116 -51.856  14.144  1.00  0.00     0.036 C 
BRANCH   5   7
HETATM    7  N   UNL     1     -41.070 -50.322  12.495  1.00  0.00    -0.297 N 
HETATM    8  C   UNL     1     -39.877 -49.655  12.419  1.00  0.00     0.112 A 
HETATM    9  C   UNL     1     -40.063 -48.639  11.514  1.00  0.00     0.037 A 
HETATM   10  C   UNL     1     -41.392 -48.787  11.080  1.00  0.00     0.108 A 
HETATM   11  N   UNL     1     -42.005 -49.822  11.660  1.00  0.00    -0.310 N 
ATOM     12  HN  UNL     1     -42.956 -50.155  11.508  1.00  0.00     0.186 HD
ENDBRANCH   5   7
ENDBRANCH   3   5
ENDBRANCH   1   3
BRANCH   1  13
HETATM   13  C   UNL     1     -44.097 -52.733  13.271  1.00  0.00     0.274 C 
BRANCH  13  14
HETATM   14  C   UNL     1     -44.848 -51.394  13.418  1.00  0.00     0.017 C 
HETATM   15  C   UNL     1     -44.379 -50.523  14.604  1.00  0.00     0.026 C 
HETATM   16  C   UNL     1     -44.884 -50.990  15.975  1.00  0.00     0.126 C 
HETATM   17  N   UNL     1     -46.305 -51.344  15.963  1.00  0.00    -0.352 N 
HETATM   18  C   UNL     1     -46.696 -52.269  14.904  1.00  0.00     0.126 C 
HETATM   19  C   UNL     1     -47.258 -51.048  16.928  1.00  0.00     0.215 C 
HETATM   20  C   UNL     1     -46.357 -51.662  13.549  1.00  0.00     0.026 C 
HETATM   21  O   UNL     1     -48.394 -51.535  16.899  1.00  0.00    -0.274 OA
HETATM   22  C   UNL     1     -46.945 -50.072  18.032  1.00  0.00     0.117 C 
ENDBRANCH  13  14
ENDBRANCH   1  13
TORSDOF 5
ENDMDL
