MODEL 1
REMARK VINA RESULT:      -5.8      0.000      0.000
REMARK  2 active torsions:
REMARK  status: ('A' for Active; 'I' for Inactive)
REMARK    1  A    between atoms: C_5  and  N_6 
REMARK       I    between atoms: N_6  and  C_7 
REMARK       I    between atoms: C_7  and  N_9 
REMARK    2  A    between atoms: N_9  and  C_10 
ROOT
HETATM    1  N   UNL     1     -43.100 -53.134  11.969  1.00  0.00    -0.295 N 
HETATM    2  C   UNL     1     -44.050 -53.642  12.812  1.00  0.00     0.322 C 
HETATM    3  O   UNL     1     -44.838 -54.486  12.400  1.00  0.00    -0.247 OA
HETATM    4  N   UNL     1     -44.071 -53.138  14.080  1.00  0.00    -0.338 N 
HETATM    5  H   UNL     1     -43.141 -53.540  11.045  1.00  0.00     0.172 HD
HETATM    6  H   UNL     1     -43.343 -52.462  14.290  1.00  0.00     0.164 HD
ENDROOT
BRANCH   1   7
HETATM    7  C   UNL     1     -42.219 -52.073  12.196  1.00  0.00     0.108 A 
HETATM    8  C   UNL     1     -40.889 -52.360  12.482  1.00  0.00     0.050 A 
HETATM    9  C   UNL     1     -39.993 -51.299  12.658  1.00  0.00     0.029 A 
HETATM   10  C   UNL     1     -40.448 -49.994  12.543  1.00  0.00     0.049 A 
HETATM   11 CL   UNL     1     -39.383 -48.663  12.723  1.00  0.00    -0.083 Cl
HETATM   12  C   UNL     1     -41.787 -49.796  12.271  1.00  0.00     0.113 A 
HETATM   13  N   UNL     1     -42.675 -50.803  12.106  1.00  0.00    -0.351 N 
ATOM     14  HN  UNL     1     -43.658 -50.610  11.918  1.00  0.00     0.166 HD
ENDBRANCH   1   7
BRANCH   4  15
HETATM   15  C   UNL     1     -45.132 -53.374  15.037  1.00  0.00     0.086 C 
HETATM   16  C   UNL     1     -46.471 -52.850  14.488  1.00  0.00     0.025 C 
HETATM   17  C   UNL     1     -46.721 -51.367  14.750  1.00  0.00     0.002 C 
HETATM   18  C   UNL     1     -46.548 -51.043  16.226  1.00  0.00     0.000 C 
HETATM   19  C   UNL     1     -45.129 -51.368  16.670  1.00  0.00     0.002 C 
HETATM   20  C   UNL     1     -44.775 -52.836  16.431  1.00  0.00     0.025 C 
ENDBRANCH   4  15
TORSDOF 2
ENDMDL
MODEL 2
REMARK VINA RESULT:      -5.8      2.780      3.383
REMARK  2 active torsions:
REMARK  status: ('A' for Active; 'I' for Inactive)
REMARK    1  A    between atoms: C_5  and  N_6 
REMARK       I    between atoms: N_6  and  C_7 
REMARK       I    between atoms: C_7  and  N_9 
REMARK    2  A    between atoms: N_9  and  C_10 
ROOT
HETATM    1  N   UNL     1     -43.684 -54.032  12.625  1.00  0.00    -0.295 N 
HETATM    2  C   UNL     1     -44.668 -53.105  12.833  1.00  0.00     0.322 C 
HETATM    3  O   UNL     1     -45.584 -53.001  12.024  1.00  0.00    -0.247 OA
HETATM    4  N   UNL     1     -44.541 -52.322  13.942  1.00  0.00    -0.338 N 
HETATM    5  H   UNL     1     -43.830 -54.575  11.785  1.00  0.00     0.172 HD
HETATM    6  H   UNL     1     -43.745 -52.536  14.536  1.00  0.00     0.164 HD
ENDROOT
BRANCH   1   7
HETATM    7  C   UNL     1     -42.493 -54.206  13.335  1.00  0.00     0.108 A 
HETATM    8  C   UNL     1     -42.559 -54.679  14.642  1.00  0.00     0.050 A 
HETATM    9  C   UNL     1     -41.365 -54.904  15.337  1.00  0.00     0.029 A 
HETATM   10  C   UNL     1     -40.152 -54.653  14.713  1.00  0.00     0.049 A 
HETATM   11 CL   UNL     1     -38.665 -54.938  15.515  1.00  0.00    -0.083 Cl
HETATM   12  C   UNL     1     -40.176 -54.171  13.419  1.00  0.00     0.113 A 
HETATM   13  N   UNL     1     -41.316 -53.937  12.729  1.00  0.00    -0.351 N 
ATOM     14  HN  UNL     1     -41.287 -53.569  11.778  1.00  0.00     0.166 HD
ENDBRANCH   1   7
BRANCH   4  15
HETATM   15  C   UNL     1     -45.342 -51.144  14.209  1.00  0.00     0.086 C 
HETATM   16  C   UNL     1     -44.717 -50.322  15.349  1.00  0.00     0.025 C 
HETATM   17  C   UNL     1     -45.126 -50.775  16.749  1.00  0.00     0.002 C 
HETATM   18  C   UNL     1     -46.640 -50.853  16.870  1.00  0.00     0.000 C 
HETATM   19  C   UNL     1     -47.194 -51.856  15.868  1.00  0.00     0.002 C 
HETATM   20  C   UNL     1     -46.821 -51.497  14.430  1.00  0.00     0.025 C 
ENDBRANCH   4  15
TORSDOF 2
ENDMDL
MODEL 3
REMARK VINA RESULT:      -5.8      1.605      1.879
REMARK  2 active torsions:
REMARK  status: ('A' for Active; 'I' for Inactive)
REMARK    1  A    between atoms: C_5  and  N_6 
REMARK       I    between atoms: N_6  and  C_7 
REMARK       I    between atoms: C_7  and  N_9 
REMARK    2  A    between atoms: N_9  and  C_10 
ROOT
HETATM    1  N   UNL     1     -42.005 -54.532  14.333  1.00  0.00    -0.295 N 
HETATM    2  C   UNL     1     -43.290 -54.753  14.745  1.00  0.00     0.322 C 
HETATM    3  O   UNL     1     -43.608 -55.856  15.175  1.00  0.00    -0.247 OA
HETATM    4  N   UNL     1     -44.158 -53.708  14.620  1.00  0.00    -0.338 N 
HETATM    5  H   UNL     1     -41.414 -55.344  14.443  1.00  0.00     0.172 HD
HETATM    6  H   UNL     1     -43.750 -52.845  14.271  1.00  0.00     0.164 HD
ENDROOT
BRANCH   1   7
HETATM    7  C   UNL     1     -41.485 -53.409  13.682  1.00  0.00     0.108 A 
HETATM    8  C   UNL     1     -40.726 -52.504  14.417  1.00  0.00     0.050 A 
HETATM    9  C   UNL     1     -40.160 -51.408  13.756  1.00  0.00     0.029 A 
HETATM   10  C   UNL     1     -40.366 -51.249  12.394  1.00  0.00     0.049 A 
HETATM   11 CL   UNL     1     -39.671 -49.936  11.538  1.00  0.00    -0.083 Cl
HETATM   12  C   UNL     1     -41.144 -52.185  11.743  1.00  0.00     0.113 A 
HETATM   13  N   UNL     1     -41.709 -53.248  12.359  1.00  0.00    -0.351 N 
ATOM     14  HN  UNL     1     -42.287 -53.909  11.840  1.00  0.00     0.166 HD
ENDBRANCH   1   7
BRANCH   4  15
HETATM   15  C   UNL     1     -45.594 -53.812  14.780  1.00  0.00     0.086 C 
HETATM   16  C   UNL     1     -46.311 -52.935  13.739  1.00  0.00     0.025 C 
HETATM   17  C   UNL     1     -46.487 -51.478  14.158  1.00  0.00     0.002 C 
HETATM   18  C   UNL     1     -47.143 -51.384  15.526  1.00  0.00     0.000 C 
HETATM   19  C   UNL     1     -46.277 -52.075  16.570  1.00  0.00     0.002 C 
HETATM   20  C   UNL     1     -46.028 -53.544  16.230  1.00  0.00     0.025 C 
ENDBRANCH   4  15
TORSDOF 2
ENDMDL
MODEL 4
REMARK VINA RESULT:      -5.7      2.436      3.161
REMARK  2 active torsions:
REMARK  status: ('A' for Active; 'I' for Inactive)
REMARK    1  A    between atoms: C_5  and  N_6 
REMARK       I    between atoms: N_6  and  C_7 
REMARK       I    between atoms: C_7  and  N_9 
REMARK    2  A    between atoms: N_9  and  C_10 
ROOT
HETATM    1  N   UNL     1     -40.206 -51.064  11.505  1.00  0.00    -0.295 N 
HETATM    2  C   UNL     1     -40.871 -51.986  12.265  1.00  0.00     0.322 C 
HETATM    3  O   UNL     1     -40.583 -53.174  12.167  1.00  0.00    -0.247 OA
HETATM    4  N   UNL     1     -41.852 -51.507  13.083  1.00  0.00    -0.338 N 
HETATM    5  H   UNL     1     -39.498 -51.480  10.916  1.00  0.00     0.172 HD
HETATM    6  H   UNL     1     -41.964 -50.498  13.081  1.00  0.00     0.164 HD
ENDROOT
BRANCH   1   7
HETATM    7  C   UNL     1     -40.480 -49.701  11.361  1.00  0.00     0.108 A 
HETATM    8  C   UNL     1     -39.631 -48.782  11.968  1.00  0.00     0.050 A 
HETATM    9  C   UNL     1     -39.873 -47.416  11.781  1.00  0.00     0.029 A 
HETATM   10  C   UNL     1     -40.945 -47.012  10.999  1.00  0.00     0.049 A 
HETATM   11 CL   UNL     1     -41.265 -45.351  10.720  1.00  0.00    -0.083 Cl
HETATM   12  C   UNL     1     -41.748 -47.989  10.445  1.00  0.00     0.113 A 
HETATM   13  N   UNL     1     -41.541 -49.314  10.617  1.00  0.00    -0.351 N 
ATOM     14  HN  UNL     1     -42.166 -50.002  10.197  1.00  0.00     0.166 HD
ENDBRANCH   1   7
BRANCH   4  15
HETATM   15  C   UNL     1     -42.812 -52.337  13.782  1.00  0.00     0.086 C 
HETATM   16  C   UNL     1     -44.117 -52.439  12.973  1.00  0.00     0.025 C 
HETATM   17  C   UNL     1     -45.100 -51.297  13.217  1.00  0.00     0.002 C 
HETATM   18  C   UNL     1     -45.367 -51.123  14.704  1.00  0.00     0.000 C 
HETATM   19  C   UNL     1     -44.072 -50.796  15.434  1.00  0.00     0.002 C 
HETATM   20  C   UNL     1     -43.012 -51.879  15.235  1.00  0.00     0.025 C 
ENDBRANCH   4  15
TORSDOF 2
ENDMDL
MODEL 5
REMARK VINA RESULT:      -5.2      3.378      5.569
REMARK  2 active torsions:
REMARK  status: ('A' for Active; 'I' for Inactive)
REMARK    1  A    between atoms: C_5  and  N_6 
REMARK       I    between atoms: N_6  and  C_7 
REMARK       I    between atoms: C_7  and  N_9 
REMARK    2  A    between atoms: N_9  and  C_10 
ROOT
HETATM    1  N   UNL     1     -43.219 -50.275  12.704  1.00  0.00    -0.295 N 
HETATM    2  C   UNL     1     -42.031 -50.927  12.520  1.00  0.00     0.322 C 
HETATM    3  O   UNL     1     -41.287 -50.588  11.606  1.00  0.00    -0.247 OA
HETATM    4  N   UNL     1     -41.763 -51.956  13.376  1.00  0.00    -0.338 N 
HETATM    5  H   UNL     1     -43.363 -49.530  12.036  1.00  0.00     0.172 HD
HETATM    6  H   UNL     1     -42.457 -52.109  14.101  1.00  0.00     0.164 HD
ENDROOT
BRANCH   1   7
HETATM    7  C   UNL     1     -44.259 -50.600  13.579  1.00  0.00     0.108 A 
HETATM    8  C   UNL     1     -45.396 -51.214  13.064  1.00  0.00     0.050 A 
HETATM    9  C   UNL     1     -46.417 -51.588  13.946  1.00  0.00     0.029 A 
HETATM   10  C   UNL     1     -46.273 -51.341  15.303  1.00  0.00     0.049 A 
HETATM   11 CL   UNL     1     -47.484 -51.806  16.424  1.00  0.00    -0.083 Cl
HETATM   12  C   UNL     1     -45.119 -50.715  15.729  1.00  0.00     0.113 A 
HETATM   13  N   UNL     1     -44.122 -50.335  14.897  1.00  0.00    -0.351 N 
ATOM     14  HN  UNL     1     -43.292 -49.864  15.255  1.00  0.00     0.166 HD
ENDBRANCH   1   7
BRANCH   4  15
HETATM   15  C   UNL     1     -40.682 -52.905  13.201  1.00  0.00     0.086 C 
HETATM   16  C   UNL     1     -41.136 -54.313  13.625  1.00  0.00     0.025 C 
HETATM   17  C   UNL     1     -40.991 -54.598  15.117  1.00  0.00     0.002 C 
HETATM   18  C   UNL     1     -39.580 -54.292  15.591  1.00  0.00     0.000 C 
HETATM   19  C   UNL     1     -39.257 -52.822  15.358  1.00  0.00     0.002 C 
HETATM   20  C   UNL     1     -39.390 -52.432  13.886  1.00  0.00     0.025 C 
ENDBRANCH   4  15
TORSDOF 2
ENDMDL
MODEL 6
REMARK VINA RESULT:      -5.1      3.650      5.908
REMARK  2 active torsions:
REMARK  status: ('A' for Active; 'I' for Inactive)
REMARK    1  A    between atoms: C_5  and  N_6 
REMARK       I    between atoms: N_6  and  C_7 
REMARK       I    between atoms: C_7  and  N_9 
REMARK    2  A    between atoms: N_9  and  C_10 
ROOT
HETATM    1  N   UNL     1     -40.711 -51.320  11.383  1.00  0.00    -0.295 N 
HETATM    2  C   UNL     1     -39.927 -50.324  11.896  1.00  0.00     0.322 C 
HETATM    3  O   UNL     1     -39.171 -49.704  11.156  1.00  0.00    -0.247 OA
HETATM    4  N   UNL     1     -40.025 -50.102  13.239  1.00  0.00    -0.338 N 
HETATM    5  H   UNL     1     -40.588 -51.440  10.387  1.00  0.00     0.172 HD
HETATM    6  H   UNL     1     -40.711 -50.674  13.724  1.00  0.00     0.164 HD
ENDROOT
BRANCH   1   7
HETATM    7  C   UNL     1     -41.516 -52.230  12.073  1.00  0.00     0.108 A 
HETATM    8  C   UNL     1     -40.923 -53.362  12.623  1.00  0.00     0.050 A 
HETATM    9  C   UNL     1     -41.719 -54.248  13.360  1.00  0.00     0.029 A 
HETATM   10  C   UNL     1     -43.069 -53.980  13.524  1.00  0.00     0.049 A 
HETATM   11 CL   UNL     1     -44.076 -55.023  14.439  1.00  0.00    -0.083 Cl
HETATM   12  C   UNL     1     -43.581 -52.843  12.932  1.00  0.00     0.113 A 
HETATM   13  N   UNL     1     -42.837 -51.975  12.209  1.00  0.00    -0.351 N 
ATOM     14  HN  UNL     1     -43.260 -51.153  11.779  1.00  0.00     0.166 HD
ENDBRANCH   1   7
BRANCH   4  15
HETATM   15  C   UNL     1     -39.121 -49.263  13.999  1.00  0.00     0.086 C 
HETATM   16  C   UNL     1     -37.860 -50.054  14.388  1.00  0.00     0.025 C 
HETATM   17  C   UNL     1     -38.000 -50.868  15.673  1.00  0.00     0.002 C 
HETATM   18  C   UNL     1     -38.496 -49.994  16.814  1.00  0.00     0.000 C 
HETATM   19  C   UNL     1     -39.860 -49.412  16.472  1.00  0.00     0.002 C 
HETATM   20  C   UNL     1     -39.828 -48.589  15.185  1.00  0.00     0.025 C 
ENDBRANCH   4  15
TORSDOF 2
ENDMDL
MODEL 7
REMARK VINA RESULT:      -5.1      2.991      5.803
REMARK  2 active torsions:
REMARK  status: ('A' for Active; 'I' for Inactive)
REMARK    1  A    between atoms: C_5  and  N_6 
REMARK       I    between atoms: N_6  and  C_7 
REMARK       I    between atoms: C_7  and  N_9 
REMARK    2  A    between atoms: N_9  and  C_10 
ROOT
HETATM    1  N   UNL     1     -41.494 -54.117  13.210  1.00  0.00    -0.295 N 
HETATM    2  C   UNL     1     -40.283 -53.485  13.291  1.00  0.00     0.322 C 
HETATM    3  O   UNL     1     -39.252 -54.149  13.314  1.00  0.00    -0.247 OA
HETATM    4  N   UNL     1     -40.312 -52.124  13.369  1.00  0.00    -0.338 N 
HETATM    5  H   UNL     1     -41.407 -55.123  13.162  1.00  0.00     0.172 HD
HETATM    6  H   UNL     1     -41.236 -51.705  13.314  1.00  0.00     0.164 HD
ENDROOT
BRANCH   1   7
HETATM    7  C   UNL     1     -42.770 -53.560  13.321  1.00  0.00     0.108 A 
HETATM    8  C   UNL     1     -43.261 -53.262  14.587  1.00  0.00     0.050 A 
HETATM    9  C   UNL     1     -44.518 -52.655  14.697  1.00  0.00     0.029 A 
HETATM   10  C   UNL     1     -45.240 -52.366  13.550  1.00  0.00     0.049 A 
HETATM   11 CL   UNL     1     -46.772 -51.600  13.634  1.00  0.00    -0.083 Cl
HETATM   12  C   UNL     1     -44.687 -52.708  12.332  1.00  0.00     0.113 A 
HETATM   13  N   UNL     1     -43.479 -53.302  12.199  1.00  0.00    -0.351 N 
ATOM     14  HN  UNL     1     -43.114 -53.548  11.279  1.00  0.00     0.166 HD
ENDBRANCH   1   7
BRANCH   4  15
HETATM   15  C   UNL     1     -39.165 -51.298  13.692  1.00  0.00     0.086 C 
HETATM   16  C   UNL     1     -39.587 -50.135  14.606  1.00  0.00     0.025 C 
HETATM   17  C   UNL     1     -40.114 -48.910  13.864  1.00  0.00     0.002 C 
HETATM   18  C   UNL     1     -39.131 -48.462  12.794  1.00  0.00     0.000 C 
HETATM   19  C   UNL     1     -38.921 -49.576  11.778  1.00  0.00     0.002 C 
HETATM   20  C   UNL     1     -38.405 -50.858  12.430  1.00  0.00     0.025 C 
ENDBRANCH   4  15
TORSDOF 2
ENDMDL
MODEL 8
REMARK VINA RESULT:      -5.1      3.569      5.852
REMARK  2 active torsions:
REMARK  status: ('A' for Active; 'I' for Inactive)
REMARK    1  A    between atoms: C_5  and  N_6 
REMARK       I    between atoms: N_6  and  C_7 
REMARK       I    between atoms: C_7  and  N_9 
REMARK    2  A    between atoms: N_9  and  C_10 
ROOT
HETATM    1  N   UNL     1     -42.519 -51.530  12.131  1.00  0.00    -0.295 N 
HETATM    2  C   UNL     1     -41.181 -51.459  12.401  1.00  0.00     0.322 C 
HETATM    3  O   UNL     1     -40.442 -50.832  11.649  1.00  0.00    -0.247 OA
HETATM    4  N   UNL     1     -40.746 -52.131  13.506  1.00  0.00    -0.338 N 
HETATM    5  H   UNL     1     -42.777 -51.019  11.298  1.00  0.00     0.172 HD
HETATM    6  H   UNL     1     -41.473 -52.587  14.050  1.00  0.00     0.164 HD
ENDROOT
BRANCH   1   7
HETATM    7  C   UNL     1     -43.491 -52.305  12.769  1.00  0.00     0.108 A 
HETATM    8  C   UNL     1     -44.338 -51.691  13.685  1.00  0.00     0.050 A 
HETATM    9  C   UNL     1     -45.347 -52.454  14.286  1.00  0.00     0.029 A 
HETATM   10  C   UNL     1     -45.480 -53.794  13.956  1.00  0.00     0.049 A 
HETATM   11 CL   UNL     1     -46.716 -54.760  14.646  1.00  0.00    -0.083 Cl
HETATM   12  C   UNL     1     -44.588 -54.329  13.048  1.00  0.00     0.113 A 
HETATM   13  N   UNL     1     -43.600 -53.617  12.460  1.00  0.00    -0.351 N 
ATOM     14  HN  UNL     1     -42.956 -54.057  11.803  1.00  0.00     0.166 HD
ENDBRANCH   1   7
BRANCH   4  15
HETATM   15  C   UNL     1     -39.352 -52.367  13.826  1.00  0.00     0.086 C 
HETATM   16  C   UNL     1     -39.134 -53.844  14.196  1.00  0.00     0.025 C 
HETATM   17  C   UNL     1     -39.405 -54.172  15.662  1.00  0.00     0.002 C 
HETATM   18  C   UNL     1     -38.630 -53.237  16.577  1.00  0.00     0.000 C 
HETATM   19  C   UNL     1     -39.051 -51.795  16.330  1.00  0.00     0.002 C 
HETATM   20  C   UNL     1     -38.831 -51.375  14.877  1.00  0.00     0.025 C 
ENDBRANCH   4  15
TORSDOF 2
ENDMDL
MODEL 9
REMARK VINA RESULT:      -5.1      4.494      7.076
REMARK  2 active torsions:
REMARK  status: ('A' for Active; 'I' for Inactive)
REMARK    1  A    between atoms: C_5  and  N_6 
REMARK       I    between atoms: N_6  and  C_7 
REMARK       I    between atoms: C_7  and  N_9 
REMARK    2  A    between atoms: N_9  and  C_10 
ROOT
HETATM    1  N   UNL     1     -42.611 -48.960  10.998  1.00  0.00    -0.295 N 
HETATM    2  C   UNL     1     -42.657 -47.678  10.525  1.00  0.00     0.322 C 
HETATM    3  O   UNL     1     -43.546 -47.350   9.746  1.00  0.00    -0.247 OA
HETATM    4  N   UNL     1     -41.667 -46.838  10.944  1.00  0.00    -0.338 N 
HETATM    5  H   UNL     1     -43.365 -49.534  10.647  1.00  0.00     0.172 HD
HETATM    6  H   UNL     1     -41.012 -47.238  11.609  1.00  0.00     0.164 HD
ENDROOT
BRANCH   1   7
HETATM    7  C   UNL     1     -41.610 -49.565  11.763  1.00  0.00     0.108 A 
HETATM    8  C   UNL     1     -41.741 -49.572  13.148  1.00  0.00     0.050 A 
HETATM    9  C   UNL     1     -40.767 -50.224  13.913  1.00  0.00     0.029 A 
HETATM   10  C   UNL     1     -39.701 -50.844  13.279  1.00  0.00     0.049 A 
HETATM   11 CL   UNL     1     -38.498 -51.677  14.172  1.00  0.00    -0.083 Cl
HETATM   12  C   UNL     1     -39.639 -50.778  11.901  1.00  0.00     0.113 A 
HETATM   13  N   UNL     1     -40.562 -50.148  11.139  1.00  0.00    -0.351 N 
ATOM     14  HN  UNL     1     -40.469 -50.113  10.124  1.00  0.00     0.166 HD
ENDBRANCH   1   7
BRANCH   4  15
HETATM   15  C   UNL     1     -41.412 -45.527  10.381  1.00  0.00     0.086 C 
HETATM   16  C   UNL     1     -39.908 -45.208  10.436  1.00  0.00     0.025 C 
HETATM   17  C   UNL     1     -39.442 -44.603  11.758  1.00  0.00     0.002 C 
HETATM   18  C   UNL     1     -40.291 -43.398  12.131  1.00  0.00     0.000 C 
HETATM   19  C   UNL     1     -41.747 -43.814  12.289  1.00  0.00     0.002 C 
HETATM   20  C   UNL     1     -42.305 -44.449  11.015  1.00  0.00     0.025 C 
ENDBRANCH   4  15
TORSDOF 2
ENDMDL
