MODEL 1
REMARK VINA RESULT:      -6.0      0.000      0.000
REMARK  5 active torsions:
REMARK  status: ('A' for Active; 'I' for Inactive)
REMARK    1  A    between atoms: C_2  and  O_3 
REMARK    2  A    between atoms: O_3  and  C_4 
REMARK    3  A    between atoms: C_4  and  C_5 
REMARK    4  A    between atoms: C_5  and  N_6 
REMARK    5  A    between atoms: C_7  and  N_19 
ROOT
HETATM    1  N   UNL     1     -40.966 -49.678  13.162  1.00  0.00    -0.172 N 
HETATM    2  C   UNL     1     -42.154 -50.241  12.689  1.00  0.00     0.684 A 
HETATM    3  N   UNL     1     -42.618 -49.525  11.676  1.00  0.00    -0.174 N 
ATOM      4  HN  UNL     1     -43.444 -49.725  11.111  1.00  0.00     0.186 HD
HETATM    5  C   UNL     1     -41.770 -48.467  11.542  1.00  0.00     0.160 A 
HETATM    6  N   UNL     1     -41.862 -47.426  10.635  1.00  0.00    -0.287 N 
HETATM    7  C   UNL     1     -42.904 -47.348   9.635  1.00  0.00     0.163 C 
HETATM    8  C   UNL     1     -40.918 -46.407  10.675  1.00  0.00     0.330 A 
HETATM    9  O   UNL     1     -40.937 -45.429   9.929  1.00  0.00    -0.246 OA
HETATM   10  N   UNL     1     -39.912 -46.518  11.610  1.00  0.00    -0.273 N 
HETATM   11  C   UNL     1     -39.730 -47.531  12.520  1.00  0.00     0.280 A 
HETATM   12  O   UNL     1     -38.788 -47.509  13.303  1.00  0.00    -0.265 OA
HETATM   13  C   UNL     1     -40.751 -48.522  12.452  1.00  0.00     0.164 A 
HETATM   14  H   UNL     1     -39.231 -45.776  11.620  1.00  0.00     0.173 HD
ENDROOT
BRANCH   2  15
HETATM   15  N   UNL     1     -42.649 -51.418  13.177  1.00  0.00    -0.217 N 
HETATM   16  C   UNL     1     -42.465 -52.608  12.324  1.00  0.00     0.141 C 
HETATM   17  C   UNL     1     -41.957 -53.767  13.185  1.00  0.00     0.020 C 
HETATM   18  C   UNL     1     -43.040 -54.595  13.882  1.00  0.00     0.002 C 
HETATM   19  C   UNL     1     -44.261 -53.856  14.423  1.00  0.00     0.002 C 
HETATM   20  C   UNL     1     -43.986 -52.466  14.987  1.00  0.00     0.020 C 
HETATM   21  C   UNL     1     -43.930 -51.389  13.897  1.00  0.00     0.141 C 
ENDBRANCH   2  15
BRANCH   1  22
HETATM   22  C   UNL     1     -40.085 -50.196  14.197  1.00  0.00     0.174 C 
BRANCH  22  23
HETATM   23  C   UNL     1     -39.255 -51.403  13.791  1.00  0.00     0.188 C 
BRANCH  23  24
HETATM   24  O   UNL     1     -38.812 -51.270  12.442  1.00  0.00    -0.390 OA
BRANCH  24  25
HETATM   25  C   UNL     1     -37.487 -50.743  12.395  1.00  0.00     0.163 C 
HETATM   26  C   UNL     1     -37.321 -49.982  11.098  1.00  0.00     0.033 C 
ENDBRANCH  24  25
ENDBRANCH  23  24
ENDBRANCH  22  23
ENDBRANCH   1  22
TORSDOF 5
ENDMDL
MODEL 2
REMARK VINA RESULT:      -6.0      1.562      1.991
REMARK  5 active torsions:
REMARK  status: ('A' for Active; 'I' for Inactive)
REMARK    1  A    between atoms: C_2  and  O_3 
REMARK    2  A    between atoms: O_3  and  C_4 
REMARK    3  A    between atoms: C_4  and  C_5 
REMARK    4  A    between atoms: C_5  and  N_6 
REMARK    5  A    between atoms: C_7  and  N_19 
ROOT
HETATM    1  N   UNL     1     -40.918 -48.794  11.979  1.00  0.00    -0.172 N 
HETATM    2  C   UNL     1     -42.003 -49.648  12.188  1.00  0.00     0.684 A 
HETATM    3  N   UNL     1     -43.055 -49.212  11.510  1.00  0.00    -0.174 N 
ATOM      4  HN  UNL     1     -43.969 -49.659  11.443  1.00  0.00     0.186 HD
HETATM    5  C   UNL     1     -42.667 -48.045  10.922  1.00  0.00     0.160 A 
HETATM    6  N   UNL     1     -43.436 -47.206  10.135  1.00  0.00    -0.287 N 
HETATM    7  C   UNL     1     -44.808 -47.497   9.786  1.00  0.00     0.163 C 
HETATM    8  C   UNL     1     -42.874 -46.029   9.652  1.00  0.00     0.330 A 
HETATM    9  O   UNL     1     -43.489 -45.209   8.971  1.00  0.00    -0.246 OA
HETATM   10  N   UNL     1     -41.555 -45.787   9.964  1.00  0.00    -0.273 N 
HETATM   11  C   UNL     1     -40.715 -46.582  10.708  1.00  0.00     0.280 A 
HETATM   12  O   UNL     1     -39.555 -46.249  10.914  1.00  0.00    -0.265 OA
HETATM   13  C   UNL     1     -41.362 -47.750  11.203  1.00  0.00     0.164 A 
HETATM   14  H   UNL     1     -41.161 -44.935   9.600  1.00  0.00     0.173 HD
ENDROOT
BRANCH   2  15
HETATM   15  N   UNL     1     -41.895 -50.803  12.911  1.00  0.00    -0.217 N 
HETATM   16  C   UNL     1     -42.041 -52.062  12.157  1.00  0.00     0.141 C 
HETATM   17  C   UNL     1     -40.926 -53.026  12.571  1.00  0.00     0.020 C 
HETATM   18  C   UNL     1     -41.220 -53.883  13.805  1.00  0.00     0.002 C 
HETATM   19  C   UNL     1     -41.995 -53.237  14.951  1.00  0.00     0.002 C 
HETATM   20  C   UNL     1     -41.693 -51.761  15.192  1.00  0.00     0.020 C 
HETATM   21  C   UNL     1     -42.484 -50.838  14.257  1.00  0.00     0.141 C 
ENDBRANCH   2  15
BRANCH   1  22
HETATM   22  C   UNL     1     -39.554 -48.954  12.458  1.00  0.00     0.174 C 
BRANCH  22  23
HETATM   23  C   UNL     1     -38.649 -49.785  11.563  1.00  0.00     0.188 C 
BRANCH  23  24
HETATM   24  O   UNL     1     -38.324 -51.022  12.196  1.00  0.00    -0.390 OA
BRANCH  24  25
HETATM   25  C   UNL     1     -37.499 -50.802  13.340  1.00  0.00     0.163 C 
HETATM   26  C   UNL     1     -38.195 -51.385  14.550  1.00  0.00     0.033 C 
ENDBRANCH  24  25
ENDBRANCH  23  24
ENDBRANCH  22  23
ENDBRANCH   1  22
TORSDOF 5
ENDMDL
MODEL 3
REMARK VINA RESULT:      -5.9      1.770      2.995
REMARK  5 active torsions:
REMARK  status: ('A' for Active; 'I' for Inactive)
REMARK    1  A    between atoms: C_2  and  O_3 
REMARK    2  A    between atoms: O_3  and  C_4 
REMARK    3  A    between atoms: C_4  and  C_5 
REMARK    4  A    between atoms: C_5  and  N_6 
REMARK    5  A    between atoms: C_7  and  N_19 
ROOT
HETATM    1  N   UNL     1     -41.770 -51.368  12.802  1.00  0.00    -0.172 N 
HETATM    2  C   UNL     1     -43.136 -51.155  13.002  1.00  0.00     0.684 A 
HETATM    3  N   UNL     1     -43.487 -49.981  12.499  1.00  0.00    -0.174 N 
ATOM      4  HN  UNL     1     -44.426 -49.585  12.464  1.00  0.00     0.186 HD
HETATM    5  C   UNL     1     -42.338 -49.409  12.039  1.00  0.00     0.160 A 
HETATM    6  N   UNL     1     -42.195 -48.163  11.456  1.00  0.00    -0.287 N 
HETATM    7  C   UNL     1     -43.313 -47.280  11.212  1.00  0.00     0.163 C 
HETATM    8  C   UNL     1     -40.927 -47.732  11.084  1.00  0.00     0.330 A 
HETATM    9  O   UNL     1     -40.700 -46.629  10.586  1.00  0.00    -0.246 OA
HETATM   10  N   UNL     1     -39.880 -48.602  11.291  1.00  0.00    -0.273 N 
HETATM   11  C   UNL     1     -39.941 -49.865  11.831  1.00  0.00     0.280 A 
HETATM   12  O   UNL     1     -38.928 -50.541  11.962  1.00  0.00    -0.265 OA
HETATM   13  C   UNL     1     -41.260 -50.230  12.225  1.00  0.00     0.164 A 
HETATM   14  H   UNL     1     -38.970 -48.278  11.008  1.00  0.00     0.173 HD
ENDROOT
BRANCH   2  15
HETATM   15  N   UNL     1     -43.952 -52.109  13.547  1.00  0.00    -0.217 N 
HETATM   16  C   UNL     1     -44.702 -52.949  12.594  1.00  0.00     0.141 C 
HETATM   17  C   UNL     1     -44.585 -54.415  13.019  1.00  0.00     0.020 C 
HETATM   18  C   UNL     1     -45.617 -54.887  14.047  1.00  0.00     0.002 C 
HETATM   19  C   UNL     1     -46.022 -53.910  15.148  1.00  0.00     0.002 C 
HETATM   20  C   UNL     1     -44.908 -53.001  15.656  1.00  0.00     0.020 C 
HETATM   21  C   UNL     1     -44.699 -51.770  14.765  1.00  0.00     0.141 C 
ENDBRANCH   2  15
BRANCH   1  22
HETATM   22  C   UNL     1     -40.999 -52.561  13.115  1.00  0.00     0.174 C 
BRANCH  22  23
HETATM   23  C   UNL     1     -40.425 -52.606  14.522  1.00  0.00     0.188 C 
BRANCH  23  24
HETATM   24  O   UNL     1     -41.314 -53.295  15.400  1.00  0.00    -0.390 OA
BRANCH  24  25
HETATM   25  C   UNL     1     -41.566 -54.618  14.926  1.00  0.00     0.163 C 
HETATM   26  C   UNL     1     -42.161 -55.425  16.059  1.00  0.00     0.033 C 
ENDBRANCH  24  25
ENDBRANCH  23  24
ENDBRANCH  22  23
ENDBRANCH   1  22
TORSDOF 5
ENDMDL
MODEL 4
REMARK VINA RESULT:      -5.7      2.059      3.283
REMARK  5 active torsions:
REMARK  status: ('A' for Active; 'I' for Inactive)
REMARK    1  A    between atoms: C_2  and  O_3 
REMARK    2  A    between atoms: O_3  and  C_4 
REMARK    3  A    between atoms: C_4  and  C_5 
REMARK    4  A    between atoms: C_5  and  N_6 
REMARK    5  A    between atoms: C_7  and  N_19 
ROOT
HETATM    1  N   UNL     1     -41.781 -47.980  12.680  1.00  0.00    -0.172 N 
HETATM    2  C   UNL     1     -41.830 -49.189  11.982  1.00  0.00     0.684 A 
HETATM    3  N   UNL     1     -42.262 -48.978  10.748  1.00  0.00    -0.174 N 
ATOM      4  HN  UNL     1     -42.357 -49.670  10.005  1.00  0.00     0.186 HD
HETATM    5  C   UNL     1     -42.554 -47.649  10.673  1.00  0.00     0.160 A 
HETATM    6  N   UNL     1     -43.068 -46.963   9.587  1.00  0.00    -0.287 N 
HETATM    7  C   UNL     1     -43.334 -47.595   8.315  1.00  0.00     0.163 C 
HETATM    8  C   UNL     1     -43.340 -45.605   9.712  1.00  0.00     0.330 A 
HETATM    9  O   UNL     1     -43.825 -44.920   8.811  1.00  0.00    -0.246 OA
HETATM   10  N   UNL     1     -43.045 -45.013  10.920  1.00  0.00    -0.273 N 
HETATM   11  C   UNL     1     -42.505 -45.613  12.032  1.00  0.00     0.280 A 
HETATM   12  O   UNL     1     -42.290 -44.968  13.051  1.00  0.00    -0.265 OA
HETATM   13  C   UNL     1     -42.285 -47.008  11.850  1.00  0.00     0.164 A 
HETATM   14  H   UNL     1     -43.241 -44.027  10.991  1.00  0.00     0.173 HD
ENDROOT
BRANCH   2  15
HETATM   15  N   UNL     1     -41.382 -50.363  12.522  1.00  0.00    -0.217 N 
HETATM   16  C   UNL     1     -40.007 -50.761  12.169  1.00  0.00     0.141 C 
HETATM   17  C   UNL     1     -39.273 -51.205  13.437  1.00  0.00     0.020 C 
HETATM   18  C   UNL     1     -39.459 -52.673  13.828  1.00  0.00     0.002 C 
HETATM   19  C   UNL     1     -40.834 -53.299  13.608  1.00  0.00     0.002 C 
HETATM   20  C   UNL     1     -42.019 -52.367  13.841  1.00  0.00     0.020 C 
HETATM   21  C   UNL     1     -42.325 -51.486  12.623  1.00  0.00     0.141 C 
ENDBRANCH   2  15
BRANCH   1  22
HETATM   22  C   UNL     1     -41.280 -47.749  14.026  1.00  0.00     0.174 C 
BRANCH  22  23
HETATM   23  C   UNL     1     -39.774 -47.579  14.133  1.00  0.00     0.188 C 
BRANCH  23  24
HETATM   24  O   UNL     1     -39.314 -46.618  13.185  1.00  0.00    -0.390 OA
BRANCH  24  25
HETATM   25  C   UNL     1     -38.774 -45.474  13.847  1.00  0.00     0.163 C 
HETATM   26  C   UNL     1     -38.899 -44.283  12.922  1.00  0.00     0.033 C 
ENDBRANCH  24  25
ENDBRANCH  23  24
ENDBRANCH  22  23
ENDBRANCH   1  22
TORSDOF 5
ENDMDL
MODEL 5
REMARK VINA RESULT:      -5.7      2.355      5.859
REMARK  5 active torsions:
REMARK  status: ('A' for Active; 'I' for Inactive)
REMARK    1  A    between atoms: C_2  and  O_3 
REMARK    2  A    between atoms: O_3  and  C_4 
REMARK    3  A    between atoms: C_4  and  C_5 
REMARK    4  A    between atoms: C_5  and  N_6 
REMARK    5  A    between atoms: C_7  and  N_19 
ROOT
HETATM    1  N   UNL     1     -41.862 -51.067  13.281  1.00  0.00    -0.172 N 
HETATM    2  C   UNL     1     -42.695 -50.070  12.767  1.00  0.00     0.684 A 
HETATM    3  N   UNL     1     -43.924 -50.542  12.622  1.00  0.00    -0.174 N 
ATOM      4  HN  UNL     1     -44.746 -50.026  12.308  1.00  0.00     0.186 HD
HETATM    5  C   UNL     1     -43.868 -51.857  12.976  1.00  0.00     0.160 A 
HETATM    6  N   UNL     1     -44.901 -52.776  12.958  1.00  0.00    -0.287 N 
HETATM    7  C   UNL     1     -46.252 -52.429  12.580  1.00  0.00     0.163 C 
HETATM    8  C   UNL     1     -44.641 -54.093  13.320  1.00  0.00     0.330 A 
HETATM    9  O   UNL     1     -45.489 -54.985  13.306  1.00  0.00    -0.246 OA
HETATM   10  N   UNL     1     -43.356 -54.396  13.713  1.00  0.00    -0.273 N 
HETATM   11  C   UNL     1     -42.285 -53.538  13.791  1.00  0.00     0.280 A 
HETATM   12  O   UNL     1     -41.187 -53.938  14.158  1.00  0.00    -0.265 OA
HETATM   13  C   UNL     1     -42.609 -52.216  13.372  1.00  0.00     0.164 A 
HETATM   14  H   UNL     1     -43.187 -55.352  13.979  1.00  0.00     0.173 HD
ENDROOT
BRANCH   2  15
HETATM   15  N   UNL     1     -42.263 -48.788  12.568  1.00  0.00    -0.217 N 
HETATM   16  C   UNL     1     -42.829 -47.761  13.463  1.00  0.00     0.141 C 
HETATM   17  C   UNL     1     -41.699 -46.866  13.976  1.00  0.00     0.020 C 
HETATM   18  C   UNL     1     -41.328 -45.687  13.073  1.00  0.00     0.002 C 
HETATM   19  C   UNL     1     -41.358 -45.912  11.563  1.00  0.00     0.002 C 
HETATM   20  C   UNL     1     -40.923 -47.300  11.101  1.00  0.00     0.020 C 
HETATM   21  C   UNL     1     -42.055 -48.331  11.187  1.00  0.00     0.141 C 
ENDBRANCH   2  15
BRANCH   1  22
HETATM   22  C   UNL     1     -40.467 -50.946  13.675  1.00  0.00     0.174 C 
BRANCH  22  23
HETATM   23  C   UNL     1     -39.465 -51.048  12.538  1.00  0.00     0.188 C 
BRANCH  23  24
HETATM   24  O   UNL     1     -38.297 -51.748  12.966  1.00  0.00    -0.390 OA
BRANCH  24  25
HETATM   25  C   UNL     1     -37.117 -51.077  12.525  1.00  0.00     0.163 C 
HETATM   26  C   UNL     1     -37.509 -50.064  11.471  1.00  0.00     0.033 C 
ENDBRANCH  24  25
ENDBRANCH  23  24
ENDBRANCH  22  23
ENDBRANCH   1  22
TORSDOF 5
ENDMDL
MODEL 6
REMARK VINA RESULT:      -5.1      2.193      3.283
REMARK  5 active torsions:
REMARK  status: ('A' for Active; 'I' for Inactive)
REMARK    1  A    between atoms: C_2  and  O_3 
REMARK    2  A    between atoms: O_3  and  C_4 
REMARK    3  A    between atoms: C_4  and  C_5 
REMARK    4  A    between atoms: C_5  and  N_6 
REMARK    5  A    between atoms: C_7  and  N_19 
ROOT
HETATM    1  N   UNL     1     -41.474 -48.414  12.825  1.00  0.00    -0.172 N 
HETATM    2  C   UNL     1     -41.615 -49.576  12.065  1.00  0.00     0.684 A 
HETATM    3  N   UNL     1     -42.096 -49.275  10.867  1.00  0.00    -0.174 N 
ATOM      4  HN  UNL     1     -42.260 -49.918  10.093  1.00  0.00     0.186 HD
HETATM    5  C   UNL     1     -42.328 -47.932  10.881  1.00  0.00     0.160 A 
HETATM    6  N   UNL     1     -42.860 -47.161   9.864  1.00  0.00    -0.287 N 
HETATM    7  C   UNL     1     -43.218 -47.705   8.574  1.00  0.00     0.163 C 
HETATM    8  C   UNL     1     -43.060 -45.802  10.078  1.00  0.00     0.330 A 
HETATM    9  O   UNL     1     -43.554 -45.045   9.243  1.00  0.00    -0.246 OA
HETATM   10  N   UNL     1     -42.678 -45.295  11.300  1.00  0.00    -0.273 N 
HETATM   11  C   UNL     1     -42.113 -45.982  12.348  1.00  0.00     0.280 A 
HETATM   12  O   UNL     1     -41.818 -45.408  13.389  1.00  0.00    -0.265 OA
HETATM   13  C   UNL     1     -41.970 -47.373  12.078  1.00  0.00     0.164 A 
HETATM   14  H   UNL     1     -42.822 -44.307  11.436  1.00  0.00     0.173 HD
ENDROOT
BRANCH   2  15
HETATM   15  N   UNL     1     -41.199 -50.799  12.515  1.00  0.00    -0.217 N 
HETATM   16  C   UNL     1     -39.744 -51.042  12.492  1.00  0.00     0.141 C 
HETATM   17  C   UNL     1     -39.319 -51.661  13.825  1.00  0.00     0.020 C 
HETATM   18  C   UNL     1     -39.441 -53.184  13.914  1.00  0.00     0.002 C 
HETATM   19  C   UNL     1     -40.637 -53.843  13.232  1.00  0.00     0.002 C 
HETATM   20  C   UNL     1     -41.936 -53.043  13.277  1.00  0.00     0.020 C 
HETATM   21  C   UNL     1     -42.009 -51.977  12.177  1.00  0.00     0.141 C 
ENDBRANCH   2  15
BRANCH   1  22
HETATM   22  C   UNL     1     -40.897 -48.284  14.154  1.00  0.00     0.174 C 
BRANCH  22  23
HETATM   23  C   UNL     1     -41.834 -48.629  15.300  1.00  0.00     0.188 C 
BRANCH  23  24
HETATM   24  O   UNL     1     -41.319 -49.729  16.049  1.00  0.00    -0.390 OA
BRANCH  24  25
HETATM   25  C   UNL     1     -42.287 -50.773  16.144  1.00  0.00     0.163 C 
HETATM   26  C   UNL     1     -41.649 -51.954  16.841  1.00  0.00     0.033 C 
ENDBRANCH  24  25
ENDBRANCH  23  24
ENDBRANCH  22  23
ENDBRANCH   1  22
TORSDOF 5
ENDMDL
MODEL 7
REMARK VINA RESULT:      -5.1      3.014      4.306
REMARK  5 active torsions:
REMARK  status: ('A' for Active; 'I' for Inactive)
REMARK    1  A    between atoms: C_2  and  O_3 
REMARK    2  A    between atoms: O_3  and  C_4 
REMARK    3  A    between atoms: C_4  and  C_5 
REMARK    4  A    between atoms: C_5  and  N_6 
REMARK    5  A    between atoms: C_7  and  N_19 
ROOT
HETATM    1  N   UNL     1     -39.875 -46.317  12.926  1.00  0.00    -0.172 N 
HETATM    2  C   UNL     1     -40.251 -47.537  12.360  1.00  0.00     0.684 A 
HETATM    3  N   UNL     1     -41.178 -47.336  11.435  1.00  0.00    -0.174 N 
ATOM      4  HN  UNL     1     -41.604 -48.040  10.832  1.00  0.00     0.186 HD
HETATM    5  C   UNL     1     -41.446 -46.000  11.454  1.00  0.00     0.160 A 
HETATM    6  N   UNL     1     -42.371 -45.319  10.683  1.00  0.00    -0.287 N 
HETATM    7  C   UNL     1     -43.183 -45.967   9.679  1.00  0.00     0.163 C 
HETATM    8  C   UNL     1     -42.533 -43.951  10.872  1.00  0.00     0.330 A 
HETATM    9  O   UNL     1     -43.350 -43.269  10.254  1.00  0.00    -0.246 OA
HETATM   10  N   UNL     1     -41.724 -43.345  11.807  1.00  0.00    -0.273 N 
HETATM   11  C   UNL     1     -40.761 -43.940  12.587  1.00  0.00     0.280 A 
HETATM   12  O   UNL     1     -40.107 -43.283  13.387  1.00  0.00    -0.265 OA
HETATM   13  C   UNL     1     -40.672 -45.345  12.372  1.00  0.00     0.164 A 
HETATM   14  H   UNL     1     -41.848 -42.352  11.926  1.00  0.00     0.173 HD
ENDROOT
BRANCH   2  15
HETATM   15  N   UNL     1     -39.635 -48.714  12.686  1.00  0.00    -0.217 N 
HETATM   16  C   UNL     1     -38.804 -49.329  11.634  1.00  0.00     0.141 C 
HETATM   17  C   UNL     1     -37.469 -49.766  12.241  1.00  0.00     0.020 C 
HETATM   18  C   UNL     1     -37.459 -51.157  12.880  1.00  0.00     0.002 C 
HETATM   19  C   UNL     1     -38.707 -51.598  13.641  1.00  0.00     0.002 C 
HETATM   20  C   UNL     1     -39.431 -50.494  14.404  1.00  0.00     0.020 C 
HETATM   21  C   UNL     1     -40.375 -49.681  13.508  1.00  0.00     0.141 C 
ENDBRANCH   2  15
BRANCH   1  22
HETATM   22  C   UNL     1     -38.828 -46.075  13.907  1.00  0.00     0.174 C 
BRANCH  22  23
HETATM   23  C   UNL     1     -39.260 -46.209  15.358  1.00  0.00     0.188 C 
BRANCH  23  24
HETATM   24  O   UNL     1     -38.839 -47.465  15.888  1.00  0.00    -0.390 OA
BRANCH  24  25
HETATM   25  C   UNL     1     -37.511 -47.377  16.402  1.00  0.00     0.163 C 
HETATM   26  C   UNL     1     -36.649 -48.387  15.676  1.00  0.00     0.033 C 
ENDBRANCH  24  25
ENDBRANCH  23  24
ENDBRANCH  22  23
ENDBRANCH   1  22
TORSDOF 5
ENDMDL
MODEL 8
REMARK VINA RESULT:      -4.9      2.694      5.236
REMARK  5 active torsions:
REMARK  status: ('A' for Active; 'I' for Inactive)
REMARK    1  A    between atoms: C_2  and  O_3 
REMARK    2  A    between atoms: O_3  and  C_4 
REMARK    3  A    between atoms: C_4  and  C_5 
REMARK    4  A    between atoms: C_5  and  N_6 
REMARK    5  A    between atoms: C_7  and  N_19 
ROOT
HETATM    1  N   UNL     1     -39.909 -49.689  13.856  1.00  0.00    -0.172 N 
HETATM    2  C   UNL     1     -38.980 -48.672  14.087  1.00  0.00     0.684 A 
HETATM    3  N   UNL     1     -39.188 -47.672  13.243  1.00  0.00    -0.174 N 
ATOM      4  HN  UNL     1     -38.689 -46.784  13.211  1.00  0.00     0.186 HD
HETATM    5  C   UNL     1     -40.204 -48.073  12.427  1.00  0.00     0.160 A 
HETATM    6  N   UNL     1     -40.753 -47.376  11.366  1.00  0.00    -0.287 N 
HETATM    7  C   UNL     1     -40.324 -46.047  10.995  1.00  0.00     0.163 C 
HETATM    8  C   UNL     1     -41.764 -47.969  10.619  1.00  0.00     0.330 A 
HETATM    9  O   UNL     1     -42.291 -47.438   9.641  1.00  0.00    -0.246 OA
HETATM   10  N   UNL     1     -42.185 -49.220  11.010  1.00  0.00    -0.273 N 
HETATM   11  C   UNL     1     -41.718 -49.963  12.067  1.00  0.00     0.280 A 
HETATM   12  O   UNL     1     -42.181 -51.072  12.309  1.00  0.00    -0.265 OA
HETATM   13  C   UNL     1     -40.660 -49.317  12.767  1.00  0.00     0.164 A 
HETATM   14  H   UNL     1     -42.924 -49.632  10.463  1.00  0.00     0.173 HD
ENDROOT
BRANCH   2  15
HETATM   15  N   UNL     1     -38.084 -48.722  15.119  1.00  0.00    -0.217 N 
HETATM   16  C   UNL     1     -37.966 -47.503  15.941  1.00  0.00     0.141 C 
HETATM   17  C   UNL     1     -37.980 -47.894  17.421  1.00  0.00     0.020 C 
HETATM   18  C   UNL     1     -36.622 -48.270  18.017  1.00  0.00     0.002 C 
HETATM   19  C   UNL     1     -35.652 -49.054  17.137  1.00  0.00     0.002 C 
HETATM   20  C   UNL     1     -36.297 -50.066  16.196  1.00  0.00     0.020 C 
HETATM   21  C   UNL     1     -36.812 -49.424  14.902  1.00  0.00     0.141 C 
ENDBRANCH   2  15
BRANCH   1  22
HETATM   22  C   UNL     1     -40.092 -50.917  14.614  1.00  0.00     0.174 C 
BRANCH  22  23
HETATM   23  C   UNL     1     -39.120 -52.034  14.276  1.00  0.00     0.188 C 
BRANCH  23  24
HETATM   24  O   UNL     1     -39.641 -52.846  13.224  1.00  0.00    -0.390 OA
BRANCH  24  25
HETATM   25  C   UNL     1     -40.079 -54.107  13.730  1.00  0.00     0.163 C 
HETATM   26  C   UNL     1     -41.564 -54.236  13.470  1.00  0.00     0.033 C 
ENDBRANCH  24  25
ENDBRANCH  23  24
ENDBRANCH  22  23
ENDBRANCH   1  22
TORSDOF 5
ENDMDL
MODEL 9
REMARK VINA RESULT:      -4.9      2.252      5.893
REMARK  5 active torsions:
REMARK  status: ('A' for Active; 'I' for Inactive)
REMARK    1  A    between atoms: C_2  and  O_3 
REMARK    2  A    between atoms: O_3  and  C_4 
REMARK    3  A    between atoms: C_4  and  C_5 
REMARK    4  A    between atoms: C_5  and  N_6 
REMARK    5  A    between atoms: C_7  and  N_19 
ROOT
HETATM    1  N   UNL     1     -41.296 -50.399  13.489  1.00  0.00    -0.172 N 
HETATM    2  C   UNL     1     -42.210 -49.749  12.657  1.00  0.00     0.684 A 
HETATM    3  N   UNL     1     -43.290 -50.501  12.502  1.00  0.00    -0.174 N 
ATOM      4  HN  UNL     1     -44.134 -50.261  11.983  1.00  0.00     0.186 HD
HETATM    5  C   UNL     1     -43.042 -51.660  13.174  1.00  0.00     0.160 A 
HETATM    6  N   UNL     1     -43.866 -52.766  13.273  1.00  0.00    -0.287 N 
HETATM    7  C   UNL     1     -45.182 -52.819  12.676  1.00  0.00     0.163 C 
HETATM    8  C   UNL     1     -43.422 -53.881  13.975  1.00  0.00     0.330 A 
HETATM    9  O   UNL     1     -44.073 -54.919  14.091  1.00  0.00    -0.246 OA
HETATM   10  N   UNL     1     -42.182 -53.798  14.568  1.00  0.00    -0.273 N 
HETATM   11  C   UNL     1     -41.318 -52.729  14.547  1.00  0.00     0.280 A 
HETATM   12  O   UNL     1     -40.236 -52.785  15.118  1.00  0.00    -0.265 OA
HETATM   13  C   UNL     1     -41.816 -51.636  13.781  1.00  0.00     0.164 A 
HETATM   14  H   UNL     1     -41.878 -54.610  15.080  1.00  0.00     0.173 HD
ENDROOT
BRANCH   2  15
HETATM   15  N   UNL     1     -42.003 -48.478  12.195  1.00  0.00    -0.217 N 
HETATM   16  C   UNL     1     -43.131 -47.538  12.339  1.00  0.00     0.141 C 
HETATM   17  C   UNL     1     -42.609 -46.212  12.898  1.00  0.00     0.020 C 
HETATM   18  C   UNL     1     -42.083 -45.219  11.858  1.00  0.00     0.002 C 
HETATM   19  C   UNL     1     -41.315 -45.780  10.664  1.00  0.00     0.002 C 
HETATM   20  C   UNL     1     -40.441 -46.994  10.962  1.00  0.00     0.020 C 
HETATM   21  C   UNL     1     -41.234 -48.307  10.955  1.00  0.00     0.141 C 
ENDBRANCH   2  15
BRANCH   1  22
HETATM   22  C   UNL     1     -40.029 -49.888  13.990  1.00  0.00     0.174 C 
BRANCH  22  23
HETATM   23  C   UNL     1     -38.824 -50.179  13.111  1.00  0.00     0.188 C 
BRANCH  23  24
HETATM   24  O   UNL     1     -38.060 -48.992  12.906  1.00  0.00    -0.390 OA
BRANCH  24  25
HETATM   25  C   UNL     1     -38.373 -48.013  13.896  1.00  0.00     0.163 C 
HETATM   26  C   UNL     1     -37.089 -47.605  14.586  1.00  0.00     0.033 C 
ENDBRANCH  24  25
ENDBRANCH  23  24
ENDBRANCH  22  23
ENDBRANCH   1  22
TORSDOF 5
ENDMDL
