MODEL 1
REMARK VINA RESULT:      -5.3      0.000      0.000
REMARK  4 active torsions:
REMARK  status: ('A' for Active; 'I' for Inactive)
REMARK    1  A    between atoms: C_2  and  S_3 
REMARK    2  A    between atoms: S_3  and  C_4 
REMARK    3  A    between atoms: C_7  and  N_9 
REMARK       I    between atoms: N_9  and  C_10 
REMARK       I    between atoms: C_10  and  N_12 
REMARK    4  A    between atoms: N_12  and  C_13 
ROOT
HETATM    1  N   UNL     1     -42.162 -48.984  11.046  1.00  0.00    -0.338 N 
HETATM    2  C   UNL     1     -41.976 -50.053  11.906  1.00  0.00     0.321 C 
HETATM    3  O   UNL     1     -42.681 -50.251  12.887  1.00  0.00    -0.247 OA
HETATM    4  N   UNL     1     -40.853 -50.773  11.556  1.00  0.00    -0.308 N 
HETATM    5  H   UNL     1     -41.975 -49.192  10.075  1.00  0.00     0.164 HD
HETATM    6  H   UNL     1     -40.157 -50.227  11.073  1.00  0.00     0.170 HD
ENDROOT
BRANCH   1   7
HETATM    7  C   UNL     1     -43.169 -47.982  11.365  1.00  0.00     0.087 C 
HETATM    8  C   UNL     1     -43.870 -47.430  10.122  1.00  0.00     0.026 C 
HETATM    9  C   UNL     1     -43.219 -46.079   9.815  1.00  0.00     0.017 C 
HETATM   10  C   UNL     1     -42.131 -45.871  10.873  1.00  0.00     0.049 C 
HETATM   11  C   UNL     1     -42.565 -46.754  12.042  1.00  0.00     0.040 C 
BRANCH  10  12
HETATM   12  S   UNL     1     -41.972 -44.106  11.296  1.00  0.00    -0.165 SA
BRANCH  12  13
HETATM   13  C   UNL     1     -40.176 -43.887  11.106  1.00  0.00     0.070 C 
HETATM   14  C   UNL     1     -39.630 -44.954  10.172  1.00  0.00     0.016 C 
ENDBRANCH  12  13
ENDBRANCH  10  12
ENDBRANCH   1   7
BRANCH   4  15
HETATM   15  C   UNL     1     -40.381 -51.846  12.345  1.00  0.00     0.051 A 
HETATM   16  C   UNL     1     -39.396 -51.593  13.300  1.00  0.00     0.032 A 
HETATM   17  C   UNL     1     -38.979 -52.620  14.144  1.00  0.00     0.019 A 
HETATM   18  C   UNL     1     -39.523 -53.882  13.967  1.00  0.00     0.088 A 
HETATM   19  N   UNL     1     -40.440 -54.177  13.022  1.00  0.00    -0.373 N 
HETATM   20  C   UNL     1     -40.862 -53.149  12.243  1.00  0.00     0.117 A 
ATOM     21  HN  UNL     1     -40.796 -55.125  12.899  1.00  0.00     0.164 HD
ENDBRANCH   4  15
TORSDOF 4
ENDMDL
MODEL 2
REMARK VINA RESULT:      -5.3      3.785      7.171
REMARK  4 active torsions:
REMARK  status: ('A' for Active; 'I' for Inactive)
REMARK    1  A    between atoms: C_2  and  S_3 
REMARK    2  A    between atoms: S_3  and  C_4 
REMARK    3  A    between atoms: C_7  and  N_9 
REMARK       I    between atoms: N_9  and  C_10 
REMARK       I    between atoms: C_10  and  N_12 
REMARK    4  A    between atoms: N_12  and  C_13 
ROOT
HETATM    1  N   UNL     1     -42.272 -51.166  12.047  1.00  0.00    -0.338 N 
HETATM    2  C   UNL     1     -42.009 -49.822  12.252  1.00  0.00     0.321 C 
HETATM    3  O   UNL     1     -41.855 -49.334  13.364  1.00  0.00    -0.247 OA
HETATM    4  N   UNL     1     -42.048 -49.128  11.061  1.00  0.00    -0.308 N 
HETATM    5  H   UNL     1     -41.840 -51.554  11.221  1.00  0.00     0.164 HD
HETATM    6  H   UNL     1     -42.640 -49.554  10.366  1.00  0.00     0.170 HD
ENDROOT
BRANCH   1   7
HETATM    7  C   UNL     1     -42.482 -52.032  13.199  1.00  0.00     0.087 C 
HETATM    8  C   UNL     1     -42.521 -53.516  12.824  1.00  0.00     0.026 C 
HETATM    9  C   UNL     1     -43.997 -53.916  12.775  1.00  0.00     0.017 C 
HETATM   10  C   UNL     1     -44.801 -52.653  13.100  1.00  0.00     0.049 C 
HETATM   11  C   UNL     1     -43.825 -51.772  13.877  1.00  0.00     0.040 C 
BRANCH  10  12
HETATM   12  S   UNL     1     -46.315 -53.073  14.023  1.00  0.00    -0.165 SA
BRANCH  12  13
HETATM   13  C   UNL     1     -46.825 -51.417  14.578  1.00  0.00     0.070 C 
HETATM   14  C   UNL     1     -47.246 -51.478  16.037  1.00  0.00     0.016 C 
ENDBRANCH  12  13
ENDBRANCH  10  12
ENDBRANCH   1   7
BRANCH   4  15
HETATM   15  C   UNL     1     -41.926 -47.721  11.014  1.00  0.00     0.051 A 
HETATM   16  C   UNL     1     -40.653 -47.161  10.911  1.00  0.00     0.032 A 
HETATM   17  C   UNL     1     -40.520 -45.781  10.778  1.00  0.00     0.019 A 
HETATM   18  C   UNL     1     -41.665 -45.000  10.809  1.00  0.00     0.088 A 
HETATM   19  N   UNL     1     -42.909 -45.501  10.959  1.00  0.00    -0.373 N 
HETATM   20  C   UNL     1     -43.014 -46.852  11.040  1.00  0.00     0.117 A 
ATOM     21  HN  UNL     1     -43.728 -44.896  11.008  1.00  0.00     0.164 HD
ENDBRANCH   4  15
TORSDOF 4
ENDMDL
MODEL 3
REMARK VINA RESULT:      -5.2      4.779      6.397
REMARK  4 active torsions:
REMARK  status: ('A' for Active; 'I' for Inactive)
REMARK    1  A    between atoms: C_2  and  S_3 
REMARK    2  A    between atoms: S_3  and  C_4 
REMARK    3  A    between atoms: C_7  and  N_9 
REMARK       I    between atoms: N_9  and  C_10 
REMARK       I    between atoms: C_10  and  N_12 
REMARK    4  A    between atoms: N_12  and  C_13 
ROOT
HETATM    1  N   UNL     1     -43.724 -50.948  13.032  1.00  0.00    -0.338 N 
HETATM    2  C   UNL     1     -42.445 -51.247  12.591  1.00  0.00     0.321 C 
HETATM    3  O   UNL     1     -42.102 -52.372  12.253  1.00  0.00    -0.247 OA
HETATM    4  N   UNL     1     -41.624 -50.143  12.687  1.00  0.00    -0.308 N 
HETATM    5  H   UNL     1     -44.061 -50.039  12.748  1.00  0.00     0.164 HD
HETATM    6  H   UNL     1     -41.906 -49.491  13.402  1.00  0.00     0.170 HD
ENDROOT
BRANCH   1   7
HETATM    7  C   UNL     1     -44.685 -52.028  13.207  1.00  0.00     0.087 C 
HETATM    8  C   UNL     1     -46.123 -51.592  12.919  1.00  0.00     0.026 C 
HETATM    9  C   UNL     1     -46.785 -51.339  14.275  1.00  0.00     0.017 C 
HETATM   10  C   UNL     1     -45.715 -51.610  15.337  1.00  0.00     0.049 C 
HETATM   11  C   UNL     1     -44.720 -52.540  14.645  1.00  0.00     0.040 C 
BRANCH  10  12
HETATM   12  S   UNL     1     -46.464 -52.314  16.842  1.00  0.00    -0.165 SA
BRANCH  12  13
HETATM   13  C   UNL     1     -47.978 -51.310  16.951  1.00  0.00     0.070 C 
HETATM   14  C   UNL     1     -47.807 -50.248  18.024  1.00  0.00     0.016 C 
ENDBRANCH  12  13
ENDBRANCH  10  12
ENDBRANCH   1   7
BRANCH   4  15
HETATM   15  C   UNL     1     -40.241 -50.217  12.408  1.00  0.00     0.051 A 
HETATM   16  C   UNL     1     -39.385 -50.718  13.388  1.00  0.00     0.032 A 
HETATM   17  C   UNL     1     -38.031 -50.877  13.099  1.00  0.00     0.019 A 
HETATM   18  C   UNL     1     -37.569 -50.477  11.856  1.00  0.00     0.088 A 
HETATM   19  N   UNL     1     -38.357 -49.941  10.900  1.00  0.00    -0.373 N 
HETATM   20  C   UNL     1     -39.679 -49.839  11.190  1.00  0.00     0.117 A 
ATOM     21  HN  UNL     1     -37.979 -49.628  10.007  1.00  0.00     0.164 HD
ENDBRANCH   4  15
TORSDOF 4
ENDMDL
MODEL 4
REMARK VINA RESULT:      -5.0      3.963      4.858
REMARK  4 active torsions:
REMARK  status: ('A' for Active; 'I' for Inactive)
REMARK    1  A    between atoms: C_2  and  S_3 
REMARK    2  A    between atoms: S_3  and  C_4 
REMARK    3  A    between atoms: C_7  and  N_9 
REMARK       I    between atoms: N_9  and  C_10 
REMARK       I    between atoms: C_10  and  N_12 
REMARK    4  A    between atoms: N_12  and  C_13 
ROOT
HETATM    1  N   UNL     1     -43.218 -49.775  12.462  1.00  0.00    -0.338 N 
HETATM    2  C   UNL     1     -43.864 -50.676  13.293  1.00  0.00     0.321 C 
HETATM    3  O   UNL     1     -43.729 -50.676  14.509  1.00  0.00    -0.247 OA
HETATM    4  N   UNL     1     -44.572 -51.601  12.556  1.00  0.00    -0.308 N 
HETATM    5  H   UNL     1     -43.764 -49.478  11.666  1.00  0.00     0.164 HD
HETATM    6  H   UNL     1     -44.197 -51.755  11.633  1.00  0.00     0.170 HD
ENDROOT
BRANCH   1   7
HETATM    7  C   UNL     1     -42.253 -48.847  13.034  1.00  0.00     0.087 C 
HETATM    8  C   UNL     1     -41.995 -47.634  12.138  1.00  0.00     0.026 C 
HETATM    9  C   UNL     1     -40.681 -47.903  11.403  1.00  0.00     0.017 C 
HETATM   10  C   UNL     1     -40.199 -49.282  11.865  1.00  0.00     0.049 C 
HETATM   11  C   UNL     1     -40.879 -49.488  13.217  1.00  0.00     0.040 C 
BRANCH  10  12
HETATM   12  S   UNL     1     -38.379 -49.339  11.934  1.00  0.00    -0.165 SA
BRANCH  12  13
HETATM   13  C   UNL     1     -38.125 -49.405  13.734  1.00  0.00     0.070 C 
HETATM   14  C   UNL     1     -37.525 -48.093  14.211  1.00  0.00     0.016 C 
ENDBRANCH  12  13
ENDBRANCH  10  12
ENDBRANCH   1   7
BRANCH   4  15
HETATM   15  C   UNL     1     -45.225 -52.696  13.165  1.00  0.00     0.051 A 
HETATM   16  C   UNL     1     -44.589 -53.937  13.170  1.00  0.00     0.032 A 
HETATM   17  C   UNL     1     -45.179 -55.007  13.839  1.00  0.00     0.019 A 
HETATM   18  C   UNL     1     -46.415 -54.814  14.434  1.00  0.00     0.088 A 
HETATM   19  N   UNL     1     -47.085 -53.643  14.406  1.00  0.00    -0.373 N 
HETATM   20  C   UNL     1     -46.467 -52.605  13.788  1.00  0.00     0.117 A 
ATOM     21  HN  UNL     1     -48.008 -53.544  14.828  1.00  0.00     0.164 HD
ENDBRANCH   4  15
TORSDOF 4
ENDMDL
MODEL 5
REMARK VINA RESULT:      -4.9      2.315      2.592
REMARK  4 active torsions:
REMARK  status: ('A' for Active; 'I' for Inactive)
REMARK    1  A    between atoms: C_2  and  S_3 
REMARK    2  A    between atoms: S_3  and  C_4 
REMARK    3  A    between atoms: C_7  and  N_9 
REMARK       I    between atoms: N_9  and  C_10 
REMARK       I    between atoms: C_10  and  N_12 
REMARK    4  A    between atoms: N_12  and  C_13 
ROOT
HETATM    1  N   UNL     1     -42.439 -49.463  11.764  1.00  0.00    -0.338 N 
HETATM    2  C   UNL     1     -43.075 -50.431  12.523  1.00  0.00     0.321 C 
HETATM    3  O   UNL     1     -43.834 -50.163  13.445  1.00  0.00    -0.247 OA
HETATM    4  N   UNL     1     -42.657 -51.693  12.158  1.00  0.00    -0.308 N 
HETATM    5  H   UNL     1     -42.336 -49.701  10.787  1.00  0.00     0.164 HD
HETATM    6  H   UNL     1     -41.730 -51.713  11.765  1.00  0.00     0.170 HD
ENDROOT
BRANCH   1   7
HETATM    7  C   UNL     1     -42.584 -48.062  12.132  1.00  0.00     0.087 C 
HETATM    8  C   UNL     1     -43.412 -47.267  11.118  1.00  0.00     0.026 C 
HETATM    9  C   UNL     1     -42.417 -46.505  10.241  1.00  0.00     0.017 C 
HETATM   10  C   UNL     1     -41.019 -46.883  10.741  1.00  0.00     0.049 C 
HETATM   11  C   UNL     1     -41.241 -47.337  12.182  1.00  0.00     0.040 C 
BRANCH  10  12
HETATM   12  S   UNL     1     -39.873 -45.476  10.576  1.00  0.00    -0.165 SA
BRANCH  12  13
HETATM   13  C   UNL     1     -40.262 -44.561  12.100  1.00  0.00     0.070 C 
HETATM   14  C   UNL     1     -38.983 -44.299  12.877  1.00  0.00     0.016 C 
ENDBRANCH  12  13
ENDBRANCH  10  12
ENDBRANCH   1   7
BRANCH   4  15
HETATM   15  C   UNL     1     -43.072 -52.847  12.860  1.00  0.00     0.051 A 
HETATM   16  C   UNL     1     -42.236 -53.368  13.847  1.00  0.00     0.032 A 
HETATM   17  C   UNL     1     -42.667 -54.453  14.607  1.00  0.00     0.019 A 
HETATM   18  C   UNL     1     -43.898 -55.018  14.315  1.00  0.00     0.088 A 
HETATM   19  N   UNL     1     -44.712 -54.574  13.334  1.00  0.00    -0.373 N 
HETATM   20  C   UNL     1     -44.289 -53.488  12.640  1.00  0.00     0.117 A 
ATOM     21  HN  UNL     1     -45.598 -55.033  13.125  1.00  0.00     0.164 HD
ENDBRANCH   4  15
TORSDOF 4
ENDMDL
MODEL 6
REMARK VINA RESULT:      -4.8      3.977      8.495
REMARK  4 active torsions:
REMARK  status: ('A' for Active; 'I' for Inactive)
REMARK    1  A    between atoms: C_2  and  S_3 
REMARK    2  A    between atoms: S_3  and  C_4 
REMARK    3  A    between atoms: C_7  and  N_9 
REMARK       I    between atoms: N_9  and  C_10 
REMARK       I    between atoms: C_10  and  N_12 
REMARK    4  A    between atoms: N_12  and  C_13 
ROOT
HETATM    1  N   UNL     1     -41.201 -52.564  13.985  1.00  0.00    -0.338 N 
HETATM    2  C   UNL     1     -41.752 -51.849  12.934  1.00  0.00     0.321 C 
HETATM    3  O   UNL     1     -42.289 -52.382  11.973  1.00  0.00    -0.247 OA
HETATM    4  N   UNL     1     -41.516 -50.499  13.085  1.00  0.00    -0.308 N 
HETATM    5  H   UNL     1     -41.312 -52.128  14.889  1.00  0.00     0.164 HD
HETATM    6  H   UNL     1     -40.689 -50.291  13.622  1.00  0.00     0.170 HD
ENDROOT
BRANCH   1   7
HETATM    7  C   UNL     1     -41.159 -54.018  13.909  1.00  0.00     0.087 C 
HETATM    8  C   UNL     1     -42.226 -54.687  14.779  1.00  0.00     0.026 C 
HETATM    9  C   UNL     1     -41.523 -55.146  16.059  1.00  0.00     0.017 C 
HETATM   10  C   UNL     1     -40.058 -54.718  15.927  1.00  0.00     0.049 C 
HETATM   11  C   UNL     1     -39.836 -54.583  14.422  1.00  0.00     0.040 C 
BRANCH  10  12
HETATM   12  S   UNL     1     -38.958 -55.928  16.732  1.00  0.00    -0.165 SA
BRANCH  12  13
HETATM   13  C   UNL     1     -40.167 -57.206  17.195  1.00  0.00     0.070 C 
HETATM   14  C   UNL     1     -39.439 -58.413  17.764  1.00  0.00     0.016 C 
ENDBRANCH  12  13
ENDBRANCH  10  12
ENDBRANCH   1   7
BRANCH   4  15
HETATM   15  C   UNL     1     -41.876 -49.564  12.088  1.00  0.00     0.051 A 
HETATM   16  C   UNL     1     -43.055 -48.837  12.245  1.00  0.00     0.032 A 
HETATM   17  C   UNL     1     -43.382 -47.852  11.315  1.00  0.00     0.019 A 
HETATM   18  C   UNL     1     -42.543 -47.665  10.228  1.00  0.00     0.088 A 
HETATM   19  N   UNL     1     -41.421 -48.384  10.015  1.00  0.00    -0.373 N 
HETATM   20  C   UNL     1     -41.102 -49.305  10.959  1.00  0.00     0.117 A 
ATOM     21  HN  UNL     1     -40.843 -48.241   9.187  1.00  0.00     0.164 HD
ENDBRANCH   4  15
TORSDOF 4
ENDMDL
MODEL 7
REMARK VINA RESULT:      -4.8      3.050      3.786
REMARK  4 active torsions:
REMARK  status: ('A' for Active; 'I' for Inactive)
REMARK    1  A    between atoms: C_2  and  S_3 
REMARK    2  A    between atoms: S_3  and  C_4 
REMARK    3  A    between atoms: C_7  and  N_9 
REMARK       I    between atoms: N_9  and  C_10 
REMARK       I    between atoms: C_10  and  N_12 
REMARK    4  A    between atoms: N_12  and  C_13 
ROOT
HETATM    1  N   UNL     1     -41.276 -50.315  12.799  1.00  0.00    -0.338 N 
HETATM    2  C   UNL     1     -41.926 -51.532  12.667  1.00  0.00     0.321 C 
HETATM    3  O   UNL     1     -41.783 -52.262  11.696  1.00  0.00    -0.247 OA
HETATM    4  N   UNL     1     -42.803 -51.733  13.711  1.00  0.00    -0.308 N 
HETATM    5  H   UNL     1     -41.000 -50.091  13.744  1.00  0.00     0.164 HD
HETATM    6  H   UNL     1     -43.146 -50.879  14.121  1.00  0.00     0.170 HD
ENDROOT
BRANCH   1   7
HETATM    7  C   UNL     1     -40.464 -49.821  11.696  1.00  0.00     0.087 C 
HETATM    8  C   UNL     1     -39.189 -49.118  12.168  1.00  0.00     0.026 C 
HETATM    9  C   UNL     1     -39.464 -47.615  12.096  1.00  0.00     0.017 C 
HETATM   10  C   UNL     1     -40.906 -47.460  11.603  1.00  0.00     0.049 C 
HETATM   11  C   UNL     1     -41.198 -48.768  10.868  1.00  0.00     0.040 C 
BRANCH  10  12
HETATM   12  S   UNL     1     -41.076 -45.973  10.564  1.00  0.00    -0.165 SA
BRANCH  12  13
HETATM   13  C   UNL     1     -39.889 -44.866  11.386  1.00  0.00     0.070 C 
HETATM   14  C   UNL     1     -40.397 -43.436  11.317  1.00  0.00     0.016 C 
ENDBRANCH  12  13
ENDBRANCH  10  12
ENDBRANCH   1   7
BRANCH   4  15
HETATM   15  C   UNL     1     -43.672 -52.847  13.749  1.00  0.00     0.051 A 
HETATM   16  C   UNL     1     -43.228 -54.024  14.351  1.00  0.00     0.032 A 
HETATM   17  C   UNL     1     -44.101 -55.103  14.473  1.00  0.00     0.019 A 
HETATM   18  C   UNL     1     -45.373 -54.988  13.937  1.00  0.00     0.088 A 
HETATM   19  N   UNL     1     -45.822 -53.885  13.301  1.00  0.00    -0.373 N 
HETATM   20  C   UNL     1     -44.968 -52.832  13.237  1.00  0.00     0.117 A 
ATOM     21  HN  UNL     1     -46.754 -53.845  12.890  1.00  0.00     0.164 HD
ENDBRANCH   4  15
TORSDOF 4
ENDMDL
MODEL 8
REMARK VINA RESULT:      -4.5     18.300     19.228
REMARK  4 active torsions:
REMARK  status: ('A' for Active; 'I' for Inactive)
REMARK    1  A    between atoms: C_2  and  S_3 
REMARK    2  A    between atoms: S_3  and  C_4 
REMARK    3  A    between atoms: C_7  and  N_9 
REMARK       I    between atoms: N_9  and  C_10 
REMARK       I    between atoms: C_10  and  N_12 
REMARK    4  A    between atoms: N_12  and  C_13 
ROOT
HETATM    1  N   UNL     1     -32.900 -49.893  -5.116  1.00  0.00    -0.338 N 
HETATM    2  C   UNL     1     -31.806 -50.743  -5.103  1.00  0.00     0.321 C 
HETATM    3  O   UNL     1     -30.650 -50.341  -5.112  1.00  0.00    -0.247 OA
HETATM    4  N   UNL     1     -32.208 -52.059  -5.180  1.00  0.00    -0.308 N 
HETATM    5  H   UNL     1     -33.685 -50.216  -4.569  1.00  0.00     0.164 HD
HETATM    6  H   UNL     1     -33.095 -52.184  -5.642  1.00  0.00     0.170 HD
ENDROOT
BRANCH   1   7
HETATM    7  C   UNL     1     -32.684 -48.459  -5.251  1.00  0.00     0.087 C 
HETATM    8  C   UNL     1     -32.594 -47.744  -3.901  1.00  0.00     0.026 C 
HETATM    9  C   UNL     1     -33.959 -47.098  -3.656  1.00  0.00     0.017 C 
HETATM   10  C   UNL     1     -34.835 -47.463  -4.858  1.00  0.00     0.049 C 
HETATM   11  C   UNL     1     -33.839 -47.770  -5.975  1.00  0.00     0.040 C 
BRANCH  10  12
HETATM   12  S   UNL     1     -35.991 -46.109  -5.248  1.00  0.00    -0.165 SA
BRANCH  12  13
HETATM   13  C   UNL     1     -35.561 -44.927  -3.934  1.00  0.00     0.070 C 
HETATM   14  C   UNL     1     -36.828 -44.459  -3.237  1.00  0.00     0.016 C 
ENDBRANCH  12  13
ENDBRANCH  10  12
ENDBRANCH   1   7
BRANCH   4  15
HETATM   15  C   UNL     1     -31.278 -53.116  -5.300  1.00  0.00     0.051 A 
HETATM   16  C   UNL     1     -30.595 -53.275  -6.506  1.00  0.00     0.032 A 
HETATM   17  C   UNL     1     -29.614 -54.258  -6.614  1.00  0.00     0.019 A 
HETATM   18  C   UNL     1     -29.387 -55.087  -5.527  1.00  0.00     0.088 A 
HETATM   19  N   UNL     1     -30.063 -54.998  -4.362  1.00  0.00    -0.373 N 
HETATM   20  C   UNL     1     -30.980 -54.003  -4.268  1.00  0.00     0.117 A 
ATOM     21  HN  UNL     1     -29.892 -55.645  -3.593  1.00  0.00     0.164 HD
ENDBRANCH   4  15
TORSDOF 4
ENDMDL
MODEL 9
REMARK VINA RESULT:      -4.5     14.869     17.147
REMARK  4 active torsions:
REMARK  status: ('A' for Active; 'I' for Inactive)
REMARK    1  A    between atoms: C_2  and  S_3 
REMARK    2  A    between atoms: S_3  and  C_4 
REMARK    3  A    between atoms: C_7  and  N_9 
REMARK       I    between atoms: N_9  and  C_10 
REMARK       I    between atoms: C_10  and  N_12 
REMARK    4  A    between atoms: N_12  and  C_13 
ROOT
HETATM    1  N   UNL     1     -50.662 -51.115  -0.670  1.00  0.00    -0.338 N 
HETATM    2  C   UNL     1     -50.478 -50.148   0.305  1.00  0.00     0.321 C 
HETATM    3  O   UNL     1     -49.971 -50.385   1.393  1.00  0.00    -0.247 OA
HETATM    4  N   UNL     1     -51.029 -48.947  -0.088  1.00  0.00    -0.308 N 
HETATM    5  H   UNL     1     -50.534 -50.784  -1.615  1.00  0.00     0.164 HD
HETATM    6  H   UNL     1     -51.792 -49.046  -0.739  1.00  0.00     0.170 HD
ENDROOT
BRANCH   1   7
HETATM    7  C   UNL     1     -50.339 -52.502  -0.364  1.00  0.00     0.087 C 
HETATM    8  C   UNL     1     -48.975 -52.926  -0.914  1.00  0.00     0.026 C 
HETATM    9  C   UNL     1     -49.245 -53.706  -2.202  1.00  0.00     0.017 C 
HETATM   10  C   UNL     1     -50.765 -53.707  -2.398  1.00  0.00     0.049 C 
HETATM   11  C   UNL     1     -51.328 -53.477  -0.997  1.00  0.00     0.040 C 
BRANCH  10  12
HETATM   12  S   UNL     1     -51.314 -55.264  -3.171  1.00  0.00    -0.165 SA
BRANCH  12  13
HETATM   13  C   UNL     1     -52.957 -55.440  -2.411  1.00  0.00     0.070 C 
HETATM   14  C   UNL     1     -53.698 -56.595  -3.064  1.00  0.00     0.016 C 
ENDBRANCH  12  13
ENDBRANCH  10  12
ENDBRANCH   1   7
BRANCH   4  15
HETATM   15  C   UNL     1     -51.076 -47.830   0.777  1.00  0.00     0.051 A 
HETATM   16  C   UNL     1     -49.979 -46.971   0.823  1.00  0.00     0.032 A 
HETATM   17  C   UNL     1     -50.042 -45.820   1.606  1.00  0.00     0.019 A 
HETATM   18  C   UNL     1     -51.181 -45.597   2.362  1.00  0.00     0.088 A 
HETATM   19  N   UNL     1     -52.242 -46.431   2.384  1.00  0.00    -0.373 N 
HETATM   20  C   UNL     1     -52.174 -47.521   1.577  1.00  0.00     0.117 A 
ATOM     21  HN  UNL     1     -53.052 -46.252   2.976  1.00  0.00     0.164 HD
ENDBRANCH   4  15
TORSDOF 4
ENDMDL
