MODEL 1
REMARK VINA RESULT:      -6.3      0.000      0.000
REMARK  3 active torsions:
REMARK  status: ('A' for Active; 'I' for Inactive)
REMARK    1  A    between atoms: C_7  and  N_8 
REMARK    2  A    between atoms: N_8  and  C_9 
REMARK    3  A    between atoms: C_9  and  C_10 
ROOT
HETATM    1  C   UNL     1     -45.595 -54.585  14.027  1.00  0.00     0.070 C 
HETATM    2  C   UNL     1     -44.332 -54.092  13.389  1.00  0.00     0.029 A 
HETATM    3  N   UNL     1     -44.487 -53.273  12.330  1.00  0.00    -0.303 N 
ATOM      4  HN  UNL     1     -45.423 -53.075  11.975  1.00  0.00     0.186 HD
HETATM    5  N   UNL     1     -43.396 -52.705  11.728  1.00  0.00    -0.284 N 
ATOM      6  HN  UNL     1     -43.535 -52.065  10.947  1.00  0.00     0.188 HD
HETATM    7  C   UNL     1     -42.144 -52.973  12.145  1.00  0.00     0.137 A 
HETATM    8  C   UNL     1     -41.953 -53.862  13.208  1.00  0.00     0.097 A 
HETATM    9  C   UNL     1     -40.616 -54.144  13.649  1.00  0.00     0.104 C 
HETATM   10  N   UNL     1     -39.550 -54.409  14.020  1.00  0.00    -0.191 NA
HETATM   11  C   UNL     1     -43.065 -54.418  13.874  1.00  0.00    -0.014 A 
HETATM   12  C   UNL     1     -42.929 -55.285  15.098  1.00  0.00     0.052 C 
ENDROOT
BRANCH   7  13
HETATM   13  N   UNL     1     -41.061 -52.314  11.564  1.00  0.00    -0.372 N 
HETATM   14  H   UNL     1     -40.840 -52.610  10.615  1.00  0.00     0.161 HD
BRANCH  13  15
HETATM   15  C   UNL     1     -40.933 -50.869  11.771  1.00  0.00     0.153 C 
BRANCH  15  16
HETATM   16  C   UNL     1     -39.574 -50.458  12.345  1.00  0.00     0.139 C 
HETATM   17  C   UNL     1     -38.824 -49.378  11.580  1.00  0.00     0.035 C 
HETATM   18  C   UNL     1     -37.362 -49.764  11.719  1.00  0.00     0.029 C 
HETATM   19  C   UNL     1     -37.370 -51.016  12.569  1.00  0.00     0.168 C 
HETATM   20  O   UNL     1     -38.673 -51.580  12.401  1.00  0.00    -0.384 OA
ENDBRANCH  15  16
ENDBRANCH  13  15
ENDBRANCH   7  13
TORSDOF 3
ENDMDL
MODEL 2
REMARK VINA RESULT:      -6.2      1.598      2.126
REMARK  3 active torsions:
REMARK  status: ('A' for Active; 'I' for Inactive)
REMARK    1  A    between atoms: C_7  and  N_8 
REMARK    2  A    between atoms: N_8  and  C_9 
REMARK    3  A    between atoms: C_9  and  C_10 
ROOT
HETATM    1  C   UNL     1     -45.137 -54.458  13.483  1.00  0.00     0.070 C 
HETATM    2  C   UNL     1     -43.790 -53.929  13.092  1.00  0.00     0.029 A 
HETATM    3  N   UNL     1     -43.769 -53.092  12.036  1.00  0.00    -0.303 N 
ATOM      4  HN  UNL     1     -44.629 -52.904  11.520  1.00  0.00     0.186 HD
HETATM    5  N   UNL     1     -42.600 -52.492  11.651  1.00  0.00    -0.284 N 
ATOM      6  HN  UNL     1     -42.609 -51.840  10.867  1.00  0.00     0.188 HD
HETATM    7  C   UNL     1     -41.438 -52.745  12.284  1.00  0.00     0.137 A 
HETATM    8  C   UNL     1     -41.424 -53.651  13.349  1.00  0.00     0.097 A 
HETATM    9  C   UNL     1     -40.183 -53.917  14.020  1.00  0.00     0.104 C 
HETATM   10  N   UNL     1     -39.197 -54.170  14.574  1.00  0.00    -0.191 NA
HETATM   11  C   UNL     1     -42.626 -54.241  13.793  1.00  0.00    -0.014 A 
HETATM   12  C   UNL     1     -42.694 -55.130  15.007  1.00  0.00     0.052 C 
ENDROOT
BRANCH   7  13
HETATM   13  N   UNL     1     -40.283 -52.055  11.919  1.00  0.00    -0.372 N 
HETATM   14  H   UNL     1     -40.016 -52.156  10.941  1.00  0.00     0.161 HD
BRANCH  13  15
HETATM   15  C   UNL     1     -40.086 -50.702  12.444  1.00  0.00     0.153 C 
BRANCH  15  16
HETATM   16  C   UNL     1     -40.342 -49.607  11.405  1.00  0.00     0.139 C 
HETATM   17  C   UNL     1     -39.721 -48.249  11.697  1.00  0.00     0.035 C 
HETATM   18  C   UNL     1     -40.733 -47.250  11.164  1.00  0.00     0.029 C 
HETATM   19  C   UNL     1     -41.845 -48.096  10.583  1.00  0.00     0.168 C 
HETATM   20  O   UNL     1     -41.751 -49.357  11.251  1.00  0.00    -0.384 OA
ENDBRANCH  15  16
ENDBRANCH  13  15
ENDBRANCH   7  13
TORSDOF 3
ENDMDL
MODEL 3
REMARK VINA RESULT:      -5.7      1.848      2.731
REMARK  3 active torsions:
REMARK  status: ('A' for Active; 'I' for Inactive)
REMARK    1  A    between atoms: C_7  and  N_8 
REMARK    2  A    between atoms: N_8  and  C_9 
REMARK    3  A    between atoms: C_9  and  C_10 
ROOT
HETATM    1  C   UNL     1     -46.655 -54.249  14.698  1.00  0.00     0.070 C 
HETATM    2  C   UNL     1     -45.471 -53.666  13.987  1.00  0.00     0.029 A 
HETATM    3  N   UNL     1     -44.744 -54.528  13.248  1.00  0.00    -0.303 N 
ATOM      4  HN  UNL     1     -44.980 -55.521  13.249  1.00  0.00     0.186 HD
HETATM    5  N   UNL     1     -43.692 -54.079  12.495  1.00  0.00    -0.284 N 
ATOM      6  HN  UNL     1     -43.172 -54.741  11.920  1.00  0.00     0.188 HD
HETATM    7  C   UNL     1     -43.329 -52.782  12.498  1.00  0.00     0.137 A 
HETATM    8  C   UNL     1     -44.033 -51.877  13.298  1.00  0.00     0.097 A 
HETATM    9  C   UNL     1     -43.642 -50.495  13.297  1.00  0.00     0.104 C 
HETATM   10  N   UNL     1     -43.343 -49.376  13.336  1.00  0.00    -0.191 NA
HETATM   11  C   UNL     1     -45.152 -52.310  14.041  1.00  0.00    -0.014 A 
HETATM   12  C   UNL     1     -46.021 -51.363  14.825  1.00  0.00     0.052 C 
ENDROOT
BRANCH   7  13
HETATM   13  N   UNL     1     -42.306 -52.344  11.658  1.00  0.00    -0.372 N 
HETATM   14  H   UNL     1     -42.435 -51.407  11.280  1.00  0.00     0.161 HD
BRANCH  13  15
HETATM   15  C   UNL     1     -40.921 -52.638  12.036  1.00  0.00     0.153 C 
BRANCH  15  16
HETATM   16  C   UNL     1     -40.150 -51.405  12.513  1.00  0.00     0.139 C 
HETATM   17  C   UNL     1     -40.202 -50.188  11.601  1.00  0.00     0.035 C 
HETATM   18  C   UNL     1     -38.829 -49.555  11.740  1.00  0.00     0.029 C 
HETATM   19  C   UNL     1     -38.096 -50.430  12.734  1.00  0.00     0.168 C 
HETATM   20  O   UNL     1     -38.750 -51.700  12.676  1.00  0.00    -0.384 OA
ENDBRANCH  15  16
ENDBRANCH  13  15
ENDBRANCH   7  13
TORSDOF 3
ENDMDL
MODEL 4
REMARK VINA RESULT:      -5.7      2.500      3.466
REMARK  3 active torsions:
REMARK  status: ('A' for Active; 'I' for Inactive)
REMARK    1  A    between atoms: C_7  and  N_8 
REMARK    2  A    between atoms: N_8  and  C_9 
REMARK    3  A    between atoms: C_9  and  C_10 
ROOT
HETATM    1  C   UNL     1     -46.737 -51.572  14.006  1.00  0.00     0.070 C 
HETATM    2  C   UNL     1     -45.496 -52.355  13.703  1.00  0.00     0.029 A 
HETATM    3  N   UNL     1     -44.847 -52.018  12.571  1.00  0.00    -0.303 N 
ATOM      4  HN  UNL     1     -45.242 -51.311  11.951  1.00  0.00     0.186 HD
HETATM    5  N   UNL     1     -43.660 -52.619  12.248  1.00  0.00    -0.284 N 
ATOM      6  HN  UNL     1     -43.169 -52.330  11.402  1.00  0.00     0.188 HD
HETATM    7  C   UNL     1     -43.126 -53.583  13.023  1.00  0.00     0.137 A 
HETATM    8  C   UNL     1     -43.807 -53.989  14.175  1.00  0.00     0.097 A 
HETATM    9  C   UNL     1     -43.234 -55.017  14.997  1.00  0.00     0.104 C 
HETATM   10  N   UNL     1     -42.811 -55.857  15.676  1.00  0.00    -0.191 NA
HETATM   11  C   UNL     1     -45.006 -53.348  14.552  1.00  0.00    -0.014 A 
HETATM   12  C   UNL     1     -45.722 -53.656  15.840  1.00  0.00     0.052 C 
ENDROOT
BRANCH   7  13
HETATM   13  N   UNL     1     -41.876 -54.115  12.709  1.00  0.00    -0.372 N 
HETATM   14  H   UNL     1     -41.881 -54.802  11.957  1.00  0.00     0.161 HD
BRANCH  13  15
HETATM   15  C   UNL     1     -40.725 -53.211  12.669  1.00  0.00     0.153 C 
BRANCH  15  16
HETATM   16  C   UNL     1     -39.778 -53.382  13.860  1.00  0.00     0.139 C 
HETATM   17  C   UNL     1     -39.307 -54.801  14.142  1.00  0.00     0.035 C 
HETATM   18  C   UNL     1     -39.210 -54.872  15.655  1.00  0.00     0.029 C 
HETATM   19  C   UNL     1     -39.604 -53.492  16.135  1.00  0.00     0.168 C 
HETATM   20  O   UNL     1     -40.396 -52.936  15.082  1.00  0.00    -0.384 OA
ENDBRANCH  15  16
ENDBRANCH  13  15
ENDBRANCH   7  13
TORSDOF 3
ENDMDL
MODEL 5
REMARK VINA RESULT:      -5.7      2.494      5.823
REMARK  3 active torsions:
REMARK  status: ('A' for Active; 'I' for Inactive)
REMARK    1  A    between atoms: C_7  and  N_8 
REMARK    2  A    between atoms: N_8  and  C_9 
REMARK    3  A    between atoms: C_9  and  C_10 
ROOT
HETATM    1  C   UNL     1     -40.426 -45.774  11.078  1.00  0.00     0.070 C 
HETATM    2  C   UNL     1     -40.396 -47.254  11.316  1.00  0.00     0.029 A 
HETATM    3  N   UNL     1     -40.975 -48.016  10.367  1.00  0.00    -0.303 N 
ATOM      4  HN  UNL     1     -41.450 -47.572   9.580  1.00  0.00     0.186 HD
HETATM    5  N   UNL     1     -40.928 -49.381  10.451  1.00  0.00    -0.284 N 
ATOM      6  HN  UNL     1     -41.346 -49.941   9.709  1.00  0.00     0.188 HD
HETATM    7  C   UNL     1     -40.343 -50.002  11.494  1.00  0.00     0.137 A 
HETATM    8  C   UNL     1     -39.782 -49.234  12.519  1.00  0.00     0.097 A 
HETATM    9  C   UNL     1     -39.159 -49.900  13.628  1.00  0.00     0.104 C 
HETATM   10  N   UNL     1     -38.664 -50.403  14.548  1.00  0.00    -0.191 NA
HETATM   11  C   UNL     1     -39.775 -47.825  12.426  1.00  0.00    -0.014 A 
HETATM   12  C   UNL     1     -39.083 -46.948  13.436  1.00  0.00     0.052 C 
ENDROOT
BRANCH   7  13
HETATM   13  N   UNL     1     -40.240 -51.392  11.508  1.00  0.00    -0.372 N 
HETATM   14  H   UNL     1     -39.349 -51.751  11.846  1.00  0.00     0.161 HD
BRANCH  13  15
HETATM   15  C   UNL     1     -41.395 -52.171  11.962  1.00  0.00     0.153 C 
BRANCH  15  16
HETATM   16  C   UNL     1     -41.007 -53.448  12.712  1.00  0.00     0.139 C 
HETATM   17  C   UNL     1     -41.783 -53.736  13.988  1.00  0.00     0.035 C 
HETATM   18  C   UNL     1     -40.763 -54.377  14.912  1.00  0.00     0.029 C 
HETATM   19  C   UNL     1     -39.486 -54.436  14.101  1.00  0.00     0.168 C 
HETATM   20  O   UNL     1     -39.623 -53.418  13.106  1.00  0.00    -0.384 OA
ENDBRANCH  15  16
ENDBRANCH  13  15
ENDBRANCH   7  13
TORSDOF 3
ENDMDL
MODEL 6
REMARK VINA RESULT:      -5.5      1.784      2.699
REMARK  3 active torsions:
REMARK  status: ('A' for Active; 'I' for Inactive)
REMARK    1  A    between atoms: C_7  and  N_8 
REMARK    2  A    between atoms: N_8  and  C_9 
REMARK    3  A    between atoms: C_9  and  C_10 
ROOT
HETATM    1  C   UNL     1     -46.540 -51.854  13.355  1.00  0.00     0.070 C 
HETATM    2  C   UNL     1     -45.259 -52.628  13.277  1.00  0.00     0.029 A 
HETATM    3  N   UNL     1     -44.451 -52.327  12.241  1.00  0.00    -0.303 N 
ATOM      4  HN  UNL     1     -44.757 -51.654  11.538  1.00  0.00     0.186 HD
HETATM    5  N   UNL     1     -43.222 -52.920  12.126  1.00  0.00    -0.284 N 
ATOM      6  HN  UNL     1     -42.613 -52.658  11.351  1.00  0.00     0.188 HD
HETATM    7  C   UNL     1     -42.799 -53.840  13.014  1.00  0.00     0.137 A 
HETATM    8  C   UNL     1     -43.641 -54.209  14.067  1.00  0.00     0.097 A 
HETATM    9  C   UNL     1     -43.186 -55.191  15.011  1.00  0.00     0.104 C 
HETATM   10  N   UNL     1     -42.860 -55.994  15.782  1.00  0.00    -0.191 NA
HETATM   11  C   UNL     1     -44.890 -53.574  14.233  1.00  0.00    -0.014 A 
HETATM   12  C   UNL     1     -45.787 -53.841  15.412  1.00  0.00     0.052 C 
ENDROOT
BRANCH   7  13
HETATM   13  N   UNL     1     -41.511 -54.363  12.914  1.00  0.00    -0.372 N 
HETATM   14  H   UNL     1     -41.165 -54.468  11.962  1.00  0.00     0.161 HD
BRANCH  13  15
HETATM   15  C   UNL     1     -40.494 -53.891  13.858  1.00  0.00     0.153 C 
BRANCH  15  16
HETATM   16  C   UNL     1     -39.999 -52.474  13.557  1.00  0.00     0.139 C 
HETATM   17  C   UNL     1     -40.695 -51.349  14.306  1.00  0.00     0.035 C 
HETATM   18  C   UNL     1     -40.732 -50.201  13.313  1.00  0.00     0.029 C 
HETATM   19  C   UNL     1     -40.037 -50.733  12.078  1.00  0.00     0.168 C 
HETATM   20  O   UNL     1     -40.154 -52.156  12.161  1.00  0.00    -0.384 OA
ENDBRANCH  15  16
ENDBRANCH  13  15
ENDBRANCH   7  13
TORSDOF 3
ENDMDL
MODEL 7
REMARK VINA RESULT:      -5.4      3.069      5.509
REMARK  3 active torsions:
REMARK  status: ('A' for Active; 'I' for Inactive)
REMARK    1  A    between atoms: C_7  and  N_8 
REMARK    2  A    between atoms: N_8  and  C_9 
REMARK    3  A    between atoms: C_9  and  C_10 
ROOT
HETATM    1  C   UNL     1     -40.680 -56.356  17.038  1.00  0.00     0.070 C 
HETATM    2  C   UNL     1     -41.249 -55.487  15.957  1.00  0.00     0.029 A 
HETATM    3  N   UNL     1     -42.591 -55.504  15.832  1.00  0.00    -0.303 N 
ATOM      4  HN  UNL     1     -43.147 -56.131  16.414  1.00  0.00     0.186 HD
HETATM    5  N   UNL     1     -43.213 -54.684  14.929  1.00  0.00    -0.284 N 
ATOM      6  HN  UNL     1     -44.231 -54.689  14.869  1.00  0.00     0.188 HD
HETATM    7  C   UNL     1     -42.510 -53.870  14.118  1.00  0.00     0.137 A 
HETATM    8  C   UNL     1     -41.113 -53.873  14.190  1.00  0.00     0.097 A 
HETATM    9  C   UNL     1     -40.369 -53.004  13.324  1.00  0.00     0.104 C 
HETATM   10  N   UNL     1     -39.734 -52.329  12.627  1.00  0.00    -0.191 NA
HETATM   11  C   UNL     1     -40.456 -54.673  15.149  1.00  0.00    -0.014 A 
HETATM   12  C   UNL     1     -38.965 -54.631  15.357  1.00  0.00     0.052 C 
ENDROOT
BRANCH   7  13
HETATM   13  N   UNL     1     -43.177 -52.989  13.268  1.00  0.00    -0.372 N 
HETATM   14  H   UNL     1     -42.571 -52.360  12.744  1.00  0.00     0.161 HD
BRANCH  13  15
HETATM   15  C   UNL     1     -44.309 -53.496  12.489  1.00  0.00     0.153 C 
BRANCH  15  16
HETATM   16  C   UNL     1     -45.666 -53.010  13.006  1.00  0.00     0.139 C 
HETATM   17  C   UNL     1     -45.788 -51.516  13.264  1.00  0.00     0.035 C 
HETATM   18  C   UNL     1     -46.696 -51.417  14.477  1.00  0.00     0.029 C 
HETATM   19  C   UNL     1     -47.051 -52.849  14.815  1.00  0.00     0.168 C 
HETATM   20  O   UNL     1     -46.001 -53.642  14.256  1.00  0.00    -0.384 OA
ENDBRANCH  15  16
ENDBRANCH  13  15
ENDBRANCH   7  13
TORSDOF 3
ENDMDL
MODEL 8
REMARK VINA RESULT:      -5.3      3.752      5.853
REMARK  3 active torsions:
REMARK  status: ('A' for Active; 'I' for Inactive)
REMARK    1  A    between atoms: C_7  and  N_8 
REMARK    2  A    between atoms: N_8  and  C_9 
REMARK    3  A    between atoms: C_9  and  C_10 
ROOT
HETATM    1  C   UNL     1     -42.682 -47.878  10.111  1.00  0.00     0.070 C 
HETATM    2  C   UNL     1     -41.414 -48.299  10.791  1.00  0.00     0.029 A 
HETATM    3  N   UNL     1     -40.804 -49.387  10.282  1.00  0.00    -0.303 N 
ATOM      4  HN  UNL     1     -41.244 -49.904   9.520  1.00  0.00     0.186 HD
HETATM    5  N   UNL     1     -39.599 -49.804  10.780  1.00  0.00    -0.284 N 
ATOM      6  HN  UNL     1     -39.139 -50.613  10.363  1.00  0.00     0.188 HD
HETATM    7  C   UNL     1     -39.007 -49.169  11.810  1.00  0.00     0.137 A 
HETATM    8  C   UNL     1     -39.645 -48.069  12.392  1.00  0.00     0.097 A 
HETATM    9  C   UNL     1     -39.010 -47.395  13.490  1.00  0.00     0.104 C 
HETATM   10  N   UNL     1     -38.536 -46.838  14.389  1.00  0.00    -0.191 NA
HETATM   11  C   UNL     1     -40.863 -47.593  11.861  1.00  0.00    -0.014 A 
HETATM   12  C   UNL     1     -41.536 -46.344  12.365  1.00  0.00     0.052 C 
ENDROOT
BRANCH   7  13
HETATM   13  N   UNL     1     -37.743 -49.568  12.239  1.00  0.00    -0.372 N 
HETATM   14  H   UNL     1     -37.279 -48.915  12.869  1.00  0.00     0.161 HD
BRANCH  13  15
HETATM   15  C   UNL     1     -37.542 -50.973  12.603  1.00  0.00     0.153 C 
BRANCH  15  16
HETATM   16  C   UNL     1     -38.585 -51.497  13.594  1.00  0.00     0.139 C 
HETATM   17  C   UNL     1     -38.411 -51.064  15.041  1.00  0.00     0.035 C 
HETATM   18  C   UNL     1     -38.867 -52.265  15.851  1.00  0.00     0.029 C 
HETATM   19  C   UNL     1     -39.293 -53.289  14.821  1.00  0.00     0.168 C 
HETATM   20  O   UNL     1     -38.594 -52.936  13.624  1.00  0.00    -0.384 OA
ENDBRANCH  15  16
ENDBRANCH  13  15
ENDBRANCH   7  13
TORSDOF 3
ENDMDL
MODEL 9
REMARK VINA RESULT:      -5.3      5.234      6.864
REMARK  3 active torsions:
REMARK  status: ('A' for Active; 'I' for Inactive)
REMARK    1  A    between atoms: C_7  and  N_8 
REMARK    2  A    between atoms: N_8  and  C_9 
REMARK    3  A    between atoms: C_9  and  C_10 
ROOT
HETATM    1  C   UNL     1     -44.674 -47.140   8.677  1.00  0.00     0.070 C 
HETATM    2  C   UNL     1     -43.389 -47.118   9.447  1.00  0.00     0.029 A 
HETATM    3  N   UNL     1     -42.747 -48.298   9.557  1.00  0.00    -0.303 N 
ATOM      4  HN  UNL     1     -43.174 -49.145   9.180  1.00  0.00     0.186 HD
HETATM    5  N   UNL     1     -41.526 -48.368  10.172  1.00  0.00    -0.284 N 
ATOM      6  HN  UNL     1     -41.042 -49.265  10.220  1.00  0.00     0.188 HD
HETATM    7  C   UNL     1     -40.948 -47.279  10.714  1.00  0.00     0.137 A 
HETATM    8  C   UNL     1     -41.618 -46.053  10.661  1.00  0.00     0.097 A 
HETATM    9  C   UNL     1     -40.998 -44.894  11.240  1.00  0.00     0.104 C 
HETATM   10  N   UNL     1     -40.537 -43.941  11.713  1.00  0.00    -0.191 NA
HETATM   11  C   UNL     1     -42.854 -45.949   9.988  1.00  0.00    -0.014 A 
HETATM   12  C   UNL     1     -43.565 -44.636   9.792  1.00  0.00     0.052 C 
ENDROOT
BRANCH   7  13
HETATM   13  N   UNL     1     -39.668 -47.368  11.258  1.00  0.00    -0.372 N 
HETATM   14  H   UNL     1     -39.066 -46.568  11.069  1.00  0.00     0.161 HD
BRANCH  13  15
HETATM   15  C   UNL     1     -39.524 -47.900  12.616  1.00  0.00     0.153 C 
BRANCH  15  16
HETATM   16  C   UNL     1     -38.298 -48.801  12.787  1.00  0.00     0.139 C 
HETATM   17  C   UNL     1     -37.839 -49.548  11.545  1.00  0.00     0.035 C 
HETATM   18  C   UNL     1     -37.336 -50.880  12.072  1.00  0.00     0.029 C 
HETATM   19  C   UNL     1     -37.517 -50.798  13.572  1.00  0.00     0.168 C 
HETATM   20  O   UNL     1     -38.537 -49.818  13.778  1.00  0.00    -0.384 OA
ENDBRANCH  15  16
ENDBRANCH  13  15
ENDBRANCH   7  13
TORSDOF 3
ENDMDL
