MODEL 1
REMARK VINA RESULT:      -6.3      0.000      0.000
REMARK  5 active torsions:
REMARK  status: ('A' for Active; 'I' for Inactive)
REMARK    1  A    between atoms: C_2  and  N_3 
REMARK       I    between atoms: N_3  and  C_4 
REMARK       I    between atoms: C_4  and  N_5 
REMARK    2  A    between atoms: N_5  and  C_7 
REMARK    3  A    between atoms: N_9  and  C_10 
REMARK    4  A    between atoms: C_10  and  C_11 
REMARK    5  A    between atoms: C_14  and  N_18 
ROOT
HETATM    1  C   UNL     1     -41.959 -50.369  12.169  1.00  0.00    -0.024 A 
HETATM    2  C   UNL     1     -43.065 -49.962  12.908  1.00  0.00     0.014 A 
HETATM    3  C   UNL     1     -43.775 -50.897  13.665  1.00  0.00     0.049 A 
HETATM    4  C   UNL     1     -43.373 -52.231  13.690  1.00  0.00     0.103 A 
HETATM    5  N   UNL     1     -42.323 -52.635  12.943  1.00  0.00    -0.352 N 
ATOM      6  HN  UNL     1     -42.035 -53.613  12.941  1.00  0.00     0.166 HD
HETATM    7  C   UNL     1     -41.658 -51.721  12.196  1.00  0.00     0.098 A 
ENDROOT
BRANCH   1   8
HETATM    8  C   UNL     1     -41.125 -49.397  11.386  1.00  0.00     0.178 C 
BRANCH   8   9
HETATM    9  N   UNL     1     -41.959 -48.651  10.469  1.00  0.00    -0.222 N 
HETATM   10  C   UNL     1     -41.680 -47.352  10.176  1.00  0.00     0.669 C 
HETATM   11  N   UNL     1     -42.652 -46.767   9.411  1.00  0.00    -0.227 N 
HETATM   12  N   UNL     1     -40.599 -46.797  10.610  1.00  0.00    -0.227 N 
HETATM   13  H   UNL     1     -42.492 -45.796   9.177  1.00  0.00     0.177 HD
ATOM     14  HN  UNL     1     -39.954 -47.332  11.191  1.00  0.00     0.177 HD
HETATM   15  H   UNL     1     -42.946 -48.822  10.596  1.00  0.00     0.178 HD
BRANCH  11  16
HETATM   16  C   UNL     1     -43.507 -47.489   8.480  1.00  0.00     0.133 C 
HETATM   17  C   UNL     1     -44.968 -47.364   8.865  1.00  0.00     0.027 C 
ENDBRANCH  11  16
BRANCH  12  18
HETATM   18  C   UNL     1     -40.293 -45.415  10.279  1.00  0.00     0.133 C 
HETATM   19  C   UNL     1     -40.334 -44.603  11.566  1.00  0.00     0.027 C 
ENDBRANCH  12  18
ENDBRANCH   8   9
ENDBRANCH   1   8
BRANCH   4  20
HETATM   20  N   UNL     1     -44.006 -53.166  14.468  1.00  0.00    -0.363 N 
HETATM   21  C   UNL     1     -44.417 -54.445  13.880  1.00  0.00     0.150 C 
HETATM   22  C   UNL     1     -45.870 -54.759  14.260  1.00  0.00     0.188 C 
HETATM   23  O   UNL     1     -46.078 -54.685  15.683  1.00  0.00    -0.383 OA
HETATM   24  C   UNL     1     -45.764 -53.363  16.162  1.00  0.00     0.135 C 
HETATM   25  C   UNL     1     -46.080 -53.320  17.650  1.00  0.00     0.041 C 
HETATM   26  C   UNL     1     -44.281 -53.013  15.895  1.00  0.00     0.155 C 
ENDBRANCH   4  20
TORSDOF 5
ENDMDL
MODEL 2
REMARK VINA RESULT:      -6.2      3.469      8.289
REMARK  5 active torsions:
REMARK  status: ('A' for Active; 'I' for Inactive)
REMARK    1  A    between atoms: C_2  and  N_3 
REMARK       I    between atoms: N_3  and  C_4 
REMARK       I    between atoms: C_4  and  N_5 
REMARK    2  A    between atoms: N_5  and  C_7 
REMARK    3  A    between atoms: N_9  and  C_10 
REMARK    4  A    between atoms: C_10  and  C_11 
REMARK    5  A    between atoms: C_14  and  N_18 
ROOT
HETATM    1  C   UNL     1     -41.900 -50.051  12.069  1.00  0.00    -0.024 A 
HETATM    2  C   UNL     1     -42.864 -49.108  12.413  1.00  0.00     0.014 A 
HETATM    3  C   UNL     1     -42.709 -47.780  12.010  1.00  0.00     0.049 A 
HETATM    4  C   UNL     1     -41.600 -47.400  11.256  1.00  0.00     0.103 A 
HETATM    5  N   UNL     1     -40.644 -48.306  10.954  1.00  0.00    -0.352 N 
ATOM      6  HN  UNL     1     -39.820 -48.031  10.420  1.00  0.00     0.166 HD
HETATM    7  C   UNL     1     -40.797 -49.585  11.372  1.00  0.00     0.098 A 
ENDROOT
BRANCH   1   8
HETATM    8  C   UNL     1     -42.045 -51.502  12.425  1.00  0.00     0.178 C 
BRANCH   8   9
HETATM    9  N   UNL     1     -43.443 -51.874  12.444  1.00  0.00    -0.222 N 
HETATM   10  C   UNL     1     -43.860 -52.977  13.124  1.00  0.00     0.669 C 
HETATM   11  N   UNL     1     -45.182 -53.254  12.910  1.00  0.00    -0.227 N 
HETATM   12  N   UNL     1     -43.040 -53.641  13.866  1.00  0.00    -0.227 N 
HETATM   13  H   UNL     1     -45.534 -54.074  13.387  1.00  0.00     0.177 HD
ATOM     14  HN  UNL     1     -42.066 -53.346  13.933  1.00  0.00     0.177 HD
HETATM   15  H   UNL     1     -43.896 -51.769  11.548  1.00  0.00     0.178 HD
BRANCH  11  16
HETATM   16  C   UNL     1     -46.188 -52.253  12.588  1.00  0.00     0.133 C 
HETATM   17  C   UNL     1     -46.622 -51.492  13.826  1.00  0.00     0.027 C 
ENDBRANCH  11  16
BRANCH  12  18
HETATM   18  C   UNL     1     -43.493 -54.807  14.607  1.00  0.00     0.133 C 
HETATM   19  C   UNL     1     -42.394 -55.198  15.584  1.00  0.00     0.027 C 
ENDBRANCH  12  18
ENDBRANCH   8   9
ENDBRANCH   1   8
BRANCH   4  20
HETATM   20  N   UNL     1     -41.443 -46.120  10.789  1.00  0.00    -0.363 N 
HETATM   21  C   UNL     1     -40.106 -45.634  10.434  1.00  0.00     0.150 C 
HETATM   22  C   UNL     1     -39.860 -44.255  11.062  1.00  0.00     0.188 C 
HETATM   23  O   UNL     1     -40.914 -43.328  10.744  1.00  0.00    -0.383 OA
HETATM   24  C   UNL     1     -42.176 -43.826  11.232  1.00  0.00     0.135 C 
HETATM   25  C   UNL     1     -43.235 -42.771  10.942  1.00  0.00     0.041 C 
HETATM   26  C   UNL     1     -42.536 -45.176  10.567  1.00  0.00     0.155 C 
ENDBRANCH   4  20
TORSDOF 5
ENDMDL
MODEL 3
REMARK VINA RESULT:      -6.1      1.706      2.150
REMARK  5 active torsions:
REMARK  status: ('A' for Active; 'I' for Inactive)
REMARK    1  A    between atoms: C_2  and  N_3 
REMARK       I    between atoms: N_3  and  C_4 
REMARK       I    between atoms: C_4  and  N_5 
REMARK    2  A    between atoms: N_5  and  C_7 
REMARK    3  A    between atoms: N_9  and  C_10 
REMARK    4  A    between atoms: C_10  and  C_11 
REMARK    5  A    between atoms: C_14  and  N_18 
ROOT
HETATM    1  C   UNL     1     -41.496 -49.602  11.703  1.00  0.00    -0.024 A 
HETATM    2  C   UNL     1     -40.667 -50.715  11.611  1.00  0.00     0.014 A 
HETATM    3  C   UNL     1     -41.116 -51.953  12.077  1.00  0.00     0.049 A 
HETATM    4  C   UNL     1     -42.392 -52.077  12.622  1.00  0.00     0.103 A 
HETATM    5  N   UNL     1     -43.183 -50.989  12.746  1.00  0.00    -0.352 N 
ATOM      6  HN  UNL     1     -44.111 -51.069  13.162  1.00  0.00     0.166 HD
HETATM    7  C   UNL     1     -42.725 -49.791  12.312  1.00  0.00     0.098 A 
ENDROOT
BRANCH   1   8
HETATM    8  C   UNL     1     -41.087 -48.261  11.166  1.00  0.00     0.178 C 
BRANCH   8   9
HETATM    9  N   UNL     1     -42.192 -47.647  10.462  1.00  0.00    -0.222 N 
HETATM   10  C   UNL     1     -42.453 -46.319  10.601  1.00  0.00     0.669 C 
HETATM   11  N   UNL     1     -43.615 -45.947   9.981  1.00  0.00    -0.227 N 
HETATM   12  N   UNL     1     -41.651 -45.556  11.262  1.00  0.00    -0.227 N 
HETATM   13  H   UNL     1     -43.856 -44.968  10.067  1.00  0.00     0.177 HD
ATOM     14  HN  UNL     1     -40.819 -45.954  11.698  1.00  0.00     0.177 HD
HETATM   15  H   UNL     1     -43.027 -48.214  10.457  1.00  0.00     0.178 HD
BRANCH  11  16
HETATM   16  C   UNL     1     -44.172 -46.614   8.814  1.00  0.00     0.133 C 
HETATM   17  C   UNL     1     -45.529 -47.217   9.120  1.00  0.00     0.027 C 
ENDBRANCH  11  16
BRANCH  12  18
HETATM   18  C   UNL     1     -41.921 -44.134  11.392  1.00  0.00     0.133 C 
HETATM   19  C   UNL     1     -40.620 -43.384  11.148  1.00  0.00     0.027 C 
ENDBRANCH  12  18
ENDBRANCH   8   9
ENDBRANCH   1   8
BRANCH   4  20
HETATM   20  N   UNL     1     -42.892 -53.286  13.033  1.00  0.00    -0.363 N 
HETATM   21  C   UNL     1     -44.213 -53.724  12.568  1.00  0.00     0.150 C 
HETATM   22  C   UNL     1     -45.051 -54.223  13.753  1.00  0.00     0.188 C 
HETATM   23  O   UNL     1     -44.351 -55.218  14.522  1.00  0.00    -0.383 OA
HETATM   24  C   UNL     1     -43.122 -54.671  15.040  1.00  0.00     0.135 C 
HETATM   25  C   UNL     1     -42.469 -55.736  15.909  1.00  0.00     0.041 C 
HETATM   26  C   UNL     1     -42.182 -54.231  13.893  1.00  0.00     0.155 C 
ENDBRANCH   4  20
TORSDOF 5
ENDMDL
MODEL 4
REMARK VINA RESULT:      -5.7      1.300      2.463
REMARK  5 active torsions:
REMARK  status: ('A' for Active; 'I' for Inactive)
REMARK    1  A    between atoms: C_2  and  N_3 
REMARK       I    between atoms: N_3  and  C_4 
REMARK       I    between atoms: C_4  and  N_5 
REMARK    2  A    between atoms: N_5  and  C_7 
REMARK    3  A    between atoms: N_9  and  C_10 
REMARK    4  A    between atoms: C_10  and  C_11 
REMARK    5  A    between atoms: C_14  and  N_18 
ROOT
HETATM    1  C   UNL     1     -41.759 -50.028  12.036  1.00  0.00    -0.024 A 
HETATM    2  C   UNL     1     -42.571 -49.209  12.816  1.00  0.00     0.014 A 
HETATM    3  C   UNL     1     -43.430 -49.781  13.757  1.00  0.00     0.049 A 
HETATM    4  C   UNL     1     -43.469 -51.163  13.925  1.00  0.00     0.103 A 
HETATM    5  N   UNL     1     -42.710 -51.961  13.142  1.00  0.00    -0.352 N 
ATOM      6  HN  UNL     1     -42.747 -52.975  13.245  1.00  0.00     0.166 HD
HETATM    7  C   UNL     1     -41.898 -51.394  12.217  1.00  0.00     0.098 A 
ENDROOT
BRANCH   1   8
HETATM    8  C   UNL     1     -40.776 -49.465  11.051  1.00  0.00     0.178 C 
BRANCH   8   9
HETATM    9  N   UNL     1     -40.909 -48.026  10.980  1.00  0.00    -0.222 N 
HETATM   10  C   UNL     1     -41.751 -47.449  10.079  1.00  0.00     0.669 C 
HETATM   11  N   UNL     1     -41.638 -46.086  10.056  1.00  0.00    -0.227 N 
HETATM   12  N   UNL     1     -42.538 -48.173   9.357  1.00  0.00    -0.227 N 
HETATM   13  H   UNL     1     -42.238 -45.614   9.392  1.00  0.00     0.177 HD
ATOM     14  HN  UNL     1     -42.519 -49.189   9.451  1.00  0.00     0.177 HD
HETATM   15  H   UNL     1     -40.030 -47.538  11.065  1.00  0.00     0.178 HD
BRANCH  11  16
HETATM   16  C   UNL     1     -41.231 -45.278  11.196  1.00  0.00     0.133 C 
HETATM   17  C   UNL     1     -42.402 -44.996  12.117  1.00  0.00     0.027 C 
ENDBRANCH  11  16
BRANCH  12  18
HETATM   18  C   UNL     1     -43.450 -47.554   8.410  1.00  0.00     0.133 C 
HETATM   19  C   UNL     1     -44.803 -47.403   9.090  1.00  0.00     0.027 C 
ENDBRANCH  12  18
ENDBRANCH   8   9
ENDBRANCH   1   8
BRANCH   4  20
HETATM   20  N   UNL     1     -44.253 -51.758  14.880  1.00  0.00    -0.363 N 
HETATM   21  C   UNL     1     -44.073 -53.181  15.187  1.00  0.00     0.150 C 
HETATM   22  C   UNL     1     -45.432 -53.893  15.208  1.00  0.00     0.188 C 
HETATM   23  O   UNL     1     -46.369 -53.229  16.076  1.00  0.00    -0.383 OA
HETATM   24  C   UNL     1     -46.579 -51.873  15.636  1.00  0.00     0.135 C 
HETATM   25  C   UNL     1     -47.636 -51.250  16.536  1.00  0.00     0.041 C 
HETATM   26  C   UNL     1     -45.261 -51.065  15.678  1.00  0.00     0.155 C 
ENDBRANCH   4  20
TORSDOF 5
ENDMDL
MODEL 5
REMARK VINA RESULT:      -5.7      4.216      5.462
REMARK  5 active torsions:
REMARK  status: ('A' for Active; 'I' for Inactive)
REMARK    1  A    between atoms: C_2  and  N_3 
REMARK       I    between atoms: N_3  and  C_4 
REMARK       I    between atoms: C_4  and  N_5 
REMARK    2  A    between atoms: N_5  and  C_7 
REMARK    3  A    between atoms: N_9  and  C_10 
REMARK    4  A    between atoms: C_10  and  C_11 
REMARK    5  A    between atoms: C_14  and  N_18 
ROOT
HETATM    1  C   UNL     1     -41.298 -53.378  13.223  1.00  0.00    -0.024 A 
HETATM    2  C   UNL     1     -42.355 -53.891  13.968  1.00  0.00     0.014 A 
HETATM    3  C   UNL     1     -42.094 -54.603  15.141  1.00  0.00     0.049 A 
HETATM    4  C   UNL     1     -40.782 -54.792  15.571  1.00  0.00     0.103 A 
HETATM    5  N   UNL     1     -39.754 -54.328  14.828  1.00  0.00    -0.352 N 
ATOM      6  HN  UNL     1     -38.790 -54.480  15.126  1.00  0.00     0.166 HD
HETATM    7  C   UNL     1     -40.021 -53.659  13.681  1.00  0.00     0.098 A 
ENDROOT
BRANCH   1   8
HETATM    8  C   UNL     1     -41.522 -52.556  11.987  1.00  0.00     0.178 C 
BRANCH   8   9
HETATM    9  N   UNL     1     -40.400 -51.669  11.768  1.00  0.00    -0.222 N 
HETATM   10  C   UNL     1     -40.599 -50.372  11.405  1.00  0.00     0.669 C 
HETATM   11  N   UNL     1     -39.431 -49.729  11.100  1.00  0.00    -0.227 N 
HETATM   12  N   UNL     1     -41.788 -49.874  11.370  1.00  0.00    -0.227 N 
HETATM   13  H   UNL     1     -39.531 -48.764  10.814  1.00  0.00     0.177 HD
ATOM     14  HN  UNL     1     -42.590 -50.461  11.602  1.00  0.00     0.177 HD
HETATM   15  H   UNL     1     -39.638 -52.104  11.269  1.00  0.00     0.178 HD
BRANCH  11  16
HETATM   16  C   UNL     1     -38.136 -50.067  11.673  1.00  0.00     0.133 C 
HETATM   17  C   UNL     1     -37.887 -49.304  12.959  1.00  0.00     0.027 C 
ENDBRANCH  11  16
BRANCH  12  18
HETATM   18  C   UNL     1     -41.997 -48.484  11.001  1.00  0.00     0.133 C 
HETATM   19  C   UNL     1     -42.790 -47.816  12.115  1.00  0.00     0.027 C 
ENDBRANCH  12  18
ENDBRANCH   8   9
ENDBRANCH   1   8
BRANCH   4  20
HETATM   20  N   UNL     1     -40.488 -55.432  16.748  1.00  0.00    -0.363 N 
HETATM   21  C   UNL     1     -40.107 -54.649  17.927  1.00  0.00     0.150 C 
HETATM   22  C   UNL     1     -38.848 -55.243  18.572  1.00  0.00     0.188 C 
HETATM   23  O   UNL     1     -38.997 -56.650  18.838  1.00  0.00    -0.383 OA
HETATM   24  C   UNL     1     -39.252 -57.362  17.611  1.00  0.00     0.135 C 
HETATM   25  C   UNL     1     -39.317 -58.846  17.940  1.00  0.00     0.041 C 
HETATM   26  C   UNL     1     -40.564 -56.878  16.950  1.00  0.00     0.155 C 
ENDBRANCH   4  20
TORSDOF 5
ENDMDL
MODEL 6
REMARK VINA RESULT:      -5.6      3.175      8.229
REMARK  5 active torsions:
REMARK  status: ('A' for Active; 'I' for Inactive)
REMARK    1  A    between atoms: C_2  and  N_3 
REMARK       I    between atoms: N_3  and  C_4 
REMARK       I    between atoms: C_4  and  N_5 
REMARK    2  A    between atoms: N_5  and  C_7 
REMARK    3  A    between atoms: N_9  and  C_10 
REMARK    4  A    between atoms: C_10  and  C_11 
REMARK    5  A    between atoms: C_14  and  N_18 
ROOT
HETATM    1  C   UNL     1     -41.107 -51.687  12.413  1.00  0.00    -0.024 A 
HETATM    2  C   UNL     1     -40.076 -50.888  11.928  1.00  0.00     0.014 A 
HETATM    3  C   UNL     1     -40.340 -49.568  11.556  1.00  0.00     0.049 A 
HETATM    4  C   UNL     1     -41.626 -49.047  11.680  1.00  0.00     0.103 A 
HETATM    5  N   UNL     1     -42.636 -49.833  12.115  1.00  0.00    -0.352 N 
ATOM      6  HN  UNL     1     -43.583 -49.464  12.190  1.00  0.00     0.166 HD
HETATM    7  C   UNL     1     -42.369 -51.118  12.450  1.00  0.00     0.098 A 
ENDROOT
BRANCH   1   8
HETATM    8  C   UNL     1     -40.869 -53.093  12.881  1.00  0.00     0.178 C 
BRANCH   8   9
HETATM    9  N   UNL     1     -42.071 -53.629  13.484  1.00  0.00    -0.222 N 
HETATM   10  C   UNL     1     -42.000 -54.433  14.580  1.00  0.00     0.669 C 
HETATM   11  N   UNL     1     -43.215 -54.960  14.921  1.00  0.00    -0.227 N 
HETATM   12  N   UNL     1     -40.875 -54.633  15.177  1.00  0.00    -0.227 N 
HETATM   13  H   UNL     1     -43.209 -55.574  15.724  1.00  0.00     0.177 HD
ATOM     14  HN  UNL     1     -40.026 -54.197  14.817  1.00  0.00     0.177 HD
HETATM   15  H   UNL     1     -42.750 -53.944  12.807  1.00  0.00     0.178 HD
BRANCH  11  16
HETATM   16  C   UNL     1     -44.493 -54.318  14.650  1.00  0.00     0.133 C 
HETATM   17  C   UNL     1     -45.388 -55.206  13.809  1.00  0.00     0.027 C 
ENDBRANCH  11  16
BRANCH  12  18
HETATM   18  C   UNL     1     -40.805 -55.477  16.359  1.00  0.00     0.133 C 
HETATM   19  C   UNL     1     -40.624 -54.573  17.571  1.00  0.00     0.027 C 
ENDBRANCH  12  18
ENDBRANCH   8   9
ENDBRANCH   1   8
BRANCH   4  20
HETATM   20  N   UNL     1     -41.912 -47.738  11.384  1.00  0.00    -0.363 N 
HETATM   21  C   UNL     1     -43.186 -47.399  10.742  1.00  0.00     0.150 C 
HETATM   22  C   UNL     1     -42.945 -46.462   9.551  1.00  0.00     0.188 C 
HETATM   23  O   UNL     1     -42.163 -45.312   9.926  1.00  0.00    -0.383 OA
HETATM   24  C   UNL     1     -40.881 -45.729  10.437  1.00  0.00     0.135 C 
HETATM   25  C   UNL     1     -40.072 -44.476  10.738  1.00  0.00     0.041 C 
HETATM   26  C   UNL     1     -41.046 -46.606  11.701  1.00  0.00     0.155 C 
ENDBRANCH   4  20
TORSDOF 5
ENDMDL
MODEL 7
REMARK VINA RESULT:      -5.5      5.812      7.538
REMARK  5 active torsions:
REMARK  status: ('A' for Active; 'I' for Inactive)
REMARK    1  A    between atoms: C_2  and  N_3 
REMARK       I    between atoms: N_3  and  C_4 
REMARK       I    between atoms: C_4  and  N_5 
REMARK    2  A    between atoms: N_5  and  C_7 
REMARK    3  A    between atoms: N_9  and  C_10 
REMARK    4  A    between atoms: C_10  and  C_11 
REMARK    5  A    between atoms: C_14  and  N_18 
ROOT
HETATM    1  C   UNL     1     -38.869 -48.677  13.176  1.00  0.00    -0.024 A 
HETATM    2  C   UNL     1     -38.421 -47.496  13.761  1.00  0.00     0.014 A 
HETATM    3  C   UNL     1     -37.467 -47.547  14.780  1.00  0.00     0.049 A 
HETATM    4  C   UNL     1     -36.956 -48.772  15.203  1.00  0.00     0.103 A 
HETATM    5  N   UNL     1     -37.418 -49.921  14.663  1.00  0.00    -0.352 N 
ATOM      6  HN  UNL     1     -37.063 -50.822  14.981  1.00  0.00     0.166 HD
HETATM    7  C   UNL     1     -38.360 -49.858  13.692  1.00  0.00     0.098 A 
ENDROOT
BRANCH   1   8
HETATM    8  C   UNL     1     -39.849 -48.678  12.039  1.00  0.00     0.178 C 
BRANCH   8   9
HETATM    9  N   UNL     1     -39.838 -47.395  11.370  1.00  0.00    -0.222 N 
HETATM   10  C   UNL     1     -40.954 -46.925  10.749  1.00  0.00     0.669 C 
HETATM   11  N   UNL     1     -40.719 -45.773  10.050  1.00  0.00    -0.227 N 
HETATM   12  N   UNL     1     -42.076 -47.553  10.849  1.00  0.00    -0.227 N 
HETATM   13  H   UNL     1     -41.519 -45.392   9.562  1.00  0.00     0.177 HD
ATOM     14  HN  UNL     1     -42.125 -48.419  11.387  1.00  0.00     0.177 HD
HETATM   15  H   UNL     1     -38.994 -47.226  10.842  1.00  0.00     0.178 HD
BRANCH  11  16
HETATM   16  C   UNL     1     -39.692 -44.801  10.395  1.00  0.00     0.133 C 
HETATM   17  C   UNL     1     -40.250 -43.699  11.275  1.00  0.00     0.027 C 
ENDBRANCH  11  16
BRANCH  12  18
HETATM   18  C   UNL     1     -43.272 -47.039  10.202  1.00  0.00     0.133 C 
HETATM   19  C   UNL     1     -43.342 -47.635   8.803  1.00  0.00     0.027 C 
ENDBRANCH  12  18
ENDBRANCH   8   9
ENDBRANCH   1   8
BRANCH   4  20
HETATM   20  N   UNL     1     -35.974 -48.860  16.157  1.00  0.00    -0.363 N 
HETATM   21  C   UNL     1     -35.413 -50.169  16.506  1.00  0.00     0.150 C 
HETATM   22  C   UNL     1     -35.371 -50.337  18.031  1.00  0.00     0.188 C 
HETATM   23  O   UNL     1     -34.704 -49.234  18.671  1.00  0.00    -0.383 OA
HETATM   24  C   UNL     1     -35.388 -48.000  18.374  1.00  0.00     0.135 C 
HETATM   25  C   UNL     1     -34.691 -46.886  19.141  1.00  0.00     0.041 C 
HETATM   26  C   UNL     1     -35.386 -47.717  16.853  1.00  0.00     0.155 C 
ENDBRANCH   4  20
TORSDOF 5
ENDMDL
MODEL 8
REMARK VINA RESULT:      -5.4      3.644      8.040
REMARK  5 active torsions:
REMARK  status: ('A' for Active; 'I' for Inactive)
REMARK    1  A    between atoms: C_2  and  N_3 
REMARK       I    between atoms: N_3  and  C_4 
REMARK       I    between atoms: C_4  and  N_5 
REMARK    2  A    between atoms: N_5  and  C_7 
REMARK    3  A    between atoms: N_9  and  C_10 
REMARK    4  A    between atoms: C_10  and  C_11 
REMARK    5  A    between atoms: C_14  and  N_18 
ROOT
HETATM    1  C   UNL     1     -41.373 -50.968  12.180  1.00  0.00    -0.024 A 
HETATM    2  C   UNL     1     -42.229 -49.914  12.485  1.00  0.00     0.014 A 
HETATM    3  C   UNL     1     -41.716 -48.622  12.620  1.00  0.00     0.049 A 
HETATM    4  C   UNL     1     -40.355 -48.385  12.440  1.00  0.00     0.103 A 
HETATM    5  N   UNL     1     -39.517 -49.413  12.182  1.00  0.00    -0.352 N 
ATOM      6  HN  UNL     1     -38.517 -49.251  12.068  1.00  0.00     0.166 HD
HETATM    7  C   UNL     1     -40.026 -50.664  12.077  1.00  0.00     0.098 A 
ENDROOT
BRANCH   1   8
HETATM    8  C   UNL     1     -41.879 -52.365  11.967  1.00  0.00     0.178 C 
BRANCH   8   9
HETATM    9  N   UNL     1     -43.307 -52.419  12.193  1.00  0.00    -0.222 N 
HETATM   10  C   UNL     1     -43.842 -53.336  13.045  1.00  0.00     0.669 C 
HETATM   11  N   UNL     1     -45.210 -53.336  13.022  1.00  0.00    -0.227 N 
HETATM   12  N   UNL     1     -43.080 -54.092  13.761  1.00  0.00    -0.227 N 
HETATM   13  H   UNL     1     -45.652 -54.011  13.633  1.00  0.00     0.177 HD
ATOM     14  HN  UNL     1     -42.067 -54.012  13.678  1.00  0.00     0.177 HD
HETATM   15  H   UNL     1     -43.850 -52.302  11.350  1.00  0.00     0.178 HD
BRANCH  11  16
HETATM   16  C   UNL     1     -46.024 -52.173  12.702  1.00  0.00     0.133 C 
HETATM   17  C   UNL     1     -46.522 -51.487  13.959  1.00  0.00     0.027 C 
ENDBRANCH  11  16
BRANCH  12  18
HETATM   18  C   UNL     1     -43.654 -55.057  14.685  1.00  0.00     0.133 C 
HETATM   19  C   UNL     1     -43.106 -54.760  16.074  1.00  0.00     0.027 C 
ENDBRANCH  12  18
ENDBRANCH   8   9
ENDBRANCH   1   8
BRANCH   4  20
HETATM   20  N   UNL     1     -39.822 -47.123  12.503  1.00  0.00    -0.363 N 
HETATM   21  C   UNL     1     -39.056 -46.714  13.684  1.00  0.00     0.150 C 
HETATM   22  C   UNL     1     -39.534 -45.341  14.175  1.00  0.00     0.188 C 
HETATM   23  O   UNL     1     -39.529 -44.364  13.118  1.00  0.00    -0.383 OA
HETATM   24  C   UNL     1     -40.398 -44.786  12.048  1.00  0.00     0.135 C 
HETATM   25  C   UNL     1     -40.417 -43.682  11.002  1.00  0.00     0.041 C 
HETATM   26  C   UNL     1     -39.919 -46.125  11.439  1.00  0.00     0.155 C 
ENDBRANCH   4  20
TORSDOF 5
ENDMDL
MODEL 9
REMARK VINA RESULT:      -5.2      3.190      4.382
REMARK  5 active torsions:
REMARK  status: ('A' for Active; 'I' for Inactive)
REMARK    1  A    between atoms: C_2  and  N_3 
REMARK       I    between atoms: N_3  and  C_4 
REMARK       I    between atoms: C_4  and  N_5 
REMARK    2  A    between atoms: N_5  and  C_7 
REMARK    3  A    between atoms: N_9  and  C_10 
REMARK    4  A    between atoms: C_10  and  C_11 
REMARK    5  A    between atoms: C_14  and  N_18 
ROOT
HETATM    1  C   UNL     1     -42.269 -48.810  13.705  1.00  0.00    -0.024 A 
HETATM    2  C   UNL     1     -42.820 -49.170  14.931  1.00  0.00     0.014 A 
HETATM    3  C   UNL     1     -43.855 -50.107  14.976  1.00  0.00     0.049 A 
HETATM    4  C   UNL     1     -44.328 -50.689  13.802  1.00  0.00     0.103 A 
HETATM    5  N   UNL     1     -43.820 -50.311  12.608  1.00  0.00    -0.352 N 
ATOM      6  HN  UNL     1     -44.175 -50.718  11.743  1.00  0.00     0.166 HD
HETATM    7  C   UNL     1     -42.833 -49.384  12.578  1.00  0.00     0.098 A 
ENDROOT
BRANCH   1   8
HETATM    8  C   UNL     1     -41.117 -47.853  13.603  1.00  0.00     0.178 C 
BRANCH   8   9
HETATM    9  N   UNL     1     -39.912 -48.561  13.227  1.00  0.00    -0.222 N 
HETATM   10  C   UNL     1     -38.759 -48.391  13.931  1.00  0.00     0.669 C 
HETATM   11  N   UNL     1     -37.694 -49.022  13.348  1.00  0.00    -0.227 N 
HETATM   12  N   UNL     1     -38.746 -47.695  15.016  1.00  0.00    -0.227 N 
HETATM   13  H   UNL     1     -36.811 -48.914  13.831  1.00  0.00     0.177 HD
ATOM     14  HN  UNL     1     -39.606 -47.255  15.345  1.00  0.00     0.177 HD
HETATM   15  H   UNL     1     -39.763 -48.596  12.230  1.00  0.00     0.178 HD
BRANCH  11  16
HETATM   16  C   UNL     1     -37.799 -50.216  12.523  1.00  0.00     0.133 C 
HETATM   17  C   UNL     1     -37.336 -49.948  11.105  1.00  0.00     0.027 C 
ENDBRANCH  11  16
BRANCH  12  18
HETATM   18  C   UNL     1     -37.518 -47.532  15.776  1.00  0.00     0.133 C 
HETATM   19  C   UNL     1     -37.648 -48.342  17.058  1.00  0.00     0.027 C 
ENDBRANCH  12  18
ENDBRANCH   8   9
ENDBRANCH   1   8
BRANCH   4  20
HETATM   20  N   UNL     1     -45.299 -51.657  13.810  1.00  0.00    -0.363 N 
HETATM   21  C   UNL     1     -46.630 -51.348  14.342  1.00  0.00     0.150 C 
HETATM   22  C   UNL     1     -47.080 -52.448  15.313  1.00  0.00     0.188 C 
HETATM   23  O   UNL     1     -46.985 -53.756  14.719  1.00  0.00    -0.383 OA
HETATM   24  C   UNL     1     -45.623 -54.028  14.332  1.00  0.00     0.135 C 
HETATM   25  C   UNL     1     -45.569 -55.448  13.790  1.00  0.00     0.041 C 
HETATM   26  C   UNL     1     -45.132 -53.007  13.278  1.00  0.00     0.155 C 
ENDBRANCH   4  20
TORSDOF 5
ENDMDL
