MODEL 1
REMARK VINA RESULT:      -6.5      0.000      0.000
REMARK  5 active torsions:
REMARK  status: ('A' for Active; 'I' for Inactive)
REMARK    1  A    between atoms: C_7  and  O_8 
REMARK    2  A    between atoms: O_8  and  C_9 
REMARK    3  A    between atoms: C_9  and  C_10 
REMARK    4  A    between atoms: C_10  and  N_11 
REMARK       I    between atoms: N_11  and  C_12 
REMARK       I    between atoms: C_12  and  N_14 
REMARK    5  A    between atoms: N_14  and  C_15 
ROOT
HETATM    1  N   UNL     1     -41.034 -52.796  11.738  1.00  0.00    -0.341 N 
HETATM    2  C   UNL     1     -40.764 -51.484  12.067  1.00  0.00     0.321 C 
HETATM    3  O   UNL     1     -40.578 -51.110  13.219  1.00  0.00    -0.247 OA
HETATM    4  N   UNL     1     -40.818 -50.678  10.961  1.00  0.00    -0.293 N 
HETATM    5  H   UNL     1     -40.518 -53.126  10.928  1.00  0.00     0.164 HD
HETATM    6  H   UNL     1     -41.467 -50.958  10.241  1.00  0.00     0.172 HD
ENDROOT
BRANCH   1   7
HETATM    7  C   UNL     1     -41.186 -53.768  12.805  1.00  0.00     0.150 C 
BRANCH   7   8
HETATM    8  C   UNL     1     -42.649 -53.977  13.187  1.00  0.00     0.188 C 
BRANCH   8   9
HETATM    9  O   UNL     1     -43.465 -53.144  12.359  1.00  0.00    -0.384 OA
BRANCH   9  10
HETATM   10  C   UNL     1     -44.817 -53.014  12.820  1.00  0.00     0.125 C 
HETATM   11  C   UNL     1     -45.220 -51.548  13.106  1.00  0.00     0.010 C 
HETATM   12  C   UNL     1     -44.208 -50.818  14.001  1.00  0.00     0.012 C 
HETATM   13  C   UNL     1     -46.637 -51.488  13.688  1.00  0.00     0.007 C 
HETATM   14  C   UNL     1     -46.805 -52.358  14.932  1.00  0.00     0.001 C 
HETATM   15  C   UNL     1     -46.366 -53.797  14.679  1.00  0.00     0.002 C 
HETATM   16  C   UNL     1     -44.965 -53.884  14.078  1.00  0.00     0.032 C 
ENDBRANCH   9  10
ENDBRANCH   8   9
ENDBRANCH   7   8
ENDBRANCH   1   7
BRANCH   4  17
HETATM   17  C   UNL     1     -40.629 -49.314  11.041  1.00  0.00     0.132 A 
HETATM   18  C   UNL     1     -41.546 -48.284  10.730  1.00  0.00     0.084 A 
HETATM   19  C   UNL     1     -40.848 -47.127  10.966  1.00  0.00     0.076 A 
HETATM   20  C   UNL     1     -41.166 -45.693  10.868  1.00  0.00     0.079 C 
HETATM   21  O   UNL     1     -39.594 -47.440  11.389  1.00  0.00    -0.241 OA
HETATM   22  N   UNL     1     -39.472 -48.815  11.483  1.00  0.00    -0.245 N 
ATOM     23  HN  UNL     1     -38.665 -49.339  11.820  1.00  0.00     0.196 HD
ENDBRANCH   4  17
TORSDOF 5
ENDMDL
MODEL 2
REMARK VINA RESULT:      -6.3      1.907      2.684
REMARK  5 active torsions:
REMARK  status: ('A' for Active; 'I' for Inactive)
REMARK    1  A    between atoms: C_7  and  O_8 
REMARK    2  A    between atoms: O_8  and  C_9 
REMARK    3  A    between atoms: C_9  and  C_10 
REMARK    4  A    between atoms: C_10  and  N_11 
REMARK       I    between atoms: N_11  and  C_12 
REMARK       I    between atoms: C_12  and  N_14 
REMARK    5  A    between atoms: N_14  and  C_15 
ROOT
HETATM    1  N   UNL     1     -40.358 -50.627  11.284  1.00  0.00    -0.341 N 
HETATM    2  C   UNL     1     -40.863 -49.344  11.323  1.00  0.00     0.321 C 
HETATM    3  O   UNL     1     -40.887 -48.668  12.346  1.00  0.00    -0.247 OA
HETATM    4  N   UNL     1     -41.394 -48.986  10.113  1.00  0.00    -0.293 N 
HETATM    5  H   UNL     1     -39.770 -50.807  10.476  1.00  0.00     0.164 HD
HETATM    6  H   UNL     1     -41.794 -49.734   9.567  1.00  0.00     0.172 HD
ENDROOT
BRANCH   1   7
HETATM    7  C   UNL     1     -39.906 -51.239  12.520  1.00  0.00     0.150 C 
BRANCH   7   8
HETATM    8  C   UNL     1     -40.590 -52.579  12.780  1.00  0.00     0.188 C 
BRANCH   8   9
HETATM    9  O   UNL     1     -41.908 -52.539  12.226  1.00  0.00    -0.384 OA
BRANCH   9  10
HETATM   10  C   UNL     1     -42.775 -53.571  12.717  1.00  0.00     0.125 C 
HETATM   11  C   UNL     1     -44.271 -53.180  12.662  1.00  0.00     0.010 C 
HETATM   12  C   UNL     1     -44.550 -51.810  13.298  1.00  0.00     0.012 C 
HETATM   13  C   UNL     1     -45.133 -54.282  13.290  1.00  0.00     0.007 C 
HETATM   14  C   UNL     1     -44.706 -54.630  14.714  1.00  0.00     0.001 C 
HETATM   15  C   UNL     1     -43.221 -54.971  14.792  1.00  0.00     0.002 C 
HETATM   16  C   UNL     1     -42.341 -53.900  14.153  1.00  0.00     0.032 C 
ENDBRANCH   9  10
ENDBRANCH   8   9
ENDBRANCH   7   8
ENDBRANCH   1   7
BRANCH   4  17
HETATM   17  C   UNL     1     -42.002 -47.765   9.914  1.00  0.00     0.132 A 
HETATM   18  C   UNL     1     -43.331 -47.504   9.509  1.00  0.00     0.084 A 
HETATM   19  C   UNL     1     -43.406 -46.136   9.450  1.00  0.00     0.076 A 
HETATM   20  C   UNL     1     -44.470 -45.175   9.116  1.00  0.00     0.079 C 
HETATM   21  O   UNL     1     -42.202 -45.608   9.796  1.00  0.00    -0.241 OA
HETATM   22  N   UNL     1     -41.333 -46.630  10.135  1.00  0.00    -0.245 N 
ATOM     23  HN  UNL     1     -40.379 -46.536  10.482  1.00  0.00     0.196 HD
ENDBRANCH   4  17
TORSDOF 5
ENDMDL
MODEL 3
REMARK VINA RESULT:      -6.2      1.337      2.088
REMARK  5 active torsions:
REMARK  status: ('A' for Active; 'I' for Inactive)
REMARK    1  A    between atoms: C_7  and  O_8 
REMARK    2  A    between atoms: O_8  and  C_9 
REMARK    3  A    between atoms: C_9  and  C_10 
REMARK    4  A    between atoms: C_10  and  N_11 
REMARK       I    between atoms: N_11  and  C_12 
REMARK       I    between atoms: C_12  and  N_14 
REMARK    5  A    between atoms: N_14  and  C_15 
ROOT
HETATM    1  N   UNL     1     -41.785 -51.340  11.644  1.00  0.00    -0.341 N 
HETATM    2  C   UNL     1     -41.315 -50.044  11.679  1.00  0.00     0.321 C 
HETATM    3  O   UNL     1     -40.300 -49.718  12.284  1.00  0.00    -0.247 OA
HETATM    4  N   UNL     1     -42.170 -49.192  11.032  1.00  0.00    -0.293 N 
HETATM    5  H   UNL     1     -42.087 -51.637  10.720  1.00  0.00     0.164 HD
HETATM    6  H   UNL     1     -43.148 -49.439  11.062  1.00  0.00     0.172 HD
ENDROOT
BRANCH   1   7
HETATM    7  C   UNL     1     -41.097 -52.354  12.421  1.00  0.00     0.150 C 
BRANCH   7   8
HETATM    8  C   UNL     1     -42.068 -53.235  13.203  1.00  0.00     0.188 C 
BRANCH   8   9
HETATM    9  O   UNL     1     -43.398 -52.973  12.747  1.00  0.00    -0.384 OA
BRANCH   9  10
HETATM   10  C   UNL     1     -44.310 -52.613  13.793  1.00  0.00     0.125 C 
HETATM   11  C   UNL     1     -44.818 -53.833  14.598  1.00  0.00     0.010 C 
HETATM   12  C   UNL     1     -45.351 -54.957  13.698  1.00  0.00     0.012 C 
HETATM   13  C   UNL     1     -45.861 -53.392  15.632  1.00  0.00     0.007 C 
HETATM   14  C   UNL     1     -47.023 -52.620  15.011  1.00  0.00     0.001 C 
HETATM   15  C   UNL     1     -46.535 -51.441  14.174  1.00  0.00     0.002 C 
HETATM   16  C   UNL     1     -45.478 -51.849  13.151  1.00  0.00     0.032 C 
ENDBRANCH   9  10
ENDBRANCH   8   9
ENDBRANCH   7   8
ENDBRANCH   1   7
BRANCH   4  17
HETATM   17  C   UNL     1     -41.942 -47.833  10.971  1.00  0.00     0.132 A 
HETATM   18  C   UNL     1     -42.795 -46.783  11.379  1.00  0.00     0.084 A 
HETATM   19  C   UNL     1     -42.094 -45.642  11.082  1.00  0.00     0.076 A 
HETATM   20  C   UNL     1     -42.355 -44.201  11.240  1.00  0.00     0.079 C 
HETATM   21  O   UNL     1     -40.899 -45.983  10.531  1.00  0.00    -0.241 OA
HETATM   22  N   UNL     1     -40.782 -47.361  10.505  1.00  0.00    -0.245 N 
ATOM     23  HN  UNL     1     -39.977 -47.904  10.195  1.00  0.00     0.196 HD
ENDBRANCH   4  17
TORSDOF 5
ENDMDL
MODEL 4
REMARK VINA RESULT:      -5.9      3.256      5.138
REMARK  5 active torsions:
REMARK  status: ('A' for Active; 'I' for Inactive)
REMARK    1  A    between atoms: C_7  and  O_8 
REMARK    2  A    between atoms: O_8  and  C_9 
REMARK    3  A    between atoms: C_9  and  C_10 
REMARK    4  A    between atoms: C_10  and  N_11 
REMARK       I    between atoms: N_11  and  C_12 
REMARK       I    between atoms: C_12  and  N_14 
REMARK    5  A    between atoms: N_14  and  C_15 
ROOT
HETATM    1  N   UNL     1     -39.936 -48.455  11.238  1.00  0.00    -0.341 N 
HETATM    2  C   UNL     1     -41.041 -47.663  11.006  1.00  0.00     0.321 C 
HETATM    3  O   UNL     1     -41.356 -46.728  11.733  1.00  0.00    -0.247 OA
HETATM    4  N   UNL     1     -41.755 -48.116   9.929  1.00  0.00    -0.293 N 
HETATM    5  H   UNL     1     -39.394 -48.651  10.401  1.00  0.00     0.164 HD
HETATM    6  H   UNL     1     -41.731 -49.112   9.769  1.00  0.00     0.172 HD
ENDROOT
BRANCH   1   7
HETATM    7  C   UNL     1     -39.153 -48.228  12.438  1.00  0.00     0.150 C 
BRANCH   7   8
HETATM    8  C   UNL     1     -38.257 -49.419  12.773  1.00  0.00     0.188 C 
BRANCH   8   9
HETATM    9  O   UNL     1     -38.920 -50.236  13.742  1.00  0.00    -0.384 OA
BRANCH   9  10
HETATM   10  C   UNL     1     -39.223 -51.558  13.278  1.00  0.00     0.125 C 
HETATM   11  C   UNL     1     -40.637 -51.673  12.659  1.00  0.00     0.010 C 
HETATM   12  C   UNL     1     -41.730 -51.091  13.567  1.00  0.00     0.012 C 
HETATM   13  C   UNL     1     -40.933 -53.127  12.275  1.00  0.00     0.007 C 
HETATM   14  C   UNL     1     -40.762 -54.096  13.443  1.00  0.00     0.001 C 
HETATM   15  C   UNL     1     -39.389 -53.961  14.093  1.00  0.00     0.002 C 
HETATM   16  C   UNL     1     -39.059 -52.518  14.466  1.00  0.00     0.032 C 
ENDBRANCH   9  10
ENDBRANCH   8   9
ENDBRANCH   7   8
ENDBRANCH   1   7
BRANCH   4  17
HETATM   17  C   UNL     1     -42.930 -47.517   9.526  1.00  0.00     0.132 A 
HETATM   18  C   UNL     1     -44.255 -47.879   9.856  1.00  0.00     0.084 A 
HETATM   19  C   UNL     1     -45.033 -46.973   9.180  1.00  0.00     0.076 A 
HETATM   20  C   UNL     1     -46.482 -46.741   9.066  1.00  0.00     0.079 C 
HETATM   21  O   UNL     1     -44.228 -46.123   8.488  1.00  0.00    -0.241 OA
HETATM   22  N   UNL     1     -42.905 -46.434   8.743  1.00  0.00    -0.245 N 
ATOM     23  HN  UNL     1     -42.080 -45.939   8.405  1.00  0.00     0.196 HD
ENDBRANCH   4  17
TORSDOF 5
ENDMDL
MODEL 5
REMARK VINA RESULT:      -5.8      2.103      3.127
REMARK  5 active torsions:
REMARK  status: ('A' for Active; 'I' for Inactive)
REMARK    1  A    between atoms: C_7  and  O_8 
REMARK    2  A    between atoms: O_8  and  C_9 
REMARK    3  A    between atoms: C_9  and  C_10 
REMARK    4  A    between atoms: C_10  and  N_11 
REMARK       I    between atoms: N_11  and  C_12 
REMARK       I    between atoms: C_12  and  N_14 
REMARK    5  A    between atoms: N_14  and  C_15 
ROOT
HETATM    1  N   UNL     1     -43.446 -54.001  12.444  1.00  0.00    -0.341 N 
HETATM    2  C   UNL     1     -42.894 -52.741  12.542  1.00  0.00     0.321 C 
HETATM    3  O   UNL     1     -43.505 -51.779  12.992  1.00  0.00    -0.247 OA
HETATM    4  N   UNL     1     -41.636 -52.710  12.002  1.00  0.00    -0.293 N 
HETATM    5  H   UNL     1     -42.820 -54.743  12.743  1.00  0.00     0.164 HD
HETATM    6  H   UNL     1     -41.470 -53.341  11.232  1.00  0.00     0.172 HD
ENDROOT
BRANCH   1   7
HETATM    7  C   UNL     1     -44.837 -54.186  12.812  1.00  0.00     0.150 C 
BRANCH   7   8
HETATM    8  C   UNL     1     -44.994 -54.603  14.272  1.00  0.00     0.188 C 
BRANCH   8   9
HETATM    9  O   UNL     1     -46.304 -54.238  14.717  1.00  0.00    -0.384 OA
BRANCH   9  10
HETATM   10  C   UNL     1     -46.308 -53.314  15.813  1.00  0.00     0.125 C 
HETATM   11  C   UNL     1     -47.151 -52.047  15.533  1.00  0.00     0.010 C 
HETATM   12  C   UNL     1     -46.800 -51.386  14.192  1.00  0.00     0.012 C 
HETATM   13  C   UNL     1     -47.033 -51.059  16.700  1.00  0.00     0.007 C 
HETATM   14  C   UNL     1     -45.586 -50.697  17.026  1.00  0.00     0.001 C 
HETATM   15  C   UNL     1     -44.730 -51.939  17.259  1.00  0.00     0.002 C 
HETATM   16  C   UNL     1     -44.847 -52.949  16.121  1.00  0.00     0.032 C 
ENDBRANCH   9  10
ENDBRANCH   8   9
ENDBRANCH   7   8
ENDBRANCH   1   7
BRANCH   4  17
HETATM   17  C   UNL     1     -40.895 -51.549  11.939  1.00  0.00     0.132 A 
HETATM   18  C   UNL     1     -39.635 -51.282  12.520  1.00  0.00     0.084 A 
HETATM   19  C   UNL     1     -39.367 -49.984  12.167  1.00  0.00     0.076 A 
HETATM   20  C   UNL     1     -38.246 -49.060  12.408  1.00  0.00     0.079 C 
HETATM   21  O   UNL     1     -40.399 -49.502  11.424  1.00  0.00    -0.241 OA
HETATM   22  N   UNL     1     -41.337 -50.500  11.239  1.00  0.00    -0.245 N 
ATOM     23  HN  UNL     1     -42.191 -50.448  10.683  1.00  0.00     0.196 HD
ENDBRANCH   4  17
TORSDOF 5
ENDMDL
MODEL 6
REMARK VINA RESULT:      -5.8      1.875      6.637
REMARK  5 active torsions:
REMARK  status: ('A' for Active; 'I' for Inactive)
REMARK    1  A    between atoms: C_7  and  O_8 
REMARK    2  A    between atoms: O_8  and  C_9 
REMARK    3  A    between atoms: C_9  and  C_10 
REMARK    4  A    between atoms: C_10  and  N_11 
REMARK       I    between atoms: N_11  and  C_12 
REMARK       I    between atoms: C_12  and  N_14 
REMARK    5  A    between atoms: N_14  and  C_15 
ROOT
HETATM    1  N   UNL     1     -40.513 -51.207  11.751  1.00  0.00    -0.341 N 
HETATM    2  C   UNL     1     -41.684 -51.530  12.404  1.00  0.00     0.321 C 
HETATM    3  O   UNL     1     -42.051 -50.971  13.432  1.00  0.00    -0.247 OA
HETATM    4  N   UNL     1     -42.309 -52.588  11.801  1.00  0.00    -0.293 N 
HETATM    5  H   UNL     1     -40.616 -51.141  10.743  1.00  0.00     0.164 HD
HETATM    6  H   UNL     1     -41.705 -53.264  11.357  1.00  0.00     0.172 HD
ENDROOT
BRANCH   1   7
HETATM    7  C   UNL     1     -39.631 -50.219  12.345  1.00  0.00     0.150 C 
BRANCH   7   8
HETATM    8  C   UNL     1     -39.378 -49.040  11.409  1.00  0.00     0.188 C 
BRANCH   8   9
HETATM    9  O   UNL     1     -40.066 -47.893  11.917  1.00  0.00    -0.384 OA
BRANCH   9  10
HETATM   10  C   UNL     1     -40.886 -47.230  10.946  1.00  0.00     0.125 C 
HETATM   11  C   UNL     1     -41.638 -46.007  11.522  1.00  0.00     0.010 C 
HETATM   12  C   UNL     1     -42.390 -46.331  12.821  1.00  0.00     0.012 C 
HETATM   13  C   UNL     1     -42.569 -45.406  10.462  1.00  0.00     0.007 C 
HETATM   14  C   UNL     1     -43.544 -46.429   9.882  1.00  0.00     0.001 C 
HETATM   15  C   UNL     1     -42.820 -47.663   9.352  1.00  0.00     0.002 C 
HETATM   16  C   UNL     1     -41.868 -48.268  10.380  1.00  0.00     0.032 C 
ENDBRANCH   9  10
ENDBRANCH   8   9
ENDBRANCH   7   8
ENDBRANCH   1   7
BRANCH   4  17
HETATM   17  C   UNL     1     -43.477 -53.128  12.298  1.00  0.00     0.132 A 
HETATM   18  C   UNL     1     -43.648 -54.332  13.018  1.00  0.00     0.084 A 
HETATM   19  C   UNL     1     -44.999 -54.399  13.250  1.00  0.00     0.076 A 
HETATM   20  C   UNL     1     -45.880 -55.356  13.940  1.00  0.00     0.079 C 
HETATM   21  O   UNL     1     -45.600 -53.309  12.704  1.00  0.00    -0.241 OA
HETATM   22  N   UNL     1     -44.638 -52.485  12.147  1.00  0.00    -0.245 N 
ATOM     23  HN  UNL     1     -44.785 -51.574  11.713  1.00  0.00     0.196 HD
ENDBRANCH   4  17
TORSDOF 5
ENDMDL
MODEL 7
REMARK VINA RESULT:      -5.7      1.802      7.216
REMARK  5 active torsions:
REMARK  status: ('A' for Active; 'I' for Inactive)
REMARK    1  A    between atoms: C_7  and  O_8 
REMARK    2  A    between atoms: O_8  and  C_9 
REMARK    3  A    between atoms: C_9  and  C_10 
REMARK    4  A    between atoms: C_10  and  N_11 
REMARK       I    between atoms: N_11  and  C_12 
REMARK       I    between atoms: C_12  and  N_14 
REMARK    5  A    between atoms: N_14  and  C_15 
ROOT
HETATM    1  N   UNL     1     -40.602 -50.642  11.256  1.00  0.00    -0.341 N 
HETATM    2  C   UNL     1     -41.164 -51.450  12.222  1.00  0.00     0.321 C 
HETATM    3  O   UNL     1     -40.720 -51.536  13.361  1.00  0.00    -0.247 OA
HETATM    4  N   UNL     1     -42.204 -52.180  11.710  1.00  0.00    -0.293 N 
HETATM    5  H   UNL     1     -41.285 -50.117  10.718  1.00  0.00     0.164 HD
HETATM    6  H   UNL     1     -42.129 -52.432  10.736  1.00  0.00     0.172 HD
ENDROOT
BRANCH   1   7
HETATM    7  C   UNL     1     -39.383 -49.921  11.571  1.00  0.00     0.150 C 
BRANCH   7   8
HETATM    8  C   UNL     1     -39.667 -48.559  12.198  1.00  0.00     0.188 C 
BRANCH   8   9
HETATM    9  O   UNL     1     -40.088 -47.657  11.171  1.00  0.00    -0.384 OA
BRANCH   9  10
HETATM   10  C   UNL     1     -40.417 -46.345  11.649  1.00  0.00     0.125 C 
HETATM   11  C   UNL     1     -41.922 -46.179  11.969  1.00  0.00     0.010 C 
HETATM   12  C   UNL     1     -42.828 -46.643  10.819  1.00  0.00     0.012 C 
HETATM   13  C   UNL     1     -42.222 -44.732  12.378  1.00  0.00     0.007 C 
HETATM   14  C   UNL     1     -41.764 -43.713  11.337  1.00  0.00     0.001 C 
HETATM   15  C   UNL     1     -40.294 -43.896  10.975  1.00  0.00     0.002 C 
HETATM   16  C   UNL     1     -39.962 -45.334  10.585  1.00  0.00     0.032 C 
ENDBRANCH   9  10
ENDBRANCH   8   9
ENDBRANCH   7   8
ENDBRANCH   1   7
BRANCH   4  17
HETATM   17  C   UNL     1     -42.898 -53.097  12.471  1.00  0.00     0.132 A 
HETATM   18  C   UNL     1     -44.283 -53.375  12.459  1.00  0.00     0.084 A 
HETATM   19  C   UNL     1     -44.442 -54.348  13.413  1.00  0.00     0.076 A 
HETATM   20  C   UNL     1     -45.593 -55.109  13.926  1.00  0.00     0.079 C 
HETATM   21  O   UNL     1     -43.233 -54.635  13.963  1.00  0.00    -0.241 OA
HETATM   22  N   UNL     1     -42.254 -53.884  13.338  1.00  0.00    -0.245 N 
ATOM     23  HN  UNL     1     -41.249 -53.922  13.504  1.00  0.00     0.196 HD
ENDBRANCH   4  17
TORSDOF 5
ENDMDL
MODEL 8
REMARK VINA RESULT:      -5.6      1.743      2.466
REMARK  5 active torsions:
REMARK  status: ('A' for Active; 'I' for Inactive)
REMARK    1  A    between atoms: C_7  and  O_8 
REMARK    2  A    between atoms: O_8  and  C_9 
REMARK    3  A    between atoms: C_9  and  C_10 
REMARK    4  A    between atoms: C_10  and  N_11 
REMARK       I    between atoms: N_11  and  C_12 
REMARK       I    between atoms: C_12  and  N_14 
REMARK    5  A    between atoms: N_14  and  C_15 
ROOT
HETATM    1  N   UNL     1     -40.506 -50.073  10.931  1.00  0.00    -0.341 N 
HETATM    2  C   UNL     1     -40.613 -48.804  11.459  1.00  0.00     0.321 C 
HETATM    3  O   UNL     1     -40.535 -48.573  12.661  1.00  0.00    -0.247 OA
HETATM    4  N   UNL     1     -40.893 -47.885  10.483  1.00  0.00    -0.293 N 
HETATM    5  H   UNL     1     -39.921 -50.120  10.102  1.00  0.00     0.164 HD
HETATM    6  H   UNL     1     -41.441 -48.221   9.705  1.00  0.00     0.172 HD
ENDROOT
BRANCH   1   7
HETATM    7  C   UNL     1     -40.377 -51.199  11.837  1.00  0.00     0.150 C 
BRANCH   7   8
HETATM    8  C   UNL     1     -41.656 -52.031  11.905  1.00  0.00     0.188 C 
BRANCH   8   9
HETATM    9  O   UNL     1     -42.505 -51.488  12.921  1.00  0.00    -0.384 OA
BRANCH   9  10
HETATM   10  C   UNL     1     -43.862 -51.944  12.848  1.00  0.00     0.125 C 
HETATM   11  C   UNL     1     -44.844 -51.050  13.642  1.00  0.00     0.010 C 
HETATM   12  C   UNL     1     -44.376 -50.789  15.081  1.00  0.00     0.012 C 
HETATM   13  C   UNL     1     -46.256 -51.646  13.605  1.00  0.00     0.007 C 
HETATM   14  C   UNL     1     -46.304 -53.091  14.098  1.00  0.00     0.001 C 
HETATM   15  C   UNL     1     -45.306 -53.975  13.356  1.00  0.00     0.002 C 
HETATM   16  C   UNL     1     -43.895 -53.393  13.359  1.00  0.00     0.032 C 
ENDBRANCH   9  10
ENDBRANCH   8   9
ENDBRANCH   7   8
ENDBRANCH   1   7
BRANCH   4  17
HETATM   17  C   UNL     1     -41.093 -46.552  10.770  1.00  0.00     0.132 A 
HETATM   18  C   UNL     1     -40.184 -45.480  10.627  1.00  0.00     0.084 A 
HETATM   19  C   UNL     1     -40.879 -44.383  11.069  1.00  0.00     0.076 A 
HETATM   20  C   UNL     1     -40.571 -42.948  11.195  1.00  0.00     0.079 C 
HETATM   21  O   UNL     1     -42.124 -44.770  11.454  1.00  0.00    -0.241 OA
HETATM   22  N   UNL     1     -42.276 -46.125  11.221  1.00  0.00    -0.245 N 
ATOM     23  HN  UNL     1     -43.118 -46.684  11.364  1.00  0.00     0.196 HD
ENDBRANCH   4  17
TORSDOF 5
ENDMDL
MODEL 9
REMARK VINA RESULT:      -5.5      3.211      5.807
REMARK  5 active torsions:
REMARK  status: ('A' for Active; 'I' for Inactive)
REMARK    1  A    between atoms: C_7  and  O_8 
REMARK    2  A    between atoms: O_8  and  C_9 
REMARK    3  A    between atoms: C_9  and  C_10 
REMARK    4  A    between atoms: C_10  and  N_11 
REMARK       I    between atoms: N_11  and  C_12 
REMARK       I    between atoms: C_12  and  N_14 
REMARK    5  A    between atoms: N_14  and  C_15 
ROOT
HETATM    1  N   UNL     1     -40.480 -51.936  13.201  1.00  0.00    -0.341 N 
HETATM    2  C   UNL     1     -40.280 -53.207  13.696  1.00  0.00     0.321 C 
HETATM    3  O   UNL     1     -40.898 -54.186  13.292  1.00  0.00    -0.247 OA
HETATM    4  N   UNL     1     -39.381 -53.199  14.730  1.00  0.00    -0.293 N 
HETATM    5  H   UNL     1     -39.618 -51.427  13.030  1.00  0.00     0.164 HD
HETATM    6  H   UNL     1     -39.367 -52.363  15.295  1.00  0.00     0.172 HD
ENDROOT
BRANCH   1   7
HETATM    7  C   UNL     1     -41.523 -51.726  12.214  1.00  0.00     0.150 C 
BRANCH   7   8
HETATM    8  C   UNL     1     -42.811 -51.201  12.843  1.00  0.00     0.188 C 
BRANCH   8   9
HETATM    9  O   UNL     1     -43.834 -52.189  12.691  1.00  0.00    -0.384 OA
BRANCH   9  10
HETATM   10  C   UNL     1     -44.698 -52.310  13.830  1.00  0.00     0.125 C 
HETATM   11  C   UNL     1     -46.144 -52.709  13.452  1.00  0.00     0.010 C 
HETATM   12  C   UNL     1     -46.733 -51.824  12.343  1.00  0.00     0.012 C 
HETATM   13  C   UNL     1     -47.036 -52.723  14.699  1.00  0.00     0.007 C 
HETATM   14  C   UNL     1     -47.011 -51.400  15.461  1.00  0.00     0.001 C 
HETATM   15  C   UNL     1     -45.587 -50.969  15.800  1.00  0.00     0.002 C 
HETATM   16  C   UNL     1     -44.672 -50.968  14.578  1.00  0.00     0.032 C 
ENDBRANCH   9  10
ENDBRANCH   8   9
ENDBRANCH   7   8
ENDBRANCH   1   7
BRANCH   4  17
HETATM   17  C   UNL     1     -39.050 -54.345  15.421  1.00  0.00     0.132 A 
HETATM   18  C   UNL     1     -39.426 -54.715  16.732  1.00  0.00     0.084 A 
HETATM   19  C   UNL     1     -38.816 -55.928  16.930  1.00  0.00     0.076 A 
HETATM   20  C   UNL     1     -38.773 -56.891  18.043  1.00  0.00     0.079 C 
HETATM   21  O   UNL     1     -38.118 -56.263  15.813  1.00  0.00    -0.241 OA
HETATM   22  N   UNL     1     -38.304 -55.292  14.846  1.00  0.00    -0.245 N 
ATOM     23  HN  UNL     1     -37.947 -55.297  13.891  1.00  0.00     0.196 HD
ENDBRANCH   4  17
TORSDOF 5
ENDMDL
