MODEL 1
REMARK VINA RESULT:      -7.0      0.000      0.000
REMARK  4 active torsions:
REMARK  status: ('A' for Active; 'I' for Inactive)
REMARK    1  A    between atoms: N_11  and  C_12 
REMARK    2  A    between atoms: C_12  and  C_13 
REMARK    3  A    between atoms: C_13  and  O_14 
REMARK    4  A    between atoms: C_13  and  C_15 
ROOT
HETATM    1  C   UNL     1     -40.312 -51.645  12.927  1.00  0.00     0.167 C 
ENDROOT
BRANCH   1   2
HETATM    2  N   UNL     1     -40.118 -50.343  12.302  1.00  0.00    -0.332 N 
HETATM    3  C   UNL     1     -38.930 -49.865  11.787  1.00  0.00     0.080 A 
HETATM    4  C   UNL     1     -37.633 -50.584  11.864  1.00  0.00     0.089 C 
HETATM    5  N   UNL     1     -39.105 -48.692  11.215  1.00  0.00    -0.344 N 
HETATM    6  C   UNL     1     -40.436 -48.400  11.355  1.00  0.00     0.060 A 
ATOM      7  HN  UNL     1     -38.395 -48.117  10.761  1.00  0.00     0.167 HD
HETATM    8  C   UNL     1     -41.145 -47.273  10.914  1.00  0.00     0.032 A 
HETATM    9  C   UNL     1     -41.103 -49.416  12.035  1.00  0.00     0.062 A 
HETATM   10  C   UNL     1     -42.516 -47.192  11.179  1.00  0.00     0.002 A 
HETATM   11  C   UNL     1     -43.169 -48.217  11.865  1.00  0.00     0.002 A 
HETATM   12  C   UNL     1     -42.478 -49.354  12.305  1.00  0.00     0.032 A 
ENDBRANCH   1   2
BRANCH   1  13
HETATM   13  C   UNL     1     -41.241 -52.578  12.126  1.00  0.00     0.172 C 
BRANCH  13  14
HETATM   14  O   UNL     1     -40.484 -53.550  11.394  1.00  0.00    -0.389 OA
HETATM   15  H   UNL     1     -40.380 -54.342  11.948  1.00  0.00     0.210 HD
ENDBRANCH  13  14
BRANCH  13  16
HETATM   16  C   UNL     1     -42.302 -53.346  12.894  1.00  0.00     0.013 A 
HETATM   17  C   UNL     1     -43.654 -53.151  12.548  1.00  0.00     0.055 A 
HETATM   18  C   UNL     1     -44.671 -53.817  13.231  1.00  0.00     0.117 A 
HETATM   19  F   UNL     1     -45.946 -53.615  12.875  1.00  0.00    -0.206 F 
HETATM   20  C   UNL     1     -44.382 -54.685  14.274  1.00  0.00     0.045 A 
HETATM   21  C   UNL     1     -43.053 -54.892  14.634  1.00  0.00     0.046 A 
HETATM   22  C   UNL     1     -42.032 -54.230  13.948  1.00  0.00     0.125 A 
HETATM   23  F   UNL     1     -40.772 -54.474  14.331  1.00  0.00    -0.205 F 
ENDBRANCH  13  16
ENDBRANCH   1  13
TORSDOF 4
ENDMDL
MODEL 2
REMARK VINA RESULT:      -6.8      0.780      1.899
REMARK  4 active torsions:
REMARK  status: ('A' for Active; 'I' for Inactive)
REMARK    1  A    between atoms: N_11  and  C_12 
REMARK    2  A    between atoms: C_12  and  C_13 
REMARK    3  A    between atoms: C_13  and  O_14 
REMARK    4  A    between atoms: C_13  and  C_15 
ROOT
HETATM    1  C   UNL     1     -40.189 -51.692  12.957  1.00  0.00     0.167 C 
ENDROOT
BRANCH   1   2
HETATM    2  N   UNL     1     -40.050 -50.382  12.332  1.00  0.00    -0.332 N 
HETATM    3  C   UNL     1     -38.888 -49.864  11.796  1.00  0.00     0.080 A 
HETATM    4  C   UNL     1     -37.567 -50.540  11.846  1.00  0.00     0.089 C 
HETATM    5  N   UNL     1     -39.113 -48.696  11.231  1.00  0.00    -0.344 N 
HETATM    6  C   UNL     1     -40.450 -48.448  11.397  1.00  0.00     0.060 A 
ATOM      7  HN  UNL     1     -38.431 -48.097  10.764  1.00  0.00     0.167 HD
HETATM    8  C   UNL     1     -41.204 -47.344  10.973  1.00  0.00     0.032 A 
HETATM    9  C   UNL     1     -41.070 -49.487  12.086  1.00  0.00     0.062 A 
HETATM   10  C   UNL     1     -42.572 -47.309  11.265  1.00  0.00     0.002 A 
HETATM   11  C   UNL     1     -43.177 -48.357  11.960  1.00  0.00     0.002 A 
HETATM   12  C   UNL     1     -42.440 -49.472  12.383  1.00  0.00     0.032 A 
ENDBRANCH   1   2
BRANCH   1  13
HETATM   13  C   UNL     1     -41.202 -52.607  12.243  1.00  0.00     0.172 C 
BRANCH  13  14
HETATM   14  O   UNL     1     -40.536 -53.514  11.355  1.00  0.00    -0.389 OA
HETATM   15  H   UNL     1     -41.126 -53.704  10.607  1.00  0.00     0.210 HD
ENDBRANCH  13  14
BRANCH  13  16
HETATM   16  C   UNL     1     -42.122 -53.450  13.109  1.00  0.00     0.013 A 
HETATM   17  C   UNL     1     -41.571 -54.118  14.221  1.00  0.00     0.055 A 
HETATM   18  C   UNL     1     -42.365 -54.919  15.040  1.00  0.00     0.117 A 
HETATM   19  F   UNL     1     -41.814 -55.536  16.093  1.00  0.00    -0.206 F 
HETATM   20  C   UNL     1     -43.718 -55.087  14.781  1.00  0.00     0.045 A 
HETATM   21  C   UNL     1     -44.283 -54.439  13.686  1.00  0.00     0.046 A 
HETATM   22  C   UNL     1     -43.490 -53.631  12.867  1.00  0.00     0.125 A 
HETATM   23  F   UNL     1     -44.089 -53.024  11.834  1.00  0.00    -0.205 F 
ENDBRANCH  13  16
ENDBRANCH   1  13
TORSDOF 4
ENDMDL
MODEL 3
REMARK VINA RESULT:      -6.5      2.819      5.987
REMARK  4 active torsions:
REMARK  status: ('A' for Active; 'I' for Inactive)
REMARK    1  A    between atoms: N_11  and  C_12 
REMARK    2  A    between atoms: C_12  and  C_13 
REMARK    3  A    between atoms: C_13  and  O_14 
REMARK    4  A    between atoms: C_13  and  C_15 
ROOT
HETATM    1  C   UNL     1     -42.390 -51.950  12.143  1.00  0.00     0.167 C 
ENDROOT
BRANCH   1   2
HETATM    2  N   UNL     1     -43.403 -51.924  13.191  1.00  0.00    -0.332 N 
HETATM    3  C   UNL     1     -43.759 -50.821  13.941  1.00  0.00     0.080 A 
HETATM    4  C   UNL     1     -43.098 -49.494  13.848  1.00  0.00     0.089 C 
HETATM    5  N   UNL     1     -44.764 -51.104  14.744  1.00  0.00    -0.344 N 
HETATM    6  C   UNL     1     -45.074 -52.417  14.509  1.00  0.00     0.060 A 
ATOM      7  HN  UNL     1     -45.218 -50.474  15.406  1.00  0.00     0.167 HD
HETATM    8  C   UNL     1     -46.074 -53.208  15.095  1.00  0.00     0.032 A 
HETATM    9  C   UNL     1     -44.238 -52.964  13.539  1.00  0.00     0.062 A 
HETATM   10  C   UNL     1     -46.201 -54.542  14.694  1.00  0.00     0.002 A 
HETATM   11  C   UNL     1     -45.353 -55.076  13.723  1.00  0.00     0.002 A 
HETATM   12  C   UNL     1     -44.354 -54.298  13.121  1.00  0.00     0.032 A 
ENDBRANCH   1   2
BRANCH   1  13
HETATM   13  C   UNL     1     -41.030 -52.495  12.619  1.00  0.00     0.172 C 
BRANCH  13  14
HETATM   14  O   UNL     1     -40.549 -53.515  11.735  1.00  0.00    -0.389 OA
HETATM   15  H   UNL     1     -41.048 -54.331  11.903  1.00  0.00     0.210 HD
ENDBRANCH  13  14
BRANCH  13  16
HETATM   16  C   UNL     1     -39.894 -51.502  12.790  1.00  0.00     0.013 A 
HETATM   17  C   UNL     1     -39.945 -50.293  12.066  1.00  0.00     0.055 A 
HETATM   18  C   UNL     1     -38.922 -49.352  12.171  1.00  0.00     0.117 A 
HETATM   19  F   UNL     1     -39.002 -48.210  11.476  1.00  0.00    -0.206 F 
HETATM   20  C   UNL     1     -37.821 -49.581  12.985  1.00  0.00     0.045 A 
HETATM   21  C   UNL     1     -37.749 -50.769  13.707  1.00  0.00     0.046 A 
HETATM   22  C   UNL     1     -38.776 -51.711  13.608  1.00  0.00     0.125 A 
HETATM   23  F   UNL     1     -38.658 -52.831  14.333  1.00  0.00    -0.205 F 
ENDBRANCH  13  16
ENDBRANCH   1  13
TORSDOF 4
ENDMDL
MODEL 4
REMARK VINA RESULT:      -6.5      3.046      4.612
REMARK  4 active torsions:
REMARK  status: ('A' for Active; 'I' for Inactive)
REMARK    1  A    between atoms: N_11  and  C_12 
REMARK    2  A    between atoms: C_12  and  C_13 
REMARK    3  A    between atoms: C_13  and  O_14 
REMARK    4  A    between atoms: C_13  and  C_15 
ROOT
HETATM    1  C   UNL     1     -41.955 -51.768  12.572  1.00  0.00     0.167 C 
ENDROOT
BRANCH   1   2
HETATM    2  N   UNL     1     -42.769 -51.437  13.735  1.00  0.00    -0.332 N 
HETATM    3  C   UNL     1     -42.306 -50.888  14.914  1.00  0.00     0.080 A 
HETATM    4  C   UNL     1     -40.874 -50.622  15.209  1.00  0.00     0.089 C 
HETATM    5  N   UNL     1     -43.302 -50.629  15.734  1.00  0.00    -0.344 N 
HETATM    6  C   UNL     1     -44.440 -51.012  15.075  1.00  0.00     0.060 A 
ATOM      7  HN  UNL     1     -43.240 -50.225  16.669  1.00  0.00     0.167 HD
HETATM    8  C   UNL     1     -45.775 -50.941  15.502  1.00  0.00     0.032 A 
HETATM    9  C   UNL     1     -44.142 -51.525  13.816  1.00  0.00     0.062 A 
HETATM   10  C   UNL     1     -46.782 -51.402  14.647  1.00  0.00     0.002 A 
HETATM   11  C   UNL     1     -46.466 -51.917  13.390  1.00  0.00     0.002 A 
HETATM   12  C   UNL     1     -45.139 -51.987  12.944  1.00  0.00     0.032 A 
ENDBRANCH   1   2
BRANCH   1  13
HETATM   13  C   UNL     1     -41.638 -53.272  12.454  1.00  0.00     0.172 C 
BRANCH  13  14
HETATM   14  O   UNL     1     -40.554 -53.497  11.543  1.00  0.00    -0.389 OA
HETATM   15  H   UNL     1     -39.790 -52.973  11.835  1.00  0.00     0.210 HD
ENDBRANCH  13  14
BRANCH  13  16
HETATM   16  C   UNL     1     -41.291 -54.021  13.729  1.00  0.00     0.013 A 
HETATM   17  C   UNL     1     -39.936 -54.116  14.104  1.00  0.00     0.055 A 
HETATM   18  C   UNL     1     -39.558 -54.805  15.255  1.00  0.00     0.117 A 
HETATM   19  F   UNL     1     -38.263 -54.873  15.588  1.00  0.00    -0.206 F 
HETATM   20  C   UNL     1     -40.504 -55.424  16.060  1.00  0.00     0.045 A 
HETATM   21  C   UNL     1     -41.849 -55.345  15.708  1.00  0.00     0.046 A 
HETATM   22  C   UNL     1     -42.230 -54.649  14.558  1.00  0.00     0.125 A 
HETATM   23  F   UNL     1     -43.538 -54.598  14.273  1.00  0.00    -0.205 F 
ENDBRANCH  13  16
ENDBRANCH   1  13
TORSDOF 4
ENDMDL
MODEL 5
REMARK VINA RESULT:      -6.4      2.605      3.857
REMARK  4 active torsions:
REMARK  status: ('A' for Active; 'I' for Inactive)
REMARK    1  A    between atoms: N_11  and  C_12 
REMARK    2  A    between atoms: C_12  and  C_13 
REMARK    3  A    between atoms: C_13  and  O_14 
REMARK    4  A    between atoms: C_13  and  C_15 
ROOT
HETATM    1  C   UNL     1     -42.328 -52.419  12.439  1.00  0.00     0.167 C 
ENDROOT
BRANCH   1   2
HETATM    2  N   UNL     1     -40.978 -52.260  12.965  1.00  0.00    -0.332 N 
HETATM    3  C   UNL     1     -40.356 -53.109  13.858  1.00  0.00     0.080 A 
HETATM    4  C   UNL     1     -41.006 -54.288  14.488  1.00  0.00     0.089 C 
HETATM    5  N   UNL     1     -39.111 -52.736  14.070  1.00  0.00    -0.344 N 
HETATM    6  C   UNL     1     -38.914 -51.624  13.296  1.00  0.00     0.060 A 
ATOM      7  HN  UNL     1     -38.431 -53.184  14.685  1.00  0.00     0.167 HD
HETATM    8  C   UNL     1     -37.759 -50.842  13.147  1.00  0.00     0.032 A 
HETATM    9  C   UNL     1     -40.068 -51.295  12.589  1.00  0.00     0.062 A 
HETATM   10  C   UNL     1     -37.797 -49.736  12.292  1.00  0.00     0.002 A 
HETATM   11  C   UNL     1     -38.962 -49.418  11.594  1.00  0.00     0.002 A 
HETATM   12  C   UNL     1     -40.124 -50.193  11.723  1.00  0.00     0.032 A 
ENDBRANCH   1   2
BRANCH   1  13
HETATM   13  C   UNL     1     -43.402 -51.701  13.279  1.00  0.00     0.172 C 
BRANCH  13  14
HETATM   14  O   UNL     1     -44.018 -50.646  12.530  1.00  0.00    -0.389 OA
HETATM   15  H   UNL     1     -43.324 -50.142  12.075  1.00  0.00     0.210 HD
ENDBRANCH  13  14
BRANCH  13  16
HETATM   16  C   UNL     1     -44.531 -52.542  13.849  1.00  0.00     0.013 A 
HETATM   17  C   UNL     1     -44.601 -53.903  13.487  1.00  0.00     0.055 A 
HETATM   18  C   UNL     1     -45.624 -54.719  13.966  1.00  0.00     0.117 A 
HETATM   19  F   UNL     1     -45.661 -56.009  13.610  1.00  0.00    -0.206 F 
HETATM   20  C   UNL     1     -46.608 -54.213  14.805  1.00  0.00     0.045 A 
HETATM   21  C   UNL     1     -46.560 -52.872  15.174  1.00  0.00     0.046 A 
HETATM   22  C   UNL     1     -45.531 -52.053  14.700  1.00  0.00     0.125 A 
HETATM   23  F   UNL     1     -45.529 -50.773  15.094  1.00  0.00    -0.205 F 
ENDBRANCH  13  16
ENDBRANCH   1  13
TORSDOF 4
ENDMDL
MODEL 6
REMARK VINA RESULT:      -6.2      2.660      5.696
REMARK  4 active torsions:
REMARK  status: ('A' for Active; 'I' for Inactive)
REMARK    1  A    between atoms: N_11  and  C_12 
REMARK    2  A    between atoms: C_12  and  C_13 
REMARK    3  A    between atoms: C_13  and  O_14 
REMARK    4  A    between atoms: C_13  and  C_15 
ROOT
HETATM    1  C   UNL     1     -40.812 -52.880  12.000  1.00  0.00     0.167 C 
ENDROOT
BRANCH   1   2
HETATM    2  N   UNL     1     -41.493 -53.645  13.036  1.00  0.00    -0.332 N 
HETATM    3  C   UNL     1     -40.885 -54.288  14.096  1.00  0.00     0.080 A 
HETATM    4  C   UNL     1     -39.415 -54.364  14.299  1.00  0.00     0.089 C 
HETATM    5  N   UNL     1     -41.782 -54.817  14.901  1.00  0.00    -0.344 N 
HETATM    6  C   UNL     1     -43.002 -54.509  14.359  1.00  0.00     0.060 A 
ATOM      7  HN  UNL     1     -41.605 -55.348  15.755  1.00  0.00     0.167 HD
HETATM    8  C   UNL     1     -44.284 -54.829  14.830  1.00  0.00     0.032 A 
HETATM    9  C   UNL     1     -42.858 -53.774  13.186  1.00  0.00     0.062 A 
HETATM   10  C   UNL     1     -45.397 -54.405  14.096  1.00  0.00     0.002 A 
HETATM   11  C   UNL     1     -45.236 -53.672  12.920  1.00  0.00     0.002 A 
HETATM   12  C   UNL     1     -43.962 -53.336  12.440  1.00  0.00     0.032 A 
ENDBRANCH   1   2
BRANCH   1  13
HETATM   13  C   UNL     1     -40.317 -51.501  12.481  1.00  0.00     0.172 C 
BRANCH  13  14
HETATM   14  O   UNL     1     -39.094 -51.140  11.828  1.00  0.00    -0.389 OA
HETATM   15  H   UNL     1     -38.352 -51.512  12.332  1.00  0.00     0.210 HD
ENDBRANCH  13  14
BRANCH  13  16
HETATM   16  C   UNL     1     -41.258 -50.320  12.320  1.00  0.00     0.013 A 
HETATM   17  C   UNL     1     -41.057 -49.447  11.232  1.00  0.00     0.055 A 
HETATM   18  C   UNL     1     -41.879 -48.337  11.044  1.00  0.00     0.117 A 
HETATM   19  F   UNL     1     -41.668 -47.529   9.997  1.00  0.00    -0.206 F 
HETATM   20  C   UNL     1     -42.912 -48.055  11.927  1.00  0.00     0.045 A 
HETATM   21  C   UNL     1     -43.127 -48.902  13.010  1.00  0.00     0.046 A 
HETATM   22  C   UNL     1     -42.308 -50.019  13.197  1.00  0.00     0.125 A 
HETATM   23  F   UNL     1     -42.567 -50.805  14.251  1.00  0.00    -0.205 F 
ENDBRANCH  13  16
ENDBRANCH   1  13
TORSDOF 4
ENDMDL
MODEL 7
REMARK VINA RESULT:      -6.2      2.879      5.925
REMARK  4 active torsions:
REMARK  status: ('A' for Active; 'I' for Inactive)
REMARK    1  A    between atoms: N_11  and  C_12 
REMARK    2  A    between atoms: C_12  and  C_13 
REMARK    3  A    between atoms: C_13  and  O_14 
REMARK    4  A    between atoms: C_13  and  C_15 
ROOT
HETATM    1  C   UNL     1     -40.410 -49.485  12.924  1.00  0.00     0.167 C 
ENDROOT
BRANCH   1   2
HETATM    2  N   UNL     1     -40.403 -50.936  13.065  1.00  0.00    -0.332 N 
HETATM    3  C   UNL     1     -39.297 -51.714  13.343  1.00  0.00     0.080 A 
HETATM    4  C   UNL     1     -37.912 -51.190  13.465  1.00  0.00     0.089 C 
HETATM    5  N   UNL     1     -39.638 -52.977  13.491  1.00  0.00    -0.344 N 
HETATM    6  C   UNL     1     -40.994 -53.025  13.311  1.00  0.00     0.060 A 
ATOM      7  HN  UNL     1     -39.018 -53.761  13.698  1.00  0.00     0.167 HD
HETATM    8  C   UNL     1     -41.856 -54.130  13.371  1.00  0.00     0.032 A 
HETATM    9  C   UNL     1     -41.509 -51.760  13.039  1.00  0.00     0.062 A 
HETATM   10  C   UNL     1     -43.223 -53.934  13.145  1.00  0.00     0.002 A 
HETATM   11  C   UNL     1     -43.722 -52.660  12.871  1.00  0.00     0.002 A 
HETATM   12  C   UNL     1     -42.876 -51.543  12.816  1.00  0.00     0.032 A 
ENDBRANCH   1   2
BRANCH   1  13
HETATM   13  C   UNL     1     -40.270 -49.011  11.464  1.00  0.00     0.172 C 
BRANCH  13  14
HETATM   14  O   UNL     1     -40.401 -50.110  10.554  1.00  0.00    -0.389 OA
HETATM   15  H   UNL     1     -39.832 -50.836  10.861  1.00  0.00     0.210 HD
ENDBRANCH  13  14
BRANCH  13  16
HETATM   16  C   UNL     1     -41.224 -47.934  10.979  1.00  0.00     0.013 A 
HETATM   17  C   UNL     1     -42.580 -48.272  10.796  1.00  0.00     0.055 A 
HETATM   18  C   UNL     1     -43.498 -47.329  10.336  1.00  0.00     0.117 A 
HETATM   19  F   UNL     1     -44.781 -47.678  10.178  1.00  0.00    -0.206 F 
HETATM   20  C   UNL     1     -43.101 -46.033  10.038  1.00  0.00     0.045 A 
HETATM   21  C   UNL     1     -41.766 -45.677  10.209  1.00  0.00     0.046 A 
HETATM   22  C   UNL     1     -40.846 -46.619  10.676  1.00  0.00     0.125 A 
HETATM   23  F   UNL     1     -39.577 -46.219  10.830  1.00  0.00    -0.205 F 
ENDBRANCH  13  16
ENDBRANCH   1  13
TORSDOF 4
ENDMDL
MODEL 8
REMARK VINA RESULT:      -6.1      2.842      5.840
REMARK  4 active torsions:
REMARK  status: ('A' for Active; 'I' for Inactive)
REMARK    1  A    between atoms: N_11  and  C_12 
REMARK    2  A    between atoms: C_12  and  C_13 
REMARK    3  A    between atoms: C_13  and  O_14 
REMARK    4  A    between atoms: C_13  and  C_15 
ROOT
HETATM    1  C   UNL     1     -41.006 -51.087  13.469  1.00  0.00     0.167 C 
ENDROOT
BRANCH   1   2
HETATM    2  N   UNL     1     -41.957 -52.187  13.369  1.00  0.00    -0.332 N 
HETATM    3  C   UNL     1     -41.644 -53.531  13.409  1.00  0.00     0.080 A 
HETATM    4  C   UNL     1     -40.261 -54.068  13.481  1.00  0.00     0.089 C 
HETATM    5  N   UNL     1     -42.735 -54.268  13.380  1.00  0.00    -0.344 N 
HETATM    6  C   UNL     1     -43.782 -53.387  13.325  1.00  0.00     0.060 A 
ATOM      7  HN  UNL     1     -42.789 -55.287  13.395  1.00  0.00     0.167 HD
HETATM    8  C   UNL     1     -45.159 -53.653  13.286  1.00  0.00     0.032 A 
HETATM    9  C   UNL     1     -43.330 -52.071  13.316  1.00  0.00     0.062 A 
HETATM   10  C   UNL     1     -46.052 -52.578  13.228  1.00  0.00     0.002 A 
HETATM   11  C   UNL     1     -45.583 -51.264  13.215  1.00  0.00     0.002 A 
HETATM   12  C   UNL     1     -44.210 -50.980  13.263  1.00  0.00     0.032 A 
ENDBRANCH   1   2
BRANCH   1  13
HETATM   13  C   UNL     1     -40.447 -50.634  12.106  1.00  0.00     0.172 C 
BRANCH  13  14
HETATM   14  O   UNL     1     -40.991 -51.425  11.042  1.00  0.00    -0.389 OA
HETATM   15  H   UNL     1     -41.328 -52.257  11.414  1.00  0.00     0.210 HD
ENDBRANCH  13  14
BRANCH  13  16
HETATM   16  C   UNL     1     -40.648 -49.182  11.710  1.00  0.00     0.013 A 
HETATM   17  C   UNL     1     -41.897 -48.797  11.183  1.00  0.00     0.055 A 
HETATM   18  C   UNL     1     -42.132 -47.482  10.787  1.00  0.00     0.117 A 
HETATM   19  F   UNL     1     -43.331 -47.145  10.295  1.00  0.00    -0.206 F 
HETATM   20  C   UNL     1     -41.141 -46.516  10.892  1.00  0.00     0.045 A 
HETATM   21  C   UNL     1     -39.899 -46.874  11.408  1.00  0.00     0.046 A 
HETATM   22  C   UNL     1     -39.663 -48.191  11.812  1.00  0.00     0.125 A 
HETATM   23  F   UNL     1     -38.453 -48.476  12.309  1.00  0.00    -0.205 F 
ENDBRANCH  13  16
ENDBRANCH   1  13
TORSDOF 4
ENDMDL
MODEL 9
REMARK VINA RESULT:      -6.1      3.112      5.770
REMARK  4 active torsions:
REMARK  status: ('A' for Active; 'I' for Inactive)
REMARK    1  A    between atoms: N_11  and  C_12 
REMARK    2  A    between atoms: C_12  and  C_13 
REMARK    3  A    between atoms: C_13  and  O_14 
REMARK    4  A    between atoms: C_13  and  C_15 
ROOT
HETATM    1  C   UNL     1     -41.673 -52.305  15.246  1.00  0.00     0.167 C 
ENDROOT
BRANCH   1   2
HETATM    2  N   UNL     1     -42.593 -52.641  14.166  1.00  0.00    -0.332 N 
HETATM    3  C   UNL     1     -42.327 -53.501  13.119  1.00  0.00     0.080 A 
HETATM    4  C   UNL     1     -41.018 -54.163  12.888  1.00  0.00     0.089 C 
HETATM    5  N   UNL     1     -43.392 -53.657  12.359  1.00  0.00    -0.344 N 
HETATM    6  C   UNL     1     -44.374 -52.888  12.924  1.00  0.00     0.060 A 
ATOM      7  HN  UNL     1     -43.469 -54.234  11.521  1.00  0.00     0.167 HD
HETATM    8  C   UNL     1     -45.702 -52.707  12.512  1.00  0.00     0.032 A 
HETATM    9  C   UNL     1     -43.906 -52.234  14.061  1.00  0.00     0.062 A 
HETATM   10  C   UNL     1     -46.530 -51.859  13.255  1.00  0.00     0.002 A 
HETATM   11  C   UNL     1     -46.045 -51.208  14.390  1.00  0.00     0.002 A 
HETATM   12  C   UNL     1     -44.722 -51.384  14.821  1.00  0.00     0.032 A 
ENDBRANCH   1   2
BRANCH   1  13
HETATM   13  C   UNL     1     -41.039 -50.909  15.099  1.00  0.00     0.172 C 
BRANCH  13  14
HETATM   14  O   UNL     1     -40.231 -50.591  16.239  1.00  0.00    -0.389 OA
HETATM   15  H   UNL     1     -40.476 -49.706  16.556  1.00  0.00     0.210 HD
ENDBRANCH  13  14
BRANCH  13  16
HETATM   16  C   UNL     1     -40.178 -50.651  13.875  1.00  0.00     0.013 A 
HETATM   17  C   UNL     1     -38.825 -51.044  13.912  1.00  0.00     0.055 A 
HETATM   18  C   UNL     1     -37.983 -50.818  12.824  1.00  0.00     0.117 A 
HETATM   19  F   UNL     1     -36.704 -51.208  12.887  1.00  0.00    -0.206 F 
HETATM   20  C   UNL     1     -38.451 -50.193  11.677  1.00  0.00     0.045 A 
HETATM   21  C   UNL     1     -39.783 -49.794  11.619  1.00  0.00     0.046 A 
HETATM   22  C   UNL     1     -40.631 -50.025  12.706  1.00  0.00     0.125 A 
HETATM   23  F   UNL     1     -41.905 -49.630  12.591  1.00  0.00    -0.205 F 
ENDBRANCH  13  16
ENDBRANCH   1  13
TORSDOF 4
ENDMDL
