MODEL 1
REMARK VINA RESULT:      -5.5      0.000      0.000
REMARK  5 active torsions:
REMARK  status: ('A' for Active; 'I' for Inactive)
REMARK    1  A    between atoms: C_4  and  N_5 
REMARK       I    between atoms: N_5  and  C_6 
REMARK    2  A    between atoms: C_6  and  C_8 
REMARK    3  A    between atoms: C_8  and  O_9 
REMARK    4  A    between atoms: O_9  and  C_10 
REMARK    5  A    between atoms: C_10  and  C_11 
ROOT
HETATM    1  N   UNL     1     -43.995 -54.376  14.868  1.00  0.00    -0.324 N 
HETATM    2  C   UNL     1     -45.080 -54.641  14.042  1.00  0.00     0.245 C 
HETATM    3  O   UNL     1     -45.055 -54.801  12.825  1.00  0.00    -0.271 OA
HETATM    4  H   UNL     1     -44.216 -54.289  15.855  1.00  0.00     0.169 HD
ENDROOT
BRANCH   1   5
HETATM    5  C   UNL     1     -42.695 -54.130  14.487  1.00  0.00     0.050 A 
HETATM    6  C   UNL     1     -42.336 -53.280  13.514  1.00  0.00     0.123 A 
HETATM    7  N   UNL     1     -41.011 -53.032  13.195  1.00  0.00    -0.327 N 
HETATM    8  C   UNL     1     -40.697 -52.051  12.172  1.00  0.00     0.159 C 
HETATM    9  C   UNL     1     -39.957 -53.651  13.861  1.00  0.00     0.247 A 
HETATM   10  C   UNL     1     -40.352 -54.609  14.930  1.00  0.00     0.077 A 
HETATM   11  O   UNL     1     -38.768 -53.455  13.632  1.00  0.00    -0.268 OA
HETATM   12  C   UNL     1     -41.645 -54.818  15.217  1.00  0.00     0.036 A 
ENDBRANCH   1   5
BRANCH   2  13
HETATM   13  C   UNL     1     -46.395 -54.705  14.814  1.00  0.00     0.270 C 
BRANCH  13  14
HETATM   14  O   UNL     1     -47.242 -53.593  14.541  1.00  0.00    -0.382 OA
BRANCH  14  15
HETATM   15  C   UNL     1     -46.844 -52.433  15.278  1.00  0.00     0.172 C 
BRANCH  15  16
HETATM   16  C   UNL     1     -46.668 -51.311  14.309  1.00  0.00     0.009 A 
HETATM   17  C   UNL     1     -46.532 -51.596  12.835  1.00  0.00     0.007 A 
HETATM   18  C   UNL     1     -45.348 -51.088  13.614  1.00  0.00     0.007 A 
ENDBRANCH  15  16
ENDBRANCH  14  15
ENDBRANCH  13  14
ENDBRANCH   2  13
TORSDOF 5
ENDMDL
MODEL 2
REMARK VINA RESULT:      -5.5      5.356      6.406
REMARK  5 active torsions:
REMARK  status: ('A' for Active; 'I' for Inactive)
REMARK    1  A    between atoms: C_4  and  N_5 
REMARK       I    between atoms: N_5  and  C_6 
REMARK    2  A    between atoms: C_6  and  C_8 
REMARK    3  A    between atoms: C_8  and  O_9 
REMARK    4  A    between atoms: O_9  and  C_10 
REMARK    5  A    between atoms: C_10  and  C_11 
ROOT
HETATM    1  N   UNL     1     -41.282 -49.157  10.935  1.00  0.00    -0.324 N 
HETATM    2  C   UNL     1     -41.990 -48.043  11.368  1.00  0.00     0.245 C 
HETATM    3  O   UNL     1     -41.700 -47.306  12.306  1.00  0.00    -0.271 OA
HETATM    4  H   UNL     1     -41.677 -49.633  10.130  1.00  0.00     0.169 HD
ENDROOT
BRANCH   1   5
HETATM    5  C   UNL     1     -40.177 -49.727  11.527  1.00  0.00     0.050 A 
HETATM    6  C   UNL     1     -40.226 -50.712  12.437  1.00  0.00     0.123 A 
HETATM    7  N   UNL     1     -39.084 -51.284  12.974  1.00  0.00    -0.327 N 
HETATM    8  C   UNL     1     -39.214 -52.389  13.906  1.00  0.00     0.159 C 
HETATM    9  C   UNL     1     -37.805 -50.877  12.608  1.00  0.00     0.247 A 
HETATM   10  C   UNL     1     -37.747 -49.772  11.612  1.00  0.00     0.077 A 
HETATM   11  O   UNL     1     -36.763 -51.360  13.037  1.00  0.00    -0.268 OA
HETATM   12  C   UNL     1     -38.873 -49.246  11.108  1.00  0.00     0.036 A 
ENDBRANCH   1   5
BRANCH   2  13
HETATM   13  C   UNL     1     -43.252 -47.802  10.543  1.00  0.00     0.270 C 
BRANCH  13  14
HETATM   14  O   UNL     1     -42.991 -47.769   9.144  1.00  0.00    -0.382 OA
BRANCH  14  15
HETATM   15  C   UNL     1     -44.182 -47.518   8.391  1.00  0.00     0.172 C 
BRANCH  15  16
HETATM   16  C   UNL     1     -45.350 -47.685   9.306  1.00  0.00     0.009 A 
HETATM   17  C   UNL     1     -46.588 -48.399   8.832  1.00  0.00     0.007 A 
HETATM   18  C   UNL     1     -46.626 -46.915   9.079  1.00  0.00     0.007 A 
ENDBRANCH  15  16
ENDBRANCH  14  15
ENDBRANCH  13  14
ENDBRANCH   2  13
TORSDOF 5
ENDMDL
MODEL 3
REMARK VINA RESULT:      -5.3      4.738      6.096
REMARK  5 active torsions:
REMARK  status: ('A' for Active; 'I' for Inactive)
REMARK    1  A    between atoms: C_4  and  N_5 
REMARK       I    between atoms: N_5  and  C_6 
REMARK    2  A    between atoms: C_6  and  C_8 
REMARK    3  A    between atoms: C_8  and  O_9 
REMARK    4  A    between atoms: O_9  and  C_10 
REMARK    5  A    between atoms: C_10  and  C_11 
ROOT
HETATM    1  N   UNL     1     -41.976 -49.955  11.590  1.00  0.00    -0.324 N 
HETATM    2  C   UNL     1     -42.689 -50.363  12.710  1.00  0.00     0.245 C 
HETATM    3  O   UNL     1     -43.338 -49.649  13.468  1.00  0.00    -0.271 OA
HETATM    4  H   UNL     1     -41.511 -50.700  11.079  1.00  0.00     0.169 HD
ENDROOT
BRANCH   1   5
HETATM    5  C   UNL     1     -41.761 -48.665  11.160  1.00  0.00     0.050 A 
HETATM    6  C   UNL     1     -42.624 -47.958  10.415  1.00  0.00     0.123 A 
HETATM    7  N   UNL     1     -42.383 -46.646  10.042  1.00  0.00    -0.327 N 
HETATM    8  C   UNL     1     -43.392 -45.924   9.290  1.00  0.00     0.159 C 
HETATM    9  C   UNL     1     -41.226 -45.968  10.414  1.00  0.00     0.247 A 
HETATM   10  C   UNL     1     -40.257 -46.755  11.225  1.00  0.00     0.077 A 
HETATM   11  O   UNL     1     -40.970 -44.803  10.127  1.00  0.00    -0.268 OA
HETATM   12  C   UNL     1     -40.527 -48.021  11.574  1.00  0.00     0.036 A 
ENDBRANCH   1   5
BRANCH   2  13
HETATM   13  C   UNL     1     -42.578 -51.867  12.952  1.00  0.00     0.270 C 
BRANCH  13  14
HETATM   14  O   UNL     1     -43.788 -52.557  12.657  1.00  0.00    -0.382 OA
BRANCH  14  15
HETATM   15  C   UNL     1     -44.493 -52.918  13.848  1.00  0.00     0.172 C 
BRANCH  15  16
HETATM   16  C   UNL     1     -45.947 -52.671  13.615  1.00  0.00     0.009 A 
HETATM   17  C   UNL     1     -46.389 -51.543  12.718  1.00  0.00     0.007 A 
HETATM   18  C   UNL     1     -46.629 -51.460  14.201  1.00  0.00     0.007 A 
ENDBRANCH  15  16
ENDBRANCH  14  15
ENDBRANCH  13  14
ENDBRANCH   2  13
TORSDOF 5
ENDMDL
MODEL 4
REMARK VINA RESULT:      -5.2      5.037      7.649
REMARK  5 active torsions:
REMARK  status: ('A' for Active; 'I' for Inactive)
REMARK    1  A    between atoms: C_4  and  N_5 
REMARK       I    between atoms: N_5  and  C_6 
REMARK    2  A    between atoms: C_6  and  C_8 
REMARK    3  A    between atoms: C_8  and  O_9 
REMARK    4  A    between atoms: O_9  and  C_10 
REMARK    5  A    between atoms: C_10  and  C_11 
ROOT
HETATM    1  N   UNL     1     -41.422 -49.824  11.078  1.00  0.00    -0.324 N 
HETATM    2  C   UNL     1     -41.918 -50.485  12.194  1.00  0.00     0.245 C 
HETATM    3  O   UNL     1     -42.589 -49.996  13.099  1.00  0.00    -0.271 OA
HETATM    4  H   UNL     1     -40.898 -50.405  10.430  1.00  0.00     0.169 HD
ENDROOT
BRANCH   1   5
HETATM    5  C   UNL     1     -41.482 -48.475  10.809  1.00  0.00     0.050 A 
HETATM    6  C   UNL     1     -42.459 -47.884  10.103  1.00  0.00     0.123 A 
HETATM    7  N   UNL     1     -42.500 -46.515   9.895  1.00  0.00    -0.327 N 
HETATM    8  C   UNL     1     -43.622 -45.940   9.175  1.00  0.00     0.159 C 
HETATM    9  C   UNL     1     -41.531 -45.655  10.402  1.00  0.00     0.247 A 
HETATM   10  C   UNL     1     -40.436 -46.309  11.170  1.00  0.00     0.077 A 
HETATM   11  O   UNL     1     -41.529 -44.437  10.263  1.00  0.00    -0.268 OA
HETATM   12  C   UNL     1     -40.432 -47.637  11.358  1.00  0.00     0.036 A 
ENDBRANCH   1   5
BRANCH   2  13
HETATM   13  C   UNL     1     -41.524 -51.959  12.218  1.00  0.00     0.270 C 
BRANCH  13  14
HETATM   14  O   UNL     1     -40.113 -52.147  12.188  1.00  0.00    -0.382 OA
BRANCH  14  15
HETATM   15  C   UNL     1     -39.515 -51.858  13.456  1.00  0.00     0.172 C 
BRANCH  15  16
HETATM   16  C   UNL     1     -38.540 -50.743  13.261  1.00  0.00     0.009 A 
HETATM   17  C   UNL     1     -37.988 -50.450  11.890  1.00  0.00     0.007 A 
HETATM   18  C   UNL     1     -37.092 -51.027  12.953  1.00  0.00     0.007 A 
ENDBRANCH  15  16
ENDBRANCH  14  15
ENDBRANCH  13  14
ENDBRANCH   2  13
TORSDOF 5
ENDMDL
MODEL 5
REMARK VINA RESULT:      -5.1      4.662      6.673
REMARK  5 active torsions:
REMARK  status: ('A' for Active; 'I' for Inactive)
REMARK    1  A    between atoms: C_4  and  N_5 
REMARK       I    between atoms: N_5  and  C_6 
REMARK    2  A    between atoms: C_6  and  C_8 
REMARK    3  A    between atoms: C_8  and  O_9 
REMARK    4  A    between atoms: O_9  and  C_10 
REMARK    5  A    between atoms: C_10  and  C_11 
ROOT
HETATM    1  N   UNL     1     -40.957 -50.018  11.110  1.00  0.00    -0.324 N 
HETATM    2  C   UNL     1     -41.528 -50.761  12.135  1.00  0.00     0.245 C 
HETATM    3  O   UNL     1     -42.343 -50.365  12.964  1.00  0.00    -0.271 OA
HETATM    4  H   UNL     1     -40.311 -50.528  10.516  1.00  0.00     0.169 HD
ENDROOT
BRANCH   1   5
HETATM    5  C   UNL     1     -41.099 -48.668  10.876  1.00  0.00     0.050 A 
HETATM    6  C   UNL     1     -42.096 -48.121  10.165  1.00  0.00     0.123 A 
HETATM    7  N   UNL     1     -42.222 -46.753   9.992  1.00  0.00    -0.327 N 
HETATM    8  C   UNL     1     -43.363 -46.230   9.263  1.00  0.00     0.159 C 
HETATM    9  C   UNL     1     -41.320 -45.848  10.543  1.00  0.00     0.247 A 
HETATM   10  C   UNL     1     -40.202 -46.452  11.318  1.00  0.00     0.077 A 
HETATM   11  O   UNL     1     -41.394 -44.628  10.437  1.00  0.00    -0.268 OA
HETATM   12  C   UNL     1     -40.116 -47.781  11.471  1.00  0.00     0.036 A 
ENDBRANCH   1   5
BRANCH   2  13
HETATM   13  C   UNL     1     -41.016 -52.199  12.165  1.00  0.00     0.270 C 
BRANCH  13  14
HETATM   14  O   UNL     1     -41.158 -52.802  13.446  1.00  0.00    -0.382 OA
BRANCH  14  15
HETATM   15  C   UNL     1     -41.901 -54.023  13.375  1.00  0.00     0.172 C 
BRANCH  15  16
HETATM   16  C   UNL     1     -43.300 -53.736  13.811  1.00  0.00     0.009 A 
HETATM   17  C   UNL     1     -44.190 -54.853  14.290  1.00  0.00     0.007 A 
HETATM   18  C   UNL     1     -44.476 -54.178  12.976  1.00  0.00     0.007 A 
ENDBRANCH  15  16
ENDBRANCH  14  15
ENDBRANCH  13  14
ENDBRANCH   2  13
TORSDOF 5
ENDMDL
MODEL 6
REMARK VINA RESULT:      -5.1      2.855      4.064
REMARK  5 active torsions:
REMARK  status: ('A' for Active; 'I' for Inactive)
REMARK    1  A    between atoms: C_4  and  N_5 
REMARK       I    between atoms: N_5  and  C_6 
REMARK    2  A    between atoms: C_6  and  C_8 
REMARK    3  A    between atoms: C_8  and  O_9 
REMARK    4  A    between atoms: O_9  and  C_10 
REMARK    5  A    between atoms: C_10  and  C_11 
ROOT
HETATM    1  N   UNL     1     -42.767 -51.708  12.132  1.00  0.00    -0.324 N 
HETATM    2  C   UNL     1     -42.911 -52.770  13.016  1.00  0.00     0.245 C 
HETATM    3  O   UNL     1     -42.315 -52.928  14.078  1.00  0.00    -0.271 OA
HETATM    4  H   UNL     1     -43.360 -51.748  11.309  1.00  0.00     0.169 HD
ENDROOT
BRANCH   1   5
HETATM    5  C   UNL     1     -41.858 -50.676  12.206  1.00  0.00     0.050 A 
HETATM    6  C   UNL     1     -40.553 -50.791  11.914  1.00  0.00     0.123 A 
HETATM    7  N   UNL     1     -39.684 -49.714  11.961  1.00  0.00    -0.327 N 
HETATM    8  C   UNL     1     -38.299 -49.901  11.569  1.00  0.00     0.159 C 
HETATM    9  C   UNL     1     -40.102 -48.435  12.317  1.00  0.00     0.247 A 
HETATM   10  C   UNL     1     -41.545 -48.308  12.659  1.00  0.00     0.077 A 
HETATM   11  O   UNL     1     -39.380 -47.444  12.357  1.00  0.00    -0.268 OA
HETATM   12  C   UNL     1     -42.359 -49.371  12.595  1.00  0.00     0.036 A 
ENDBRANCH   1   5
BRANCH   2  13
HETATM   13  C   UNL     1     -43.921 -53.803  12.523  1.00  0.00     0.270 C 
BRANCH  13  14
HETATM   14  O   UNL     1     -45.200 -53.234  12.262  1.00  0.00    -0.382 OA
BRANCH  14  15
HETATM   15  C   UNL     1     -46.023 -53.227  13.432  1.00  0.00     0.172 C 
BRANCH  15  16
HETATM   16  C   UNL     1     -46.360 -51.807  13.750  1.00  0.00     0.009 A 
HETATM   17  C   UNL     1     -45.556 -51.049  14.775  1.00  0.00     0.007 A 
HETATM   18  C   UNL     1     -46.979 -51.437  15.075  1.00  0.00     0.007 A 
ENDBRANCH  15  16
ENDBRANCH  14  15
ENDBRANCH  13  14
ENDBRANCH   2  13
TORSDOF 5
ENDMDL
MODEL 7
REMARK VINA RESULT:      -5.0      4.023      6.053
REMARK  5 active torsions:
REMARK  status: ('A' for Active; 'I' for Inactive)
REMARK    1  A    between atoms: C_4  and  N_5 
REMARK       I    between atoms: N_5  and  C_6 
REMARK    2  A    between atoms: C_6  and  C_8 
REMARK    3  A    between atoms: C_8  and  O_9 
REMARK    4  A    between atoms: O_9  and  C_10 
REMARK    5  A    between atoms: C_10  and  C_11 
ROOT
HETATM    1  N   UNL     1     -43.837 -50.422  12.824  1.00  0.00    -0.324 N 
HETATM    2  C   UNL     1     -43.267 -49.367  13.527  1.00  0.00     0.245 C 
HETATM    3  O   UNL     1     -43.111 -49.294  14.742  1.00  0.00    -0.271 OA
HETATM    4  H   UNL     1     -43.866 -50.302  11.816  1.00  0.00     0.169 HD
ENDROOT
BRANCH   1   5
HETATM    5  C   UNL     1     -44.437 -51.546  13.344  1.00  0.00     0.050 A 
HETATM    6  C   UNL     1     -43.782 -52.661  13.703  1.00  0.00     0.123 A 
HETATM    7  N   UNL     1     -44.424 -53.752  14.263  1.00  0.00    -0.327 N 
HETATM    8  C   UNL     1     -43.640 -54.899  14.685  1.00  0.00     0.159 C 
HETATM    9  C   UNL     1     -45.797 -53.771  14.492  1.00  0.00     0.247 A 
HETATM   10  C   UNL     1     -46.530 -52.543  14.078  1.00  0.00     0.077 A 
HETATM   11  O   UNL     1     -46.412 -54.703  15.000  1.00  0.00    -0.268 OA
HETATM   12  C   UNL     1     -45.874 -51.502  13.546  1.00  0.00     0.036 A 
ENDBRANCH   1   5
BRANCH   2  13
HETATM   13  C   UNL     1     -42.841 -48.223  12.611  1.00  0.00     0.270 C 
BRANCH  13  14
HETATM   14  O   UNL     1     -43.454 -48.293  11.328  1.00  0.00    -0.382 OA
BRANCH  14  15
HETATM   15  C   UNL     1     -42.532 -47.968  10.284  1.00  0.00     0.172 C 
BRANCH  15  16
HETATM   16  C   UNL     1     -43.261 -47.160   9.261  1.00  0.00     0.009 A 
HETATM   17  C   UNL     1     -44.680 -47.508   8.891  1.00  0.00     0.007 A 
HETATM   18  C   UNL     1     -43.570 -47.732   7.900  1.00  0.00     0.007 A 
ENDBRANCH  15  16
ENDBRANCH  14  15
ENDBRANCH  13  14
ENDBRANCH   2  13
TORSDOF 5
ENDMDL
MODEL 8
REMARK VINA RESULT:      -4.9      6.344      7.102
REMARK  5 active torsions:
REMARK  status: ('A' for Active; 'I' for Inactive)
REMARK    1  A    between atoms: C_4  and  N_5 
REMARK       I    between atoms: N_5  and  C_6 
REMARK    2  A    between atoms: C_6  and  C_8 
REMARK    3  A    between atoms: C_8  and  O_9 
REMARK    4  A    between atoms: O_9  and  C_10 
REMARK    5  A    between atoms: C_10  and  C_11 
ROOT
HETATM    1  N   UNL     1     -40.620 -48.048  11.039  1.00  0.00    -0.324 N 
HETATM    2  C   UNL     1     -41.048 -46.730  10.935  1.00  0.00     0.245 C 
HETATM    3  O   UNL     1     -40.654 -45.775  11.598  1.00  0.00    -0.271 OA
HETATM    4  H   UNL     1     -41.058 -48.696  10.391  1.00  0.00     0.169 HD
ENDROOT
BRANCH   1   5
HETATM    5  C   UNL     1     -39.752 -48.574  11.969  1.00  0.00     0.050 A 
HETATM    6  C   UNL     1     -39.937 -48.518  13.297  1.00  0.00     0.123 A 
HETATM    7  N   UNL     1     -39.057 -49.100  14.194  1.00  0.00    -0.327 N 
HETATM    8  C   UNL     1     -39.356 -49.055  15.614  1.00  0.00     0.159 C 
HETATM    9  C   UNL     1     -37.917 -49.784  13.782  1.00  0.00     0.247 A 
HETATM   10  C   UNL     1     -37.700 -49.833  12.310  1.00  0.00     0.077 A 
HETATM   11  O   UNL     1     -37.116 -50.333  14.531  1.00  0.00    -0.268 OA
HETATM   12  C   UNL     1     -38.577 -49.264  11.470  1.00  0.00     0.036 A 
ENDBRANCH   1   5
BRANCH   2  13
HETATM   13  C   UNL     1     -42.133 -46.555   9.875  1.00  0.00     0.270 C 
BRANCH  13  14
HETATM   14  O   UNL     1     -43.197 -47.488  10.025  1.00  0.00    -0.382 OA
BRANCH  14  15
HETATM   15  C   UNL     1     -44.158 -47.368   8.971  1.00  0.00     0.172 C 
BRANCH  15  16
HETATM   16  C   UNL     1     -45.502 -47.695   9.533  1.00  0.00     0.009 A 
HETATM   17  C   UNL     1     -46.523 -48.412   8.688  1.00  0.00     0.007 A 
HETATM   18  C   UNL     1     -46.736 -46.969   9.060  1.00  0.00     0.007 A 
ENDBRANCH  15  16
ENDBRANCH  14  15
ENDBRANCH  13  14
ENDBRANCH   2  13
TORSDOF 5
ENDMDL
MODEL 9
REMARK VINA RESULT:      -4.9      2.472      6.585
REMARK  5 active torsions:
REMARK  status: ('A' for Active; 'I' for Inactive)
REMARK    1  A    between atoms: C_4  and  N_5 
REMARK       I    between atoms: N_5  and  C_6 
REMARK    2  A    between atoms: C_6  and  C_8 
REMARK    3  A    between atoms: C_8  and  O_9 
REMARK    4  A    between atoms: O_9  and  C_10 
REMARK    5  A    between atoms: C_10  and  C_11 
ROOT
HETATM    1  N   UNL     1     -43.251 -51.654  12.821  1.00  0.00    -0.324 N 
HETATM    2  C   UNL     1     -42.438 -52.754  12.580  1.00  0.00     0.245 C 
HETATM    3  O   UNL     1     -42.582 -53.887  13.031  1.00  0.00    -0.271 OA
HETATM    4  H   UNL     1     -42.974 -50.801  12.344  1.00  0.00     0.169 HD
ENDROOT
BRANCH   1   5
HETATM    5  C   UNL     1     -44.314 -51.575  13.692  1.00  0.00     0.050 A 
HETATM    6  C   UNL     1     -44.199 -51.418  15.020  1.00  0.00     0.123 A 
HETATM    7  N   UNL     1     -45.299 -51.300  15.852  1.00  0.00    -0.327 N 
HETATM    8  C   UNL     1     -45.096 -51.068  17.271  1.00  0.00     0.159 C 
HETATM    9  C   UNL     1     -46.604 -51.338  15.370  1.00  0.00     0.247 A 
HETATM   10  C   UNL     1     -46.736 -51.530  13.900  1.00  0.00     0.077 A 
HETATM   11  O   UNL     1     -47.612 -51.221  16.059  1.00  0.00    -0.268 OA
HETATM   12  C   UNL     1     -45.648 -51.632  13.124  1.00  0.00     0.036 A 
ENDBRANCH   1   5
BRANCH   2  13
HETATM   13  C   UNL     1     -41.263 -52.418  11.665  1.00  0.00     0.270 C 
BRANCH  13  14
HETATM   14  O   UNL     1     -40.061 -52.175  12.388  1.00  0.00    -0.382 OA
BRANCH  14  15
HETATM   15  C   UNL     1     -39.731 -50.783  12.413  1.00  0.00     0.172 C 
BRANCH  15  16
HETATM   16  C   UNL     1     -38.243 -50.662  12.418  1.00  0.00     0.009 A 
HETATM   17  C   UNL     1     -37.590 -49.353  12.778  1.00  0.00     0.007 A 
HETATM   18  C   UNL     1     -37.530 -49.857  11.361  1.00  0.00     0.007 A 
ENDBRANCH  15  16
ENDBRANCH  14  15
ENDBRANCH  13  14
ENDBRANCH   2  13
TORSDOF 5
ENDMDL
