MODEL 1
REMARK VINA RESULT:      -6.1      0.000      0.000
REMARK  4 active torsions:
REMARK  status: ('A' for Active; 'I' for Inactive)
REMARK    1  A    between atoms: C_2  and  C_7 
REMARK       I    between atoms: C_7  and  N_9 
REMARK    2  A    between atoms: N_9  and  C_10 
REMARK    3  A    between atoms: N_13  and  C_14 
REMARK    4  A    between atoms: C_14  and  C_15 
REMARK       I    between atoms: C_15  and  N_17 
ROOT
HETATM    1  C   UNL     1     -41.601 -48.610  11.156  1.00  0.00     0.123 C 
HETATM    2  C   UNL     1     -42.811 -48.522  11.879  1.00  0.00     0.068 C 
HETATM    3  C   UNL     1     -43.635 -47.741  11.104  1.00  0.00     0.114 C 
HETATM    4  N   UNL     1     -42.919 -47.463   9.976  1.00  0.00    -0.293 N 
HETATM    5  N   UNL     1     -41.623 -47.840  10.064  1.00  0.00    -0.283 N 
ATOM      6  HN  UNL     1     -40.850 -47.596   9.445  1.00  0.00     0.189 HD
ENDROOT
BRANCH   1   7
HETATM    7  N   UNL     1     -40.484 -49.358  11.451  1.00  0.00    -0.311 N 
HETATM    8  C   UNL     1     -39.404 -48.786  12.099  1.00  0.00     0.231 C 
HETATM    9  O   UNL     1     -39.354 -47.598  12.419  1.00  0.00    -0.272 OA
HETATM   10  H   UNL     1     -40.704 -50.325  11.633  1.00  0.00     0.170 HD
BRANCH   8  11
HETATM   11  C   UNL     1     -38.215 -49.743  12.369  1.00  0.00     0.037 C 
HETATM   12  C   UNL     1     -37.340 -49.934  11.124  1.00  0.00     0.025 C 
HETATM   13  C   UNL     1     -37.398 -49.217  13.565  1.00  0.00     0.019 C 
HETATM   14  C   UNL     1     -37.853 -50.006  14.797  1.00  0.00     0.001 C 
HETATM   15  C   UNL     1     -38.972 -50.929  14.342  1.00  0.00     0.001 C 
HETATM   16  C   UNL     1     -38.720 -51.118  12.854  1.00  0.00     0.019 C 
ENDBRANCH   8  11
ENDBRANCH   1   7
BRANCH   4  17
HETATM   17  C   UNL     1     -43.454 -47.025   8.703  1.00  0.00     0.250 C 
BRANCH  17  18
HETATM   18  C   UNL     1     -44.298 -45.791   8.848  1.00  0.00     0.235 C 
HETATM   19  O   UNL     1     -43.832 -44.672   9.046  1.00  0.00    -0.272 OA
HETATM   20  N   UNL     1     -45.650 -45.979   8.773  1.00  0.00    -0.369 N 
HETATM   21  H   UNL     1     -46.045 -46.809   8.354  1.00  0.00     0.159 HD
HETATM   22  H   UNL     1     -46.223 -45.144   8.796  1.00  0.00     0.159 HD
ENDBRANCH  17  18
ENDBRANCH   4  17
TORSDOF 4
ENDMDL
MODEL 2
REMARK VINA RESULT:      -6.1      4.267      6.570
REMARK  4 active torsions:
REMARK  status: ('A' for Active; 'I' for Inactive)
REMARK    1  A    between atoms: C_2  and  C_7 
REMARK       I    between atoms: C_7  and  N_9 
REMARK    2  A    between atoms: N_9  and  C_10 
REMARK    3  A    between atoms: N_13  and  C_14 
REMARK    4  A    between atoms: C_14  and  C_15 
REMARK       I    between atoms: C_15  and  N_17 
ROOT
HETATM    1  C   UNL     1     -42.376 -52.231  12.639  1.00  0.00     0.123 C 
HETATM    2  C   UNL     1     -41.276 -52.708  13.384  1.00  0.00     0.068 C 
HETATM    3  C   UNL     1     -40.192 -52.010  12.907  1.00  0.00     0.114 C 
HETATM    4  N   UNL     1     -40.694 -51.145  11.979  1.00  0.00    -0.293 N 
HETATM    5  N   UNL     1     -41.992 -51.383  11.681  1.00  0.00    -0.283 N 
ATOM      6  HN  UNL     1     -42.544 -51.005  10.912  1.00  0.00     0.189 HD
ENDROOT
BRANCH   1   7
HETATM    7  N   UNL     1     -43.709 -52.538  12.797  1.00  0.00    -0.311 N 
HETATM    8  C   UNL     1     -44.613 -51.567  13.191  1.00  0.00     0.231 C 
HETATM    9  O   UNL     1     -44.295 -50.407  13.450  1.00  0.00    -0.272 OA
HETATM   10  H   UNL     1     -44.016 -53.261  12.165  1.00  0.00     0.170 HD
BRANCH   8  11
HETATM   11  C   UNL     1     -46.080 -52.050  13.327  1.00  0.00     0.037 C 
HETATM   12  C   UNL     1     -46.889 -51.789  12.052  1.00  0.00     0.025 C 
HETATM   13  C   UNL     1     -46.091 -53.542  13.714  1.00  0.00     0.019 C 
HETATM   14  C   UNL     1     -46.302 -53.607  15.231  1.00  0.00     0.001 C 
HETATM   15  C   UNL     1     -46.339 -52.173  15.733  1.00  0.00     0.001 C 
HETATM   16  C   UNL     1     -46.772 -51.362  14.522  1.00  0.00     0.019 C 
ENDBRANCH   8  11
ENDBRANCH   1   7
BRANCH   4  17
HETATM   17  C   UNL     1     -40.052 -49.945  11.485  1.00  0.00     0.250 C 
BRANCH  17  18
HETATM   18  C   UNL     1     -41.034 -48.823  11.301  1.00  0.00     0.235 C 
HETATM   19  O   UNL     1     -41.581 -48.243  12.235  1.00  0.00    -0.272 OA
HETATM   20  N   UNL     1     -41.319 -48.483  10.008  1.00  0.00    -0.369 N 
HETATM   21  H   UNL     1     -40.707 -48.742   9.247  1.00  0.00     0.159 HD
HETATM   22  H   UNL     1     -41.923 -47.681   9.876  1.00  0.00     0.159 HD
ENDBRANCH  17  18
ENDBRANCH   4  17
TORSDOF 4
ENDMDL
MODEL 3
REMARK VINA RESULT:      -6.1      4.200      6.996
REMARK  4 active torsions:
REMARK  status: ('A' for Active; 'I' for Inactive)
REMARK    1  A    between atoms: C_2  and  C_7 
REMARK       I    between atoms: C_7  and  N_9 
REMARK    2  A    between atoms: N_9  and  C_10 
REMARK    3  A    between atoms: N_13  and  C_14 
REMARK    4  A    between atoms: C_14  and  C_15 
REMARK       I    between atoms: C_15  and  N_17 
ROOT
HETATM    1  C   UNL     1     -42.299 -51.974  12.488  1.00  0.00     0.123 C 
HETATM    2  C   UNL     1     -41.182 -52.605  13.077  1.00  0.00     0.068 C 
HETATM    3  C   UNL     1     -40.109 -51.811  12.751  1.00  0.00     0.114 C 
HETATM    4  N   UNL     1     -40.632 -50.757  12.061  1.00  0.00    -0.293 N 
HETATM    5  N   UNL     1     -41.936 -50.924  11.745  1.00  0.00    -0.283 N 
ATOM      6  HN  UNL     1     -42.505 -50.381  11.096  1.00  0.00     0.189 HD
ENDROOT
BRANCH   1   7
HETATM    7  N   UNL     1     -43.628 -52.315  12.600  1.00  0.00    -0.311 N 
HETATM    8  C   UNL     1     -44.521 -51.472  13.237  1.00  0.00     0.231 C 
HETATM    9  O   UNL     1     -44.195 -50.406  13.760  1.00  0.00    -0.272 OA
HETATM   10  H   UNL     1     -43.952 -52.867  11.821  1.00  0.00     0.170 HD
BRANCH   8  11
HETATM   11  C   UNL     1     -45.984 -51.980  13.289  1.00  0.00     0.037 C 
HETATM   12  C   UNL     1     -46.748 -51.657  11.999  1.00  0.00     0.025 C 
HETATM   13  C   UNL     1     -45.988 -53.492  13.591  1.00  0.00     0.019 C 
HETATM   14  C   UNL     1     -46.256 -53.645  15.092  1.00  0.00     0.001 C 
HETATM   15  C   UNL     1     -46.334 -52.242  15.672  1.00  0.00     0.001 C 
HETATM   16  C   UNL     1     -46.732 -51.369  14.492  1.00  0.00     0.019 C 
ENDBRANCH   8  11
ENDBRANCH   1   7
BRANCH   4  17
HETATM   17  C   UNL     1     -40.001 -49.471  11.844  1.00  0.00     0.250 C 
BRANCH  17  18
HETATM   18  C   UNL     1     -38.503 -49.581  11.820  1.00  0.00     0.235 C 
HETATM   19  O   UNL     1     -37.788 -49.290  12.775  1.00  0.00    -0.272 OA
HETATM   20  N   UNL     1     -37.955 -50.010  10.644  1.00  0.00    -0.369 N 
HETATM   21  H   UNL     1     -38.504 -50.501   9.953  1.00  0.00     0.159 HD
HETATM   22  H   UNL     1     -36.952 -50.157  10.642  1.00  0.00     0.159 HD
ENDBRANCH  17  18
ENDBRANCH   4  17
TORSDOF 4
ENDMDL
MODEL 4
REMARK VINA RESULT:      -5.9      4.831      7.693
REMARK  4 active torsions:
REMARK  status: ('A' for Active; 'I' for Inactive)
REMARK    1  A    between atoms: C_2  and  C_7 
REMARK       I    between atoms: C_7  and  N_9 
REMARK    2  A    between atoms: N_9  and  C_10 
REMARK    3  A    between atoms: N_13  and  C_14 
REMARK    4  A    between atoms: C_14  and  C_15 
REMARK       I    between atoms: C_15  and  N_17 
ROOT
HETATM    1  C   UNL     1     -41.407 -53.398  13.457  1.00  0.00     0.123 C 
HETATM    2  C   UNL     1     -40.402 -54.116  14.141  1.00  0.00     0.068 C 
HETATM    3  C   UNL     1     -39.274 -53.339  14.036  1.00  0.00     0.114 C 
HETATM    4  N   UNL     1     -39.665 -52.214  13.370  1.00  0.00    -0.293 N 
HETATM    5  N   UNL     1     -40.915 -52.307  12.862  1.00  0.00    -0.283 N 
ATOM      6  HN  UNL     1     -41.371 -51.692  12.189  1.00  0.00     0.189 HD
ENDROOT
BRANCH   1   7
HETATM    7  N   UNL     1     -42.747 -53.697  13.352  1.00  0.00    -0.311 N 
HETATM    8  C   UNL     1     -43.682 -53.013  14.108  1.00  0.00     0.231 C 
HETATM    9  O   UNL     1     -43.389 -52.139  14.925  1.00  0.00    -0.272 OA
HETATM   10  H   UNL     1     -43.003 -54.007  12.428  1.00  0.00     0.170 HD
BRANCH   8  11
HETATM   11  C   UNL     1     -45.153 -53.450  13.890  1.00  0.00     0.037 C 
HETATM   12  C   UNL     1     -45.291 -54.975  13.819  1.00  0.00     0.025 C 
HETATM   13  C   UNL     1     -46.034 -52.849  15.004  1.00  0.00     0.019 C 
HETATM   14  C   UNL     1     -46.693 -51.595  14.422  1.00  0.00     0.001 C 
HETATM   15  C   UNL     1     -46.148 -51.423  13.013  1.00  0.00     0.001 C 
HETATM   16  C   UNL     1     -45.723 -52.824  12.602  1.00  0.00     0.019 C 
ENDBRANCH   8  11
ENDBRANCH   1   7
BRANCH   4  17
HETATM   17  C   UNL     1     -38.976 -50.940  13.353  1.00  0.00     0.250 C 
BRANCH  17  18
HETATM   18  C   UNL     1     -37.964 -50.868  12.246  1.00  0.00     0.235 C 
HETATM   19  O   UNL     1     -36.881 -51.446  12.281  1.00  0.00    -0.272 OA
HETATM   20  N   UNL     1     -38.303 -50.087  11.177  1.00  0.00    -0.369 N 
HETATM   21  H   UNL     1     -39.261 -49.826  10.995  1.00  0.00     0.159 HD
HETATM   22  H   UNL     1     -37.659 -50.091  10.394  1.00  0.00     0.159 HD
ENDBRANCH  17  18
ENDBRANCH   4  17
TORSDOF 4
ENDMDL
MODEL 5
REMARK VINA RESULT:      -5.9      3.611      5.464
REMARK  4 active torsions:
REMARK  status: ('A' for Active; 'I' for Inactive)
REMARK    1  A    between atoms: C_2  and  C_7 
REMARK       I    between atoms: C_7  and  N_9 
REMARK    2  A    between atoms: N_9  and  C_10 
REMARK    3  A    between atoms: N_13  and  C_14 
REMARK    4  A    between atoms: C_14  and  C_15 
REMARK       I    between atoms: C_15  and  N_17 
ROOT
HETATM    1  C   UNL     1     -41.598 -50.797  12.009  1.00  0.00     0.123 C 
HETATM    2  C   UNL     1     -40.199 -50.878  12.176  1.00  0.00     0.068 C 
HETATM    3  C   UNL     1     -39.710 -49.695  11.676  1.00  0.00     0.114 C 
HETATM    4  N   UNL     1     -40.807 -48.975  11.303  1.00  0.00    -0.293 N 
HETATM    5  N   UNL     1     -41.951 -49.694  11.341  1.00  0.00    -0.283 N 
ATOM      6  HN  UNL     1     -42.863 -49.453  10.953  1.00  0.00     0.189 HD
ENDROOT
BRANCH   1   7
HETATM    7  N   UNL     1     -42.561 -51.683  12.437  1.00  0.00    -0.311 N 
HETATM    8  C   UNL     1     -43.503 -51.300  13.375  1.00  0.00     0.231 C 
HETATM    9  O   UNL     1     -43.527 -50.186  13.900  1.00  0.00    -0.272 OA
HETATM   10  H   UNL     1     -42.828 -52.339  11.721  1.00  0.00     0.170 HD
BRANCH   8  11
HETATM   11  C   UNL     1     -44.527 -52.396  13.766  1.00  0.00     0.037 C 
HETATM   12  C   UNL     1     -43.837 -53.689  14.216  1.00  0.00     0.025 C 
HETATM   13  C   UNL     1     -45.473 -51.846  14.851  1.00  0.00     0.019 C 
HETATM   14  C   UNL     1     -46.756 -51.401  14.140  1.00  0.00     0.001 C 
HETATM   15  C   UNL     1     -46.534 -51.619  12.652  1.00  0.00     0.001 C 
HETATM   16  C   UNL     1     -45.472 -52.706  12.586  1.00  0.00     0.019 C 
ENDBRANCH   8  11
ENDBRANCH   1   7
BRANCH   4  17
HETATM   17  C   UNL     1     -40.866 -47.543  11.094  1.00  0.00     0.250 C 
BRANCH  17  18
HETATM   18  C   UNL     1     -42.241 -47.095  10.687  1.00  0.00     0.235 C 
HETATM   19  O   UNL     1     -43.206 -47.102  11.447  1.00  0.00    -0.272 OA
HETATM   20  N   UNL     1     -42.379 -46.692   9.389  1.00  0.00    -0.369 N 
HETATM   21  H   UNL     1     -41.581 -46.423   8.831  1.00  0.00     0.159 HD
HETATM   22  H   UNL     1     -43.284 -46.320   9.127  1.00  0.00     0.159 HD
ENDBRANCH  17  18
ENDBRANCH   4  17
TORSDOF 4
ENDMDL
MODEL 6
REMARK VINA RESULT:      -5.8      2.880      3.400
REMARK  4 active torsions:
REMARK  status: ('A' for Active; 'I' for Inactive)
REMARK    1  A    between atoms: C_2  and  C_7 
REMARK       I    between atoms: C_7  and  N_9 
REMARK    2  A    between atoms: N_9  and  C_10 
REMARK    3  A    between atoms: N_13  and  C_14 
REMARK    4  A    between atoms: C_14  and  C_15 
REMARK       I    between atoms: C_15  and  N_17 
ROOT
HETATM    1  C   UNL     1     -42.751 -48.760  11.878  1.00  0.00     0.123 C 
HETATM    2  C   UNL     1     -42.800 -47.542  12.590  1.00  0.00     0.068 C 
HETATM    3  C   UNL     1     -42.732 -46.563  11.628  1.00  0.00     0.114 C 
HETATM    4  N   UNL     1     -42.706 -47.224  10.435  1.00  0.00    -0.293 N 
HETATM    5  N   UNL     1     -42.546 -48.560  10.573  1.00  0.00    -0.283 N 
ATOM      6  HN  UNL     1     -42.323 -49.248   9.854  1.00  0.00     0.189 HD
ENDROOT
BRANCH   1   7
HETATM    7  N   UNL     1     -42.885 -50.040  12.368  1.00  0.00    -0.311 N 
HETATM    8  C   UNL     1     -41.852 -50.952  12.246  1.00  0.00     0.231 C 
HETATM    9  O   UNL     1     -40.787 -50.703  11.682  1.00  0.00    -0.272 OA
HETATM   10  H   UNL     1     -43.477 -50.082  13.183  1.00  0.00     0.170 HD
BRANCH   8  11
HETATM   11  C   UNL     1     -42.138 -52.354  12.842  1.00  0.00     0.037 C 
HETATM   12  C   UNL     1     -43.476 -52.921  12.353  1.00  0.00     0.025 C 
HETATM   13  C   UNL     1     -40.964 -53.297  12.512  1.00  0.00     0.019 C 
HETATM   14  C   UNL     1     -40.068 -53.343  13.754  1.00  0.00     0.001 C 
HETATM   15  C   UNL     1     -40.669 -52.383  14.769  1.00  0.00     0.001 C 
HETATM   16  C   UNL     1     -42.138 -52.303  14.384  1.00  0.00     0.019 C 
ENDBRANCH   8  11
ENDBRANCH   1   7
BRANCH   4  17
HETATM   17  C   UNL     1     -43.030 -46.671   9.136  1.00  0.00     0.250 C 
BRANCH  17  18
HETATM   18  C   UNL     1     -43.746 -47.666   8.269  1.00  0.00     0.235 C 
HETATM   19  O   UNL     1     -44.912 -48.005   8.450  1.00  0.00    -0.272 OA
HETATM   20  N   UNL     1     -43.011 -48.212   7.254  1.00  0.00    -0.369 N 
HETATM   21  H   UNL     1     -42.166 -47.773   6.918  1.00  0.00     0.159 HD
HETATM   22  H   UNL     1     -43.507 -48.829   6.620  1.00  0.00     0.159 HD
ENDBRANCH  17  18
ENDBRANCH   4  17
TORSDOF 4
ENDMDL
MODEL 7
REMARK VINA RESULT:      -5.8      3.528      5.095
REMARK  4 active torsions:
REMARK  status: ('A' for Active; 'I' for Inactive)
REMARK    1  A    between atoms: C_2  and  C_7 
REMARK       I    between atoms: C_7  and  N_9 
REMARK    2  A    between atoms: N_9  and  C_10 
REMARK    3  A    between atoms: N_13  and  C_14 
REMARK    4  A    between atoms: C_14  and  C_15 
REMARK       I    between atoms: C_15  and  N_17 
ROOT
HETATM    1  C   UNL     1     -42.833 -48.988  12.575  1.00  0.00     0.123 C 
HETATM    2  C   UNL     1     -41.943 -48.065  13.167  1.00  0.00     0.068 C 
HETATM    3  C   UNL     1     -41.517 -47.265  12.134  1.00  0.00     0.114 C 
HETATM    4  N   UNL     1     -42.194 -47.701  11.032  1.00  0.00    -0.293 N 
HETATM    5  N   UNL     1     -42.869 -48.853  11.246  1.00  0.00    -0.283 N 
ATOM      6  HN  UNL     1     -43.301 -49.470  10.558  1.00  0.00     0.189 HD
ENDROOT
BRANCH   1   7
HETATM    7  N   UNL     1     -43.608 -49.943  13.194  1.00  0.00    -0.311 N 
HETATM    8  C   UNL     1     -43.327 -51.288  13.035  1.00  0.00     0.231 C 
HETATM    9  O   UNL     1     -42.414 -51.714  12.327  1.00  0.00    -0.272 OA
HETATM   10  H   UNL     1     -43.983 -49.625  14.073  1.00  0.00     0.170 HD
BRANCH   8  11
HETATM   11  C   UNL     1     -44.279 -52.253  13.788  1.00  0.00     0.037 C 
HETATM   12  C   UNL     1     -43.522 -53.146  14.777  1.00  0.00     0.025 C 
HETATM   13  C   UNL     1     -45.383 -51.435  14.487  1.00  0.00     0.019 C 
HETATM   14  C   UNL     1     -46.619 -51.491  13.582  1.00  0.00     0.001 C 
HETATM   15  C   UNL     1     -46.220 -52.267  12.338  1.00  0.00     0.001 C 
HETATM   16  C   UNL     1     -45.059 -53.137  12.794  1.00  0.00     0.019 C 
ENDBRANCH   8  11
ENDBRANCH   1   7
BRANCH   4  17
HETATM   17  C   UNL     1     -42.405 -46.962   9.804  1.00  0.00     0.250 C 
BRANCH  17  18
HETATM   18  C   UNL     1     -43.481 -47.582   8.959  1.00  0.00     0.235 C 
HETATM   19  O   UNL     1     -44.654 -47.667   9.313  1.00  0.00    -0.272 OA
HETATM   20  N   UNL     1     -43.079 -48.085   7.754  1.00  0.00    -0.369 N 
HETATM   21  H   UNL     1     -42.209 -47.801   7.326  1.00  0.00     0.159 HD
HETATM   22  H   UNL     1     -43.809 -48.439   7.147  1.00  0.00     0.159 HD
ENDBRANCH  17  18
ENDBRANCH   4  17
TORSDOF 4
ENDMDL
MODEL 8
REMARK VINA RESULT:      -5.5      3.846      6.517
REMARK  4 active torsions:
REMARK  status: ('A' for Active; 'I' for Inactive)
REMARK    1  A    between atoms: C_2  and  C_7 
REMARK       I    between atoms: C_7  and  N_9 
REMARK    2  A    between atoms: N_9  and  C_10 
REMARK    3  A    between atoms: N_13  and  C_14 
REMARK    4  A    between atoms: C_14  and  C_15 
REMARK       I    between atoms: C_15  and  N_17 
ROOT
HETATM    1  C   UNL     1     -42.254 -49.841  12.534  1.00  0.00     0.123 C 
HETATM    2  C   UNL     1     -42.374 -48.515  12.062  1.00  0.00     0.068 C 
HETATM    3  C   UNL     1     -41.124 -47.965  12.218  1.00  0.00     0.114 C 
HETATM    4  N   UNL     1     -40.341 -48.971  12.703  1.00  0.00    -0.293 N 
HETATM    5  N   UNL     1     -41.047 -50.068  13.060  1.00  0.00    -0.283 N 
ATOM      6  HN  UNL     1     -40.733 -50.874  13.601  1.00  0.00     0.189 HD
ENDROOT
BRANCH   1   7
HETATM    7  N   UNL     1     -43.195 -50.845  12.505  1.00  0.00    -0.311 N 
HETATM    8  C   UNL     1     -43.566 -51.496  13.668  1.00  0.00     0.231 C 
HETATM    9  O   UNL     1     -43.074 -51.253  14.770  1.00  0.00    -0.272 OA
HETATM   10  H   UNL     1     -43.886 -50.706  11.784  1.00  0.00     0.170 HD
BRANCH   8  11
HETATM   11  C   UNL     1     -44.636 -52.604  13.490  1.00  0.00     0.037 C 
HETATM   12  C   UNL     1     -44.108 -53.779  12.659  1.00  0.00     0.025 C 
HETATM   13  C   UNL     1     -45.131 -53.062  14.876  1.00  0.00     0.019 C 
HETATM   14  C   UNL     1     -46.449 -52.327  15.143  1.00  0.00     0.001 C 
HETATM   15  C   UNL     1     -46.683 -51.397  13.963  1.00  0.00     0.001 C 
HETATM   16  C   UNL     1     -45.905 -52.035  12.823  1.00  0.00     0.019 C 
ENDBRANCH   8  11
ENDBRANCH   1   7
BRANCH   4  17
HETATM   17  C   UNL     1     -38.894 -49.031  12.664  1.00  0.00     0.250 C 
BRANCH  17  18
HETATM   18  C   UNL     1     -38.405 -50.235  11.910  1.00  0.00     0.235 C 
HETATM   19  O   UNL     1     -38.516 -51.384  12.327  1.00  0.00    -0.272 OA
HETATM   20  N   UNL     1     -37.791 -49.983  10.716  1.00  0.00    -0.369 N 
HETATM   21  H   UNL     1     -37.920 -49.107  10.230  1.00  0.00     0.159 HD
HETATM   22  H   UNL     1     -37.524 -50.792  10.167  1.00  0.00     0.159 HD
ENDBRANCH  17  18
ENDBRANCH   4  17
TORSDOF 4
ENDMDL
MODEL 9
REMARK VINA RESULT:      -5.5      2.423      3.245
REMARK  4 active torsions:
REMARK  status: ('A' for Active; 'I' for Inactive)
REMARK    1  A    between atoms: C_2  and  C_7 
REMARK       I    between atoms: C_7  and  N_9 
REMARK    2  A    between atoms: N_9  and  C_10 
REMARK    3  A    between atoms: N_13  and  C_14 
REMARK    4  A    between atoms: C_14  and  C_15 
REMARK       I    between atoms: C_15  and  N_17 
ROOT
HETATM    1  C   UNL     1     -40.648 -49.325  11.522  1.00  0.00     0.123 C 
HETATM    2  C   UNL     1     -40.098 -48.033  11.668  1.00  0.00     0.068 C 
HETATM    3  C   UNL     1     -40.935 -47.206  10.958  1.00  0.00     0.114 C 
HETATM    4  N   UNL     1     -41.934 -48.010  10.491  1.00  0.00    -0.293 N 
HETATM    5  N   UNL     1     -41.686 -49.326  10.681  1.00  0.00    -0.283 N 
ATOM      6  HN  UNL     1     -42.175 -50.126  10.279  1.00  0.00     0.189 HD
ENDROOT
BRANCH   1   7
HETATM    7  N   UNL     1     -40.242 -50.497  12.121  1.00  0.00    -0.311 N 
HETATM    8  C   UNL     1     -40.988 -51.061  13.140  1.00  0.00     0.231 C 
HETATM    9  O   UNL     1     -42.016 -50.556  13.592  1.00  0.00    -0.272 OA
HETATM   10  H   UNL     1     -39.749 -51.104  11.485  1.00  0.00     0.170 HD
BRANCH   8  11
HETATM   11  C   UNL     1     -40.416 -52.379  13.722  1.00  0.00     0.037 C 
HETATM   12  C   UNL     1     -38.904 -52.290  13.961  1.00  0.00     0.025 C 
HETATM   13  C   UNL     1     -41.177 -52.739  15.013  1.00  0.00     0.019 C 
HETATM   14  C   UNL     1     -42.233 -53.781  14.631  1.00  0.00     0.001 C 
HETATM   15  C   UNL     1     -42.140 -53.973  13.126  1.00  0.00     0.001 C 
HETATM   16  C   UNL     1     -40.716 -53.566  12.783  1.00  0.00     0.019 C 
ENDBRANCH   8  11
ENDBRANCH   1   7
BRANCH   4  17
HETATM   17  C   UNL     1     -43.242 -47.584  10.038  1.00  0.00     0.250 C 
BRANCH  17  18
HETATM   18  C   UNL     1     -43.202 -47.071   8.626  1.00  0.00     0.235 C 
HETATM   19  O   UNL     1     -43.053 -45.886   8.341  1.00  0.00    -0.272 OA
HETATM   20  N   UNL     1     -43.371 -48.008   7.646  1.00  0.00    -0.369 N 
HETATM   21  H   UNL     1     -43.228 -48.992   7.824  1.00  0.00     0.159 HD
HETATM   22  H   UNL     1     -43.273 -47.683   6.691  1.00  0.00     0.159 HD
ENDBRANCH  17  18
ENDBRANCH   4  17
TORSDOF 4
ENDMDL
