MODEL 1
REMARK VINA RESULT:      -6.0      0.000      0.000
REMARK  5 active torsions:
REMARK  status: ('A' for Active; 'I' for Inactive)
REMARK    1  A    between atoms: C_2  and  N_3 
REMARK    2  A    between atoms: N_3  and  C_4 
REMARK    3  A    between atoms: N_3  and  C_6 
REMARK    4  A    between atoms: C_9  and  N_10 
REMARK       I    between atoms: N_10  and  C_11 
REMARK       I    between atoms: C_11  and  N_13 
REMARK    5  A    between atoms: N_13  and  C_14 
REMARK       I    between atoms: N_17  and  C_20 
ROOT
HETATM    1  N   UNL     1     -41.146 -50.573  12.866  1.00  0.00    -0.308 N 
HETATM    2  C   UNL     1     -41.469 -51.903  12.686  1.00  0.00     0.321 C 
HETATM    3  O   UNL     1     -42.173 -52.354  11.796  1.00  0.00    -0.247 OA
HETATM    4  N   UNL     1     -40.877 -52.690  13.645  1.00  0.00    -0.338 N 
HETATM    5  H   UNL     1     -40.490 -50.361  13.601  1.00  0.00     0.170 HD
HETATM    6  H   UNL     1     -40.425 -52.213  14.409  1.00  0.00     0.164 HD
ENDROOT
BRANCH   1   7
HETATM    7  C   UNL     1     -41.633 -49.474  12.127  1.00  0.00     0.051 A 
HETATM    8  C   UNL     1     -42.796 -48.777  12.422  1.00  0.00     0.035 A 
HETATM    9  C   UNL     1     -43.138 -47.647  11.675  1.00  0.00     0.051 A 
HETATM   10  C   UNL     1     -42.309 -47.209  10.645  1.00  0.00     0.102 A 
HETATM   11  N   UNL     1     -41.196 -47.903  10.318  1.00  0.00    -0.350 N 
HETATM   12  C   UNL     1     -40.892 -49.006  11.046  1.00  0.00     0.119 A 
ATOM     13  HN  UNL     1     -40.601 -47.605   9.545  1.00  0.00     0.166 HD
BRANCH  10  14
HETATM   14  N   UNL     1     -42.584 -45.984  10.011  1.00  0.00    -0.368 N 
BRANCH  14  15
HETATM   15  C   UNL     1     -43.732 -46.074   9.102  1.00  0.00     0.120 C 
HETATM   16  C   UNL     1     -43.629 -47.254   8.146  1.00  0.00     0.026 C 
ENDBRANCH  14  15
BRANCH  14  17
HETATM   17  C   UNL     1     -42.423 -44.795  10.859  1.00  0.00     0.120 C 
HETATM   18  C   UNL     1     -40.973 -44.377  11.067  1.00  0.00     0.026 C 
ENDBRANCH  14  17
ENDBRANCH  10  14
ENDBRANCH   1   7
BRANCH   4  19
HETATM   19  C   UNL     1     -40.779 -54.154  13.677  1.00  0.00     0.089 C 
HETATM   20  C   UNL     1     -41.760 -54.692  14.722  1.00  0.00     0.045 C 
HETATM   21  C   UNL     1     -41.165 -54.550  16.114  1.00  0.00     0.127 C 
HETATM   22  N   UNL     1     -39.968 -55.374  16.198  1.00  0.00    -0.352 N 
HETATM   23  C   UNL     1     -38.902 -54.972  15.281  1.00  0.00     0.127 C 
HETATM   24  C   UNL     1     -39.729 -56.383  17.116  1.00  0.00     0.215 C 
HETATM   25  C   UNL     1     -39.395 -54.812  13.834  1.00  0.00     0.045 C 
HETATM   26  O   UNL     1     -38.662 -57.005  17.138  1.00  0.00    -0.274 OA
HETATM   27  C   UNL     1     -40.804 -56.778  18.101  1.00  0.00     0.117 C 
ENDBRANCH   4  19
TORSDOF 5
ENDMDL
MODEL 2
REMARK VINA RESULT:      -5.6      3.297      4.235
REMARK  5 active torsions:
REMARK  status: ('A' for Active; 'I' for Inactive)
REMARK    1  A    between atoms: C_2  and  N_3 
REMARK    2  A    between atoms: N_3  and  C_4 
REMARK    3  A    between atoms: N_3  and  C_6 
REMARK    4  A    between atoms: C_9  and  N_10 
REMARK       I    between atoms: N_10  and  C_11 
REMARK       I    between atoms: C_11  and  N_13 
REMARK    5  A    between atoms: N_13  and  C_14 
REMARK       I    between atoms: N_17  and  C_20 
ROOT
HETATM    1  N   UNL     1     -42.308 -48.618  11.559  1.00  0.00    -0.308 N 
HETATM    2  C   UNL     1     -41.648 -49.576  12.303  1.00  0.00     0.321 C 
HETATM    3  O   UNL     1     -40.743 -49.368  13.095  1.00  0.00    -0.247 OA
HETATM    4  N   UNL     1     -42.153 -50.829  12.053  1.00  0.00    -0.338 N 
HETATM    5  H   UNL     1     -43.089 -48.931  11.005  1.00  0.00     0.170 HD
HETATM    6  H   UNL     1     -42.807 -50.913  11.291  1.00  0.00     0.164 HD
ENDROOT
BRANCH   1   7
HETATM    7  C   UNL     1     -42.010 -47.239  11.495  1.00  0.00     0.051 A 
HETATM    8  C   UNL     1     -40.980 -46.689  10.745  1.00  0.00     0.035 A 
HETATM    9  C   UNL     1     -40.829 -45.301  10.684  1.00  0.00     0.051 A 
HETATM   10  C   UNL     1     -41.717 -44.468  11.359  1.00  0.00     0.102 A 
HETATM   11  N   UNL     1     -42.698 -44.991  12.129  1.00  0.00    -0.350 N 
HETATM   12  C   UNL     1     -42.816 -46.341  12.186  1.00  0.00     0.119 A 
ATOM     13  HN  UNL     1     -43.333 -44.388  12.651  1.00  0.00     0.166 HD
BRANCH  10  14
HETATM   14  N   UNL     1     -41.650 -43.078  11.159  1.00  0.00    -0.368 N 
BRANCH  14  15
HETATM   15  C   UNL     1     -42.956 -42.429  11.323  1.00  0.00     0.120 C 
HETATM   16  C   UNL     1     -42.847 -40.915  11.423  1.00  0.00     0.026 C 
ENDBRANCH  14  15
BRANCH  14  17
HETATM   17  C   UNL     1     -40.447 -42.430  11.698  1.00  0.00     0.120 C 
HETATM   18  C   UNL     1     -40.171 -42.758  13.159  1.00  0.00     0.026 C 
ENDBRANCH  14  17
ENDBRANCH  10  14
ENDBRANCH   1   7
BRANCH   4  19
HETATM   19  C   UNL     1     -41.894 -52.071  12.792  1.00  0.00     0.089 C 
HETATM   20  C   UNL     1     -42.668 -53.212  12.128  1.00  0.00     0.045 C 
HETATM   21  C   UNL     1     -44.124 -53.173  12.563  1.00  0.00     0.127 C 
HETATM   22  N   UNL     1     -44.190 -53.400  13.999  1.00  0.00    -0.352 N 
HETATM   23  C   UNL     1     -43.521 -52.372  14.797  1.00  0.00     0.127 C 
HETATM   24  C   UNL     1     -44.902 -54.401  14.641  1.00  0.00     0.215 C 
HETATM   25  C   UNL     1     -42.088 -52.092  14.320  1.00  0.00     0.045 C 
HETATM   26  O   UNL     1     -44.932 -54.493  15.872  1.00  0.00    -0.274 OA
HETATM   27  C   UNL     1     -45.636 -55.443  13.830  1.00  0.00     0.117 C 
ENDBRANCH   4  19
TORSDOF 5
ENDMDL
MODEL 3
REMARK VINA RESULT:      -5.6      1.470      1.981
REMARK  5 active torsions:
REMARK  status: ('A' for Active; 'I' for Inactive)
REMARK    1  A    between atoms: C_2  and  N_3 
REMARK    2  A    between atoms: N_3  and  C_4 
REMARK    3  A    between atoms: N_3  and  C_6 
REMARK    4  A    between atoms: C_9  and  N_10 
REMARK       I    between atoms: N_10  and  C_11 
REMARK       I    between atoms: C_11  and  N_13 
REMARK    5  A    between atoms: N_13  and  C_14 
REMARK       I    between atoms: N_17  and  C_20 
ROOT
HETATM    1  N   UNL     1     -42.512 -50.153  13.020  1.00  0.00    -0.308 N 
HETATM    2  C   UNL     1     -42.064 -51.367  12.537  1.00  0.00     0.321 C 
HETATM    3  O   UNL     1     -41.308 -51.525  11.592  1.00  0.00    -0.247 OA
HETATM    4  N   UNL     1     -42.570 -52.409  13.275  1.00  0.00    -0.338 N 
HETATM    5  H   UNL     1     -43.072 -50.176  13.857  1.00  0.00     0.170 HD
HETATM    6  H   UNL     1     -43.285 -52.185  13.950  1.00  0.00     0.164 HD
ENDROOT
BRANCH   1   7
HETATM    7  C   UNL     1     -42.266 -48.877  12.467  1.00  0.00     0.051 A 
HETATM    8  C   UNL     1     -43.138 -48.200  11.627  1.00  0.00     0.035 A 
HETATM    9  C   UNL     1     -42.833 -46.902  11.208  1.00  0.00     0.051 A 
HETATM   10  C   UNL     1     -41.666 -46.280  11.644  1.00  0.00     0.102 A 
HETATM   11  N   UNL     1     -40.786 -46.944  12.427  1.00  0.00    -0.350 N 
HETATM   12  C   UNL     1     -41.095 -48.208  12.808  1.00  0.00     0.119 A 
ATOM     13  HN  UNL     1     -39.914 -46.506  12.724  1.00  0.00     0.166 HD
BRANCH  10  14
HETATM   14  N   UNL     1     -41.452 -44.923  11.345  1.00  0.00    -0.368 N 
BRANCH  14  15
HETATM   15  C   UNL     1     -42.416 -44.047  12.022  1.00  0.00     0.120 C 
HETATM   16  C   UNL     1     -42.969 -42.967  11.104  1.00  0.00     0.026 C 
ENDBRANCH  14  15
BRANCH  14  17
HETATM   17  C   UNL     1     -40.042 -44.519  11.259  1.00  0.00     0.120 C 
HETATM   18  C   UNL     1     -39.407 -44.781   9.900  1.00  0.00     0.026 C 
ENDBRANCH  14  17
ENDBRANCH  10  14
ENDBRANCH   1   7
BRANCH   4  19
HETATM   19  C   UNL     1     -42.168 -53.820  13.240  1.00  0.00     0.089 C 
HETATM   20  C   UNL     1     -42.620 -54.496  14.537  1.00  0.00     0.045 C 
HETATM   21  C   UNL     1     -41.645 -54.172  15.657  1.00  0.00     0.127 C 
HETATM   22  N   UNL     1     -40.344 -54.732  15.323  1.00  0.00    -0.352 N 
HETATM   23  C   UNL     1     -39.743 -54.166  14.115  1.00  0.00     0.127 C 
HETATM   24  C   UNL     1     -39.614 -55.628  16.087  1.00  0.00     0.215 C 
HETATM   25  C   UNL     1     -40.705 -54.177  12.916  1.00  0.00     0.045 C 
HETATM   26  O   UNL     1     -38.495 -56.020  15.742  1.00  0.00    -0.274 OA
HETATM   27  C   UNL     1     -40.202 -56.186  17.362  1.00  0.00     0.117 C 
ENDBRANCH   4  19
TORSDOF 5
ENDMDL
MODEL 4
REMARK VINA RESULT:      -5.5      3.427      9.576
REMARK  5 active torsions:
REMARK  status: ('A' for Active; 'I' for Inactive)
REMARK    1  A    between atoms: C_2  and  N_3 
REMARK    2  A    between atoms: N_3  and  C_4 
REMARK    3  A    between atoms: N_3  and  C_6 
REMARK    4  A    between atoms: C_9  and  N_10 
REMARK       I    between atoms: N_10  and  C_11 
REMARK       I    between atoms: C_11  and  N_13 
REMARK    5  A    between atoms: N_13  and  C_14 
REMARK       I    between atoms: N_17  and  C_20 
ROOT
HETATM    1  N   UNL     1     -40.938 -49.123  11.778  1.00  0.00    -0.308 N 
HETATM    2  C   UNL     1     -41.491 -48.119  11.008  1.00  0.00     0.321 C 
HETATM    3  O   UNL     1     -42.618 -48.117  10.538  1.00  0.00    -0.247 OA
HETATM    4  N   UNL     1     -40.606 -47.082  10.838  1.00  0.00    -0.338 N 
HETATM    5  H   UNL     1     -40.023 -48.949  12.161  1.00  0.00     0.170 HD
HETATM    6  H   UNL     1     -39.660 -47.234  11.153  1.00  0.00     0.164 HD
ENDROOT
BRANCH   1   7
HETATM    7  C   UNL     1     -41.520 -50.370  12.091  1.00  0.00     0.051 A 
HETATM    8  C   UNL     1     -40.933 -51.602  11.838  1.00  0.00     0.035 A 
HETATM    9  C   UNL     1     -41.559 -52.774  12.271  1.00  0.00     0.051 A 
HETATM   10  C   UNL     1     -42.762 -52.709  12.969  1.00  0.00     0.102 A 
HETATM   11  N   UNL     1     -43.368 -51.520  13.184  1.00  0.00    -0.350 N 
HETATM   12  C   UNL     1     -42.750 -50.397  12.741  1.00  0.00     0.119 A 
ATOM     13  HN  UNL     1     -44.265 -51.468  13.667  1.00  0.00     0.166 HD
BRANCH  10  14
HETATM   14  N   UNL     1     -43.296 -53.881  13.535  1.00  0.00    -0.368 N 
BRANCH  14  15
HETATM   15  C   UNL     1     -43.091 -53.939  14.987  1.00  0.00     0.120 C 
HETATM   16  C   UNL     1     -42.329 -55.184  15.419  1.00  0.00     0.026 C 
ENDBRANCH  14  15
BRANCH  14  17
HETATM   17  C   UNL     1     -44.579 -54.317  12.967  1.00  0.00     0.120 C 
HETATM   18  C   UNL     1     -45.648 -54.612  14.011  1.00  0.00     0.026 C 
ENDBRANCH  14  17
ENDBRANCH  10  14
ENDBRANCH   1   7
BRANCH   4  19
HETATM   19  C   UNL     1     -40.873 -45.747  10.290  1.00  0.00     0.089 C 
HETATM   20  C   UNL     1     -39.676 -44.841  10.590  1.00  0.00     0.045 C 
HETATM   21  C   UNL     1     -39.748 -44.345  12.025  1.00  0.00     0.127 C 
HETATM   22  N   UNL     1     -40.942 -43.528  12.180  1.00  0.00    -0.352 N 
HETATM   23  C   UNL     1     -42.194 -44.253  11.960  1.00  0.00     0.127 C 
HETATM   24  C   UNL     1     -40.987 -42.213  12.612  1.00  0.00     0.215 C 
HETATM   25  C   UNL     1     -42.197 -45.041  10.640  1.00  0.00     0.045 C 
HETATM   26  O   UNL     1     -42.055 -41.608  12.752  1.00  0.00    -0.274 OA
HETATM   27  C   UNL     1     -39.704 -41.465  12.888  1.00  0.00     0.117 C 
ENDBRANCH   4  19
TORSDOF 5
ENDMDL
MODEL 5
REMARK VINA RESULT:      -5.5      3.161      9.473
REMARK  5 active torsions:
REMARK  status: ('A' for Active; 'I' for Inactive)
REMARK    1  A    between atoms: C_2  and  N_3 
REMARK    2  A    between atoms: N_3  and  C_4 
REMARK    3  A    between atoms: N_3  and  C_6 
REMARK    4  A    between atoms: C_9  and  N_10 
REMARK       I    between atoms: N_10  and  C_11 
REMARK       I    between atoms: C_11  and  N_13 
REMARK    5  A    between atoms: N_13  and  C_14 
REMARK       I    between atoms: N_17  and  C_20 
ROOT
HETATM    1  N   UNL     1     -39.543 -48.509  11.479  1.00  0.00    -0.308 N 
HETATM    2  C   UNL     1     -40.604 -47.666  11.218  1.00  0.00     0.321 C 
HETATM    3  O   UNL     1     -41.772 -47.876  11.506  1.00  0.00    -0.247 OA
HETATM    4  N   UNL     1     -40.181 -46.519  10.591  1.00  0.00    -0.338 N 
HETATM    5  H   UNL     1     -38.623 -48.165  11.253  1.00  0.00     0.170 HD
HETATM    6  H   UNL     1     -39.222 -46.497  10.281  1.00  0.00     0.164 HD
ENDROOT
BRANCH   1   7
HETATM    7  C   UNL     1     -39.606 -49.805  12.036  1.00  0.00     0.051 A 
HETATM    8  C   UNL     1     -38.941 -50.202  13.188  1.00  0.00     0.035 A 
HETATM    9  C   UNL     1     -39.145 -51.486  13.701  1.00  0.00     0.051 A 
HETATM   10  C   UNL     1     -40.024 -52.362  13.070  1.00  0.00     0.102 A 
HETATM   11  N   UNL     1     -40.644 -52.004  11.923  1.00  0.00    -0.350 N 
HETATM   12  C   UNL     1     -40.419 -50.760  11.435  1.00  0.00     0.119 A 
ATOM     13  HN  UNL     1     -41.265 -52.653  11.439  1.00  0.00     0.166 HD
BRANCH  10  14
HETATM   14  N   UNL     1     -40.339 -53.587  13.685  1.00  0.00    -0.368 N 
BRANCH  14  15
HETATM   15  C   UNL     1     -41.567 -54.181  13.143  1.00  0.00     0.120 C 
HETATM   16  C   UNL     1     -42.693 -54.229  14.165  1.00  0.00     0.026 C 
ENDBRANCH  14  15
BRANCH  14  17
HETATM   17  C   UNL     1     -39.187 -54.450  13.980  1.00  0.00     0.120 C 
HETATM   18  C   UNL     1     -39.116 -54.910  15.429  1.00  0.00     0.026 C 
ENDBRANCH  14  17
ENDBRANCH  10  14
ENDBRANCH   1   7
BRANCH   4  19
HETATM   19  C   UNL     1     -40.943 -45.287  10.351  1.00  0.00     0.089 C 
HETATM   20  C   UNL     1     -40.120 -44.094  10.842  1.00  0.00     0.045 C 
HETATM   21  C   UNL     1     -40.247 -43.962  12.351  1.00  0.00     0.127 C 
HETATM   22  N   UNL     1     -41.636 -43.680  12.682  1.00  0.00    -0.352 N 
HETATM   23  C   UNL     1     -42.567 -44.746  12.309  1.00  0.00     0.127 C 
HETATM   24  C   UNL     1     -42.106 -42.588  13.393  1.00  0.00     0.215 C 
HETATM   25  C   UNL     1     -42.398 -45.193  10.848  1.00  0.00     0.045 C 
HETATM   26  O   UNL     1     -43.303 -42.451  13.664  1.00  0.00    -0.274 OA
HETATM   27  C   UNL     1     -41.149 -41.502  13.827  1.00  0.00     0.117 C 
ENDBRANCH   4  19
TORSDOF 5
ENDMDL
MODEL 6
REMARK VINA RESULT:      -5.3     15.300     19.144
REMARK  5 active torsions:
REMARK  status: ('A' for Active; 'I' for Inactive)
REMARK    1  A    between atoms: C_2  and  N_3 
REMARK    2  A    between atoms: N_3  and  C_4 
REMARK    3  A    between atoms: N_3  and  C_6 
REMARK    4  A    between atoms: C_9  and  N_10 
REMARK       I    between atoms: N_10  and  C_11 
REMARK       I    between atoms: C_11  and  N_13 
REMARK    5  A    between atoms: N_13  and  C_14 
REMARK       I    between atoms: N_17  and  C_20 
ROOT
HETATM    1  N   UNL     1     -51.534 -52.072  -1.244  1.00  0.00    -0.308 N 
HETATM    2  C   UNL     1     -50.512 -51.740  -0.377  1.00  0.00     0.321 C 
HETATM    3  O   UNL     1     -49.634 -52.493   0.014  1.00  0.00    -0.247 OA
HETATM    4  N   UNL     1     -50.589 -50.421  -0.002  1.00  0.00    -0.338 N 
HETATM    5  H   UNL     1     -52.140 -51.323  -1.538  1.00  0.00     0.170 HD
HETATM    6  H   UNL     1     -51.421 -49.919  -0.273  1.00  0.00     0.164 HD
ENDROOT
BRANCH   1   7
HETATM    7  C   UNL     1     -51.820 -53.350  -1.770  1.00  0.00     0.051 A 
HETATM    8  C   UNL     1     -52.856 -54.167  -1.340  1.00  0.00     0.035 A 
HETATM    9  C   UNL     1     -53.103 -55.378  -1.992  1.00  0.00     0.051 A 
HETATM   10  C   UNL     1     -52.325 -55.761  -3.081  1.00  0.00     0.102 A 
HETATM   11  N   UNL     1     -51.285 -54.996  -3.483  1.00  0.00    -0.350 N 
HETATM   12  C   UNL     1     -51.053 -53.833  -2.825  1.00  0.00     0.119 A 
ATOM     13  HN  UNL     1     -50.691 -55.285  -4.260  1.00  0.00     0.166 HD
BRANCH  10  14
HETATM   14  N   UNL     1     -52.686 -56.899  -3.823  1.00  0.00    -0.368 N 
BRANCH  14  15
HETATM   15  C   UNL     1     -54.044 -57.359  -3.510  1.00  0.00     0.120 C 
HETATM   16  C   UNL     1     -54.090 -58.834  -3.139  1.00  0.00     0.026 C 
ENDBRANCH  14  15
BRANCH  14  17
HETATM   17  C   UNL     1     -52.223 -56.905  -5.218  1.00  0.00     0.120 C 
HETATM   18  C   UNL     1     -51.273 -58.048  -5.548  1.00  0.00     0.026 C 
ENDBRANCH  14  17
ENDBRANCH  10  14
ENDBRANCH   1   7
BRANCH   4  19
HETATM   19  C   UNL     1     -49.585 -49.624   0.711  1.00  0.00     0.089 C 
HETATM   20  C   UNL     1     -50.246 -48.966   1.925  1.00  0.00     0.045 C 
HETATM   21  C   UNL     1     -51.019 -47.732   1.489  1.00  0.00     0.127 C 
HETATM   22  N   UNL     1     -50.083 -46.761   0.944  1.00  0.00    -0.352 N 
HETATM   23  C   UNL     1     -49.380 -47.218  -0.255  1.00  0.00     0.127 C 
HETATM   24  C   UNL     1     -49.902 -45.459   1.381  1.00  0.00     0.215 C 
HETATM   25  C   UNL     1     -48.738 -48.603  -0.073  1.00  0.00     0.045 C 
HETATM   26  O   UNL     1     -49.109 -44.689   0.829  1.00  0.00    -0.274 OA
HETATM   27  C   UNL     1     -50.656 -44.957   2.590  1.00  0.00     0.117 C 
ENDBRANCH   4  19
TORSDOF 5
ENDMDL
MODEL 7
REMARK VINA RESULT:      -5.3      4.756     11.359
REMARK  5 active torsions:
REMARK  status: ('A' for Active; 'I' for Inactive)
REMARK    1  A    between atoms: C_2  and  N_3 
REMARK    2  A    between atoms: N_3  and  C_4 
REMARK    3  A    between atoms: N_3  and  C_6 
REMARK    4  A    between atoms: C_9  and  N_10 
REMARK       I    between atoms: N_10  and  C_11 
REMARK       I    between atoms: C_11  and  N_13 
REMARK    5  A    between atoms: N_13  and  C_14 
REMARK       I    between atoms: N_17  and  C_20 
ROOT
HETATM    1  N   UNL     1     -39.930 -55.805  17.080  1.00  0.00    -0.308 N 
HETATM    2  C   UNL     1     -39.794 -55.180  15.856  1.00  0.00     0.321 C 
HETATM    3  O   UNL     1     -38.986 -55.475  14.989  1.00  0.00    -0.247 OA
HETATM    4  N   UNL     1     -40.710 -54.167  15.714  1.00  0.00    -0.338 N 
HETATM    5  H   UNL     1     -40.694 -55.502  17.661  1.00  0.00     0.170 HD
HETATM    6  H   UNL     1     -41.244 -53.917  16.532  1.00  0.00     0.164 HD
ENDROOT
BRANCH   1   7
HETATM    7  C   UNL     1     -39.113 -56.830  17.604  1.00  0.00     0.051 A 
HETATM    8  C   UNL     1     -37.852 -56.634  18.148  1.00  0.00     0.035 A 
HETATM    9  C   UNL     1     -37.166 -57.709  18.720  1.00  0.00     0.051 A 
HETATM   10  C   UNL     1     -37.751 -58.972  18.762  1.00  0.00     0.102 A 
HETATM   11  N   UNL     1     -38.960 -59.187  18.198  1.00  0.00    -0.350 N 
HETATM   12  C   UNL     1     -39.600 -58.133  17.633  1.00  0.00     0.119 A 
ATOM     13  HN  UNL     1     -39.381 -60.116  18.196  1.00  0.00     0.166 HD
BRANCH  10  14
HETATM   14  N   UNL     1     -37.120 -60.003  19.481  1.00  0.00    -0.368 N 
BRANCH  14  15
HETATM   15  C   UNL     1     -35.657 -59.885  19.453  1.00  0.00     0.120 C 
HETATM   16  C   UNL     1     -35.023 -60.739  18.365  1.00  0.00     0.026 C 
ENDBRANCH  14  15
BRANCH  14  17
HETATM   17  C   UNL     1     -37.791 -60.391  20.729  1.00  0.00     0.120 C 
HETATM   18  C   UNL     1     -37.469 -59.486  21.910  1.00  0.00     0.026 C 
ENDBRANCH  14  17
ENDBRANCH  10  14
ENDBRANCH   1   7
BRANCH   4  19
HETATM   19  C   UNL     1     -41.050 -53.420  14.497  1.00  0.00     0.089 C 
HETATM   20  C   UNL     1     -41.868 -52.186  14.886  1.00  0.00     0.045 C 
HETATM   21  C   UNL     1     -43.316 -52.581  15.132  1.00  0.00     0.127 C 
HETATM   22  N   UNL     1     -43.882 -53.087  13.890  1.00  0.00    -0.352 N 
HETATM   23  C   UNL     1     -43.232 -54.298  13.388  1.00  0.00     0.127 C 
HETATM   24  C   UNL     1     -45.006 -52.602  13.243  1.00  0.00     0.215 C 
HETATM   25  C   UNL     1     -41.703 -54.162  13.315  1.00  0.00     0.045 C 
HETATM   26  O   UNL     1     -45.439 -53.122  12.210  1.00  0.00    -0.274 OA
HETATM   27  C   UNL     1     -45.716 -51.380  13.776  1.00  0.00     0.117 C 
ENDBRANCH   4  19
TORSDOF 5
ENDMDL
MODEL 8
REMARK VINA RESULT:      -5.3      3.209      5.303
REMARK  5 active torsions:
REMARK  status: ('A' for Active; 'I' for Inactive)
REMARK    1  A    between atoms: C_2  and  N_3 
REMARK    2  A    between atoms: N_3  and  C_4 
REMARK    3  A    between atoms: N_3  and  C_6 
REMARK    4  A    between atoms: C_9  and  N_10 
REMARK       I    between atoms: N_10  and  C_11 
REMARK       I    between atoms: C_11  and  N_13 
REMARK    5  A    between atoms: N_13  and  C_14 
REMARK       I    between atoms: N_17  and  C_20 
ROOT
HETATM    1  N   UNL     1     -40.108 -46.026  12.202  1.00  0.00    -0.308 N 
HETATM    2  C   UNL     1     -40.288 -47.226  11.542  1.00  0.00     0.321 C 
HETATM    3  O   UNL     1     -41.077 -47.430  10.633  1.00  0.00    -0.247 OA
HETATM    4  N   UNL     1     -39.439 -48.190  12.029  1.00  0.00    -0.338 N 
HETATM    5  H   UNL     1     -39.363 -45.988  12.879  1.00  0.00     0.170 HD
HETATM    6  H   UNL     1     -38.920 -47.961  12.863  1.00  0.00     0.164 HD
ENDROOT
BRANCH   1   7
HETATM    7  C   UNL     1     -40.855 -44.841  12.027  1.00  0.00     0.051 A 
HETATM    8  C   UNL     1     -42.092 -44.596  12.606  1.00  0.00     0.035 A 
HETATM    9  C   UNL     1     -42.704 -43.351  12.437  1.00  0.00     0.051 A 
HETATM   10  C   UNL     1     -42.070 -42.351  11.704  1.00  0.00     0.102 A 
HETATM   11  N   UNL     1     -40.886 -42.590  11.099  1.00  0.00    -0.350 N 
HETATM   12  C   UNL     1     -40.318 -43.811  11.262  1.00  0.00     0.119 A 
ATOM     13  HN  UNL     1     -40.430 -41.873  10.534  1.00  0.00     0.166 HD
BRANCH  10  14
HETATM   14  N   UNL     1     -42.622 -41.057  11.678  1.00  0.00    -0.368 N 
BRANCH  14  15
HETATM   15  C   UNL     1     -41.768 -40.104  10.960  1.00  0.00     0.120 C 
HETATM   16  C   UNL     1     -41.200 -39.027  11.872  1.00  0.00     0.026 C 
ENDBRANCH  14  15
BRANCH  14  17
HETATM   17  C   UNL     1     -44.079 -41.006  11.494  1.00  0.00     0.120 C 
HETATM   18  C   UNL     1     -44.822 -40.331  12.639  1.00  0.00     0.026 C 
ENDBRANCH  14  17
ENDBRANCH  10  14
ENDBRANCH   1   7
BRANCH   4  19
HETATM   19  C   UNL     1     -39.152 -49.512  11.460  1.00  0.00     0.089 C 
HETATM   20  C   UNL     1     -40.455 -50.313  11.389  1.00  0.00     0.045 C 
HETATM   21  C   UNL     1     -40.782 -50.894  12.755  1.00  0.00     0.127 C 
HETATM   22  N   UNL     1     -39.733 -51.830  13.130  1.00  0.00    -0.352 N 
HETATM   23  C   UNL     1     -38.412 -51.218  13.277  1.00  0.00     0.127 C 
HETATM   24  C   UNL     1     -39.903 -53.165  13.456  1.00  0.00     0.215 C 
HETATM   25  C   UNL     1     -38.018 -50.362  12.064  1.00  0.00     0.045 C 
HETATM   26  O   UNL     1     -38.955 -53.878  13.803  1.00  0.00    -0.274 OA
HETATM   27  C   UNL     1     -41.270 -53.800  13.354  1.00  0.00     0.117 C 
ENDBRANCH   4  19
TORSDOF 5
ENDMDL
MODEL 9
REMARK VINA RESULT:      -5.3      4.081      9.876
REMARK  5 active torsions:
REMARK  status: ('A' for Active; 'I' for Inactive)
REMARK    1  A    between atoms: C_2  and  N_3 
REMARK    2  A    between atoms: N_3  and  C_4 
REMARK    3  A    between atoms: N_3  and  C_6 
REMARK    4  A    between atoms: C_9  and  N_10 
REMARK       I    between atoms: N_10  and  C_11 
REMARK       I    between atoms: C_11  and  N_13 
REMARK    5  A    between atoms: N_13  and  C_14 
REMARK       I    between atoms: N_17  and  C_20 
ROOT
HETATM    1  N   UNL     1     -41.695 -47.773  12.832  1.00  0.00    -0.308 N 
HETATM    2  C   UNL     1     -42.095 -46.792  11.946  1.00  0.00     0.321 C 
HETATM    3  O   UNL     1     -43.061 -46.852  11.202  1.00  0.00    -0.247 OA
HETATM    4  N   UNL     1     -41.264 -45.700  12.009  1.00  0.00    -0.338 N 
HETATM    5  H   UNL     1     -40.922 -47.549  13.438  1.00  0.00     0.170 HD
HETATM    6  H   UNL     1     -40.424 -45.798  12.557  1.00  0.00     0.164 HD
ENDROOT
BRANCH   1   7
HETATM    7  C   UNL     1     -42.257 -49.058  12.985  1.00  0.00     0.051 A 
HETATM    8  C   UNL     1     -43.204 -49.397  13.941  1.00  0.00     0.035 A 
HETATM    9  C   UNL     1     -43.760 -50.680  13.947  1.00  0.00     0.051 A 
HETATM   10  C   UNL     1     -43.378 -51.613  12.987  1.00  0.00     0.102 A 
HETATM   11  N   UNL     1     -42.425 -51.311  12.077  1.00  0.00    -0.350 N 
HETATM   12  C   UNL     1     -41.888 -50.066  12.101  1.00  0.00     0.119 A 
ATOM     13  HN  UNL     1     -42.118 -52.001  11.391  1.00  0.00     0.166 HD
BRANCH  10  14
HETATM   14  N   UNL     1     -44.060 -52.841  12.907  1.00  0.00    -0.368 N 
BRANCH  14  15
HETATM   15  C   UNL     1     -43.230 -53.967  13.348  1.00  0.00     0.120 C 
HETATM   16  C   UNL     1     -43.859 -54.742  14.496  1.00  0.00     0.026 C 
ENDBRANCH  14  15
BRANCH  14  17
HETATM   17  C   UNL     1     -45.477 -52.791  13.293  1.00  0.00     0.120 C 
HETATM   18  C   UNL     1     -46.385 -52.187  12.230  1.00  0.00     0.026 C 
ENDBRANCH  14  17
ENDBRANCH  10  14
ENDBRANCH   1   7
BRANCH   4  19
HETATM   19  C   UNL     1     -41.467 -44.375  11.411  1.00  0.00     0.089 C 
HETATM   20  C   UNL     1     -40.129 -43.632  11.391  1.00  0.00     0.045 C 
HETATM   21  C   UNL     1     -39.840 -43.046  12.764  1.00  0.00     0.127 C 
HETATM   22  N   UNL     1     -40.863 -42.061  13.078  1.00  0.00    -0.352 N 
HETATM   23  C   UNL     1     -42.215 -42.613  13.172  1.00  0.00     0.127 C 
HETATM   24  C   UNL     1     -40.651 -40.729  13.396  1.00  0.00     0.215 C 
HETATM   25  C   UNL     1     -42.590 -43.469  11.952  1.00  0.00     0.045 C 
HETATM   26  O   UNL     1     -41.582 -39.972  13.690  1.00  0.00    -0.274 OA
HETATM   27  C   UNL     1     -39.254 -40.155  13.350  1.00  0.00     0.117 C 
ENDBRANCH   4  19
TORSDOF 5
ENDMDL
