MODEL 1
REMARK VINA RESULT:      -5.6      0.000      0.000
REMARK  5 active torsions:
REMARK  status: ('A' for Active; 'I' for Inactive)
REMARK    1  A    between atoms: C_5  and  N_6 
REMARK    2  A    between atoms: N_6  and  C_7 
REMARK    3  A    between atoms: C_7  and  C_8 
REMARK    4  A    between atoms: C_8  and  N_9 
REMARK    5  A    between atoms: C_8  and  C_12 
ROOT
HETATM    1  C   UNL     1     -43.252 -54.736  15.389  1.00  0.00     0.310 C 
ENDROOT
BRANCH   1   2
HETATM    2  N   UNL     1     -44.262 -53.692  15.566  1.00  0.00     0.090 N 
HETATM    3  H   UNL     1     -44.490 -53.680  16.556  1.00  0.00     0.316 HD
BRANCH   2   4
HETATM    4  C   UNL     1     -45.521 -53.910  14.842  1.00  0.00     0.224 C 
HETATM    5  C   UNL     1     -45.328 -54.153  13.333  1.00  0.00     0.036 C 
HETATM    6  C   UNL     1     -44.758 -52.931  12.613  1.00  0.00     0.006 C 
HETATM    7  C   UNL     1     -45.611 -51.674  12.828  1.00  0.00    -0.018 C 
HETATM    8  C   UNL     1     -46.929 -51.750  12.051  1.00  0.00     0.010 C 
HETATM    9  C   UNL     1     -45.861 -51.428  14.325  1.00  0.00     0.010 C 
HETATM   10  C   UNL     1     -46.431 -52.663  15.048  1.00  0.00     0.015 C 
HETATM   11  C   UNL     1     -46.690 -52.333  16.524  1.00  0.00     0.012 C 
ENDBRANCH   2   4
ENDBRANCH   1   2
BRANCH   1  12
HETATM   12  C   UNL     1     -41.771 -54.211  15.441  1.00  0.00     0.285 C 
BRANCH  12  13
HETATM   13  N   UNL     1     -40.674 -55.136  15.824  1.00  0.00     0.090 N 
HETATM   14  C   UNL     1     -39.427 -54.483  16.210  1.00  0.00     0.310 C 
HETATM   15  C   UNL     1     -41.029 -56.173  16.785  1.00  0.00     0.310 C 
ENDBRANCH  12  13
BRANCH  12  16
HETATM   16  C   UNL     1     -41.449 -53.566  14.110  1.00  0.00     0.011 A 
HETATM   17  C   UNL     1     -41.150 -54.206  12.881  1.00  0.00     0.118 A 
HETATM   18  N   UNL     1     -40.847 -53.341  11.908  1.00  0.00    -0.310 N 
HETATM   19  N   UNL     1     -40.957 -52.144  12.504  1.00  0.00    -0.308 N 
ATOM     20  HN  UNL     1     -40.593 -53.543  10.941  1.00  0.00     0.186 HD
HETATM   21  C   UNL     1     -40.726 -50.924  11.772  1.00  0.00     0.177 C 
HETATM   22  C   UNL     1     -41.282 -52.224  13.824  1.00  0.00     0.120 A 
ENDBRANCH  12  16
ENDBRANCH   1  12
TORSDOF 5
ENDMDL
MODEL 2
REMARK VINA RESULT:      -5.6      1.818      3.361
REMARK  5 active torsions:
REMARK  status: ('A' for Active; 'I' for Inactive)
REMARK    1  A    between atoms: C_5  and  N_6 
REMARK    2  A    between atoms: N_6  and  C_7 
REMARK    3  A    between atoms: C_7  and  C_8 
REMARK    4  A    between atoms: C_8  and  N_9 
REMARK    5  A    between atoms: C_8  and  C_12 
ROOT
HETATM    1  C   UNL     1     -42.889 -52.092  12.552  1.00  0.00     0.310 C 
ENDROOT
BRANCH   1   2
HETATM    2  N   UNL     1     -44.084 -52.402  13.337  1.00  0.00     0.090 N 
HETATM    3  H   UNL     1     -44.697 -52.933  12.725  1.00  0.00     0.316 HD
BRANCH   2   4
HETATM    4  C   UNL     1     -44.849 -51.236  13.798  1.00  0.00     0.224 C 
HETATM    5  C   UNL     1     -44.622 -50.901  15.284  1.00  0.00     0.036 C 
HETATM    6  C   UNL     1     -45.132 -52.002  16.216  1.00  0.00     0.006 C 
HETATM    7  C   UNL     1     -46.613 -52.327  15.981  1.00  0.00    -0.018 C 
HETATM    8  C   UNL     1     -47.523 -51.209  16.498  1.00  0.00     0.010 C 
HETATM    9  C   UNL     1     -46.882 -52.622  14.497  1.00  0.00     0.010 C 
HETATM   10  C   UNL     1     -46.363 -51.513  13.562  1.00  0.00     0.015 C 
HETATM   11  C   UNL     1     -46.700 -51.857  12.104  1.00  0.00     0.012 C 
ENDBRANCH   2   4
ENDBRANCH   1   2
BRANCH   1  12
HETATM   12  C   UNL     1     -41.604 -51.827  13.418  1.00  0.00     0.285 C 
BRANCH  12  13
HETATM   13  N   UNL     1     -40.917 -52.962  14.086  1.00  0.00     0.090 N 
HETATM   14  C   UNL     1     -41.277 -53.161  15.486  1.00  0.00     0.310 C 
HETATM   15  C   UNL     1     -40.945 -54.229  13.365  1.00  0.00     0.310 C 
ENDBRANCH  12  13
BRANCH  12  16
HETATM   16  C   UNL     1     -40.611 -51.061  12.572  1.00  0.00     0.011 A 
HETATM   17  C   UNL     1     -40.868 -50.285  11.414  1.00  0.00     0.118 A 
HETATM   18  N   UNL     1     -39.753 -49.790  10.866  1.00  0.00    -0.310 N 
HETATM   19  N   UNL     1     -38.778 -50.238  11.671  1.00  0.00    -0.308 N 
ATOM     20  HN  UNL     1     -39.665 -49.209  10.032  1.00  0.00     0.186 HD
HETATM   21  C   UNL     1     -37.398 -49.900  11.430  1.00  0.00     0.177 C 
HETATM   22  C   UNL     1     -39.233 -51.026  12.685  1.00  0.00     0.120 A 
ENDBRANCH  12  16
ENDBRANCH   1  12
TORSDOF 5
ENDMDL
MODEL 3
REMARK VINA RESULT:      -5.3      2.357      3.917
REMARK  5 active torsions:
REMARK  status: ('A' for Active; 'I' for Inactive)
REMARK    1  A    between atoms: C_5  and  N_6 
REMARK    2  A    between atoms: N_6  and  C_7 
REMARK    3  A    between atoms: C_7  and  C_8 
REMARK    4  A    between atoms: C_8  and  N_9 
REMARK    5  A    between atoms: C_8  and  C_12 
ROOT
HETATM    1  C   UNL     1     -43.076 -52.045  12.982  1.00  0.00     0.310 C 
ENDROOT
BRANCH   1   2
HETATM    2  N   UNL     1     -44.142 -52.297  13.952  1.00  0.00     0.090 N 
HETATM    3  H   UNL     1     -44.773 -52.961  13.516  1.00  0.00     0.316 HD
BRANCH   2   4
HETATM    4  C   UNL     1     -44.945 -51.123  14.318  1.00  0.00     0.224 C 
HETATM    5  C   UNL     1     -44.840 -50.745  15.808  1.00  0.00     0.036 C 
HETATM    6  C   UNL     1     -45.421 -51.822  16.725  1.00  0.00     0.006 C 
HETATM    7  C   UNL     1     -46.877 -52.162  16.380  1.00  0.00    -0.018 C 
HETATM    8  C   UNL     1     -47.829 -51.035  16.790  1.00  0.00     0.010 C 
HETATM    9  C   UNL     1     -47.024 -52.500  14.888  1.00  0.00     0.010 C 
HETATM   10  C   UNL     1     -46.434 -51.414  13.967  1.00  0.00     0.015 C 
HETATM   11  C   UNL     1     -46.650 -51.800  12.497  1.00  0.00     0.012 C 
ENDBRANCH   2   4
ENDBRANCH   1   2
BRANCH   1  12
HETATM   12  C   UNL     1     -42.077 -50.908  13.408  1.00  0.00     0.285 C 
BRANCH  12  13
HETATM   13  N   UNL     1     -40.759 -51.265  13.992  1.00  0.00     0.090 N 
HETATM   14  C   UNL     1     -40.521 -50.748  15.335  1.00  0.00     0.310 C 
HETATM   15  C   UNL     1     -40.395 -52.675  13.913  1.00  0.00     0.310 C 
ENDBRANCH  12  13
BRANCH  12  16
HETATM   16  C   UNL     1     -41.874 -49.987  12.224  1.00  0.00     0.011 A 
HETATM   17  C   UNL     1     -40.787 -49.963  11.315  1.00  0.00     0.118 A 
HETATM   18  N   UNL     1     -40.885 -48.977  10.417  1.00  0.00    -0.310 N 
HETATM   19  N   UNL     1     -42.036 -48.368  10.741  1.00  0.00    -0.308 N 
ATOM     20  HN  UNL     1     -40.238 -48.743   9.664  1.00  0.00     0.186 HD
HETATM   21  C   UNL     1     -42.523 -47.243   9.983  1.00  0.00     0.177 C 
HETATM   22  C   UNL     1     -42.648 -48.911  11.830  1.00  0.00     0.120 A 
ENDBRANCH  12  16
ENDBRANCH   1  12
TORSDOF 5
ENDMDL
MODEL 4
REMARK VINA RESULT:      -5.3      3.430      6.054
REMARK  5 active torsions:
REMARK  status: ('A' for Active; 'I' for Inactive)
REMARK    1  A    between atoms: C_5  and  N_6 
REMARK    2  A    between atoms: N_6  and  C_7 
REMARK    3  A    between atoms: C_7  and  C_8 
REMARK    4  A    between atoms: C_8  and  N_9 
REMARK    5  A    between atoms: C_8  and  C_12 
ROOT
HETATM    1  C   UNL     1     -40.406 -50.174  11.361  1.00  0.00     0.310 C 
ENDROOT
BRANCH   1   2
HETATM    2  N   UNL     1     -41.384 -51.189  11.755  1.00  0.00     0.090 N 
HETATM    3  H   UNL     1     -42.294 -50.824  11.494  1.00  0.00     0.316 HD
BRANCH   2   4
HETATM    4  C   UNL     1     -41.438 -51.481  13.193  1.00  0.00     0.224 C 
HETATM    5  C   UNL     1     -40.618 -52.719  13.601  1.00  0.00     0.036 C 
HETATM    6  C   UNL     1     -41.171 -54.011  12.996  1.00  0.00     0.006 C 
HETATM    7  C   UNL     1     -42.649 -54.233  13.344  1.00  0.00    -0.018 C 
HETATM    8  C   UNL     1     -42.828 -54.623  14.814  1.00  0.00     0.010 C 
HETATM    9  C   UNL     1     -43.489 -52.995  12.991  1.00  0.00     0.010 C 
HETATM   10  C   UNL     1     -42.925 -51.696  13.598  1.00  0.00     0.015 C 
HETATM   11  C   UNL     1     -43.834 -50.512  13.237  1.00  0.00     0.012 C 
ENDBRANCH   2   4
ENDBRANCH   1   2
BRANCH   1  12
HETATM   12  C   UNL     1     -40.556 -48.808  12.125  1.00  0.00     0.285 C 
BRANCH  12  13
HETATM   13  N   UNL     1     -39.390 -48.231  12.841  1.00  0.00     0.090 N 
HETATM   14  C   UNL     1     -39.671 -47.760  14.194  1.00  0.00     0.310 C 
HETATM   15  C   UNL     1     -38.176 -49.037  12.821  1.00  0.00     0.310 C 
ENDBRANCH  12  13
BRANCH  12  16
HETATM   16  C   UNL     1     -41.116 -47.784  11.161  1.00  0.00     0.011 A 
HETATM   17  C   UNL     1     -40.589 -46.507  10.843  1.00  0.00     0.118 A 
HETATM   18  N   UNL     1     -41.366 -45.823   9.997  1.00  0.00    -0.310 N 
HETATM   19  N   UNL     1     -42.389 -46.658   9.762  1.00  0.00    -0.308 N 
ATOM     20  HN  UNL     1     -41.216 -44.887   9.619  1.00  0.00     0.186 HD
HETATM   21  C   UNL     1     -43.457 -46.294   8.865  1.00  0.00     0.177 C 
HETATM   22  C   UNL     1     -42.305 -47.827  10.456  1.00  0.00     0.120 A 
ENDBRANCH  12  16
ENDBRANCH   1  12
TORSDOF 5
ENDMDL
MODEL 5
REMARK VINA RESULT:      -5.3      2.719      5.115
REMARK  5 active torsions:
REMARK  status: ('A' for Active; 'I' for Inactive)
REMARK    1  A    between atoms: C_5  and  N_6 
REMARK    2  A    between atoms: N_6  and  C_7 
REMARK    3  A    between atoms: C_7  and  C_8 
REMARK    4  A    between atoms: C_8  and  N_9 
REMARK    5  A    between atoms: C_8  and  C_12 
ROOT
HETATM    1  C   UNL     1     -43.221 -49.465  13.229  1.00  0.00     0.310 C 
ENDROOT
BRANCH   1   2
HETATM    2  N   UNL     1     -44.162 -50.580  13.111  1.00  0.00     0.090 N 
HETATM    3  H   UNL     1     -45.084 -50.166  13.019  1.00  0.00     0.316 HD
BRANCH   2   4
HETATM    4  C   UNL     1     -44.212 -51.481  14.269  1.00  0.00     0.224 C 
HETATM    5  C   UNL     1     -43.069 -52.513  14.295  1.00  0.00     0.036 C 
HETATM    6  C   UNL     1     -43.143 -53.497  13.127  1.00  0.00     0.006 C 
HETATM    7  C   UNL     1     -44.493 -54.224  13.059  1.00  0.00    -0.018 C 
HETATM    8  C   UNL     1     -44.632 -55.256  14.181  1.00  0.00     0.010 C 
HETATM    9  C   UNL     1     -45.659 -53.222  13.077  1.00  0.00     0.010 C 
HETATM   10  C   UNL     1     -45.577 -52.230  14.254  1.00  0.00     0.015 C 
HETATM   11  C   UNL     1     -46.790 -51.288  14.229  1.00  0.00     0.012 C 
ENDBRANCH   2   4
ENDBRANCH   1   2
BRANCH   1  12
HETATM   12  C   UNL     1     -42.595 -49.007  11.861  1.00  0.00     0.285 C 
BRANCH  12  13
HETATM   13  N   UNL     1     -42.552 -47.562  11.517  1.00  0.00     0.090 N 
HETATM   14  C   UNL     1     -43.282 -47.196  10.308  1.00  0.00     0.310 C 
HETATM   15  C   UNL     1     -42.868 -46.645  12.605  1.00  0.00     0.310 C 
ENDBRANCH  12  13
BRANCH  12  16
HETATM   16  C   UNL     1     -41.205 -49.595  11.754  1.00  0.00     0.011 A 
HETATM   17  C   UNL     1     -40.826 -50.957  11.856  1.00  0.00     0.118 A 
HETATM   18  N   UNL     1     -39.502 -51.132  11.779  1.00  0.00    -0.310 N 
HETATM   19  N   UNL     1     -39.028 -49.887  11.620  1.00  0.00    -0.308 N 
ATOM     20  HN  UNL     1     -38.977 -52.006  11.829  1.00  0.00     0.186 HD
HETATM   21  C   UNL     1     -37.615 -49.641  11.473  1.00  0.00     0.177 C 
HETATM   22  C   UNL     1     -39.998 -48.932  11.631  1.00  0.00     0.120 A 
ENDBRANCH  12  16
ENDBRANCH   1  12
TORSDOF 5
ENDMDL
MODEL 6
REMARK VINA RESULT:      -5.2      2.211      3.595
REMARK  5 active torsions:
REMARK  status: ('A' for Active; 'I' for Inactive)
REMARK    1  A    between atoms: C_5  and  N_6 
REMARK    2  A    between atoms: N_6  and  C_7 
REMARK    3  A    between atoms: C_7  and  C_8 
REMARK    4  A    between atoms: C_8  and  N_9 
REMARK    5  A    between atoms: C_8  and  C_12 
ROOT
HETATM    1  C   UNL     1     -41.225 -52.566  11.936  1.00  0.00     0.310 C 
ENDROOT
BRANCH   1   2
HETATM    2  N   UNL     1     -42.672 -52.629  12.142  1.00  0.00     0.090 N 
HETATM    3  H   UNL     1     -43.059 -51.798  11.705  1.00  0.00     0.316 HD
BRANCH   2   4
HETATM    4  C   UNL     1     -43.106 -52.614  13.545  1.00  0.00     0.224 C 
HETATM    5  C   UNL     1     -43.576 -53.988  14.058  1.00  0.00     0.036 C 
HETATM    6  C   UNL     1     -44.837 -54.477  13.344  1.00  0.00     0.006 C 
HETATM    7  C   UNL     1     -45.990 -53.469  13.436  1.00  0.00    -0.018 C 
HETATM    8  C   UNL     1     -46.582 -53.420  14.848  1.00  0.00     0.010 C 
HETATM    9  C   UNL     1     -45.539 -52.074  12.973  1.00  0.00     0.010 C 
HETATM   10  C   UNL     1     -44.266 -51.587  13.692  1.00  0.00     0.015 C 
HETATM   11  C   UNL     1     -43.899 -50.177  13.209  1.00  0.00     0.012 C 
ENDBRANCH   2   4
ENDBRANCH   1   2
BRANCH   1  12
HETATM   12  C   UNL     1     -40.457 -51.740  13.031  1.00  0.00     0.285 C 
BRANCH  12  13
HETATM   13  N   UNL     1     -39.362 -52.379  13.805  1.00  0.00     0.090 N 
HETATM   14  C   UNL     1     -39.077 -51.759  15.095  1.00  0.00     0.310 C 
HETATM   15  C   UNL     1     -39.447 -53.828  13.939  1.00  0.00     0.310 C 
ENDBRANCH  12  13
BRANCH  12  16
HETATM   16  C   UNL     1     -39.950 -50.464  12.395  1.00  0.00     0.011 A 
HETATM   17  C   UNL     1     -38.705 -50.245  11.753  1.00  0.00     0.118 A 
HETATM   18  N   UNL     1     -38.544 -48.979  11.354  1.00  0.00    -0.310 N 
HETATM   19  N   UNL     1     -39.685 -48.382  11.731  1.00  0.00    -0.308 N 
ATOM     20  HN  UNL     1     -37.743 -48.565  10.877  1.00  0.00     0.186 HD
HETATM   21  C   UNL     1     -39.920 -46.986  11.460  1.00  0.00     0.177 C 
HETATM   22  C   UNL     1     -40.542 -49.215  12.384  1.00  0.00     0.120 A 
ENDBRANCH  12  16
ENDBRANCH   1  12
TORSDOF 5
ENDMDL
MODEL 7
REMARK VINA RESULT:      -5.2      2.028      4.240
REMARK  5 active torsions:
REMARK  status: ('A' for Active; 'I' for Inactive)
REMARK    1  A    between atoms: C_5  and  N_6 
REMARK    2  A    between atoms: N_6  and  C_7 
REMARK    3  A    between atoms: C_7  and  C_8 
REMARK    4  A    between atoms: C_8  and  N_9 
REMARK    5  A    between atoms: C_8  and  C_12 
ROOT
HETATM    1  C   UNL     1     -43.106 -49.950  13.507  1.00  0.00     0.310 C 
ENDROOT
BRANCH   1   2
HETATM    2  N   UNL     1     -44.231 -50.630  12.863  1.00  0.00     0.090 N 
HETATM    3  H   UNL     1     -44.728 -49.920  12.334  1.00  0.00     0.316 HD
BRANCH   2   4
HETATM    4  C   UNL     1     -45.204 -51.236  13.780  1.00  0.00     0.224 C 
HETATM    5  C   UNL     1     -44.556 -52.082  14.893  1.00  0.00     0.036 C 
HETATM    6  C   UNL     1     -43.831 -53.312  14.344  1.00  0.00     0.006 C 
HETATM    7  C   UNL     1     -44.748 -54.198  13.489  1.00  0.00    -0.018 C 
HETATM    8  C   UNL     1     -45.765 -54.950  14.351  1.00  0.00     0.010 C 
HETATM    9  C   UNL     1     -45.446 -53.373  12.396  1.00  0.00     0.010 C 
HETATM   10  C   UNL     1     -46.171 -52.133  12.953  1.00  0.00     0.015 C 
HETATM   11  C   UNL     1     -46.875 -51.382  11.813  1.00  0.00     0.012 C 
ENDBRANCH   2   4
ENDBRANCH   1   2
BRANCH   1  12
HETATM   12  C   UNL     1     -41.778 -49.971  12.667  1.00  0.00     0.285 C 
BRANCH  12  13
HETATM   13  N   UNL     1     -40.697 -48.998  12.970  1.00  0.00     0.090 N 
HETATM   14  C   UNL     1     -39.864 -48.629  11.831  1.00  0.00     0.310 C 
HETATM   15  C   UNL     1     -41.107 -47.812  13.712  1.00  0.00     0.310 C 
ENDBRANCH  12  13
BRANCH  12  16
HETATM   16  C   UNL     1     -41.218 -51.377  12.700  1.00  0.00     0.011 A 
HETATM   17  C   UNL     1     -41.413 -52.415  11.754  1.00  0.00     0.118 A 
HETATM   18  N   UNL     1     -40.827 -53.561  12.116  1.00  0.00    -0.310 N 
HETATM   19  N   UNL     1     -40.248 -53.263  13.289  1.00  0.00    -0.308 N 
ATOM     20  HN  UNL     1     -40.821 -54.451  11.618  1.00  0.00     0.186 HD
HETATM   21  C   UNL     1     -39.483 -54.247  14.013  1.00  0.00     0.177 C 
HETATM   22  C   UNL     1     -40.478 -51.984  13.698  1.00  0.00     0.120 A 
ENDBRANCH  12  16
ENDBRANCH   1  12
TORSDOF 5
ENDMDL
MODEL 8
REMARK VINA RESULT:      -5.1      3.532      6.186
REMARK  5 active torsions:
REMARK  status: ('A' for Active; 'I' for Inactive)
REMARK    1  A    between atoms: C_5  and  N_6 
REMARK    2  A    between atoms: N_6  and  C_7 
REMARK    3  A    between atoms: C_7  and  C_8 
REMARK    4  A    between atoms: C_8  and  N_9 
REMARK    5  A    between atoms: C_8  and  C_12 
ROOT
HETATM    1  C   UNL     1     -40.454 -49.846  11.034  1.00  0.00     0.310 C 
ENDROOT
BRANCH   1   2
HETATM    2  N   UNL     1     -41.080 -51.093  11.473  1.00  0.00     0.090 N 
HETATM    3  H   UNL     1     -42.059 -51.027  11.214  1.00  0.00     0.316 HD
BRANCH   2   4
HETATM    4  C   UNL     1     -41.037 -51.339  12.921  1.00  0.00     0.224 C 
HETATM    5  C   UNL     1     -40.216 -52.582  13.310  1.00  0.00     0.036 C 
HETATM    6  C   UNL     1     -40.838 -53.879  12.789  1.00  0.00     0.006 C 
HETATM    7  C   UNL     1     -42.291 -54.056  13.247  1.00  0.00    -0.018 C 
HETATM    8  C   UNL     1     -42.373 -54.396  14.738  1.00  0.00     0.010 C 
HETATM    9  C   UNL     1     -43.129 -52.811  12.913  1.00  0.00     0.010 C 
HETATM   10  C   UNL     1     -42.496 -51.506  13.436  1.00  0.00     0.015 C 
HETATM   11  C   UNL     1     -43.403 -50.313  13.101  1.00  0.00     0.012 C 
ENDBRANCH   2   4
ENDBRANCH   1   2
BRANCH   1  12
HETATM   12  C   UNL     1     -39.792 -49.017  12.194  1.00  0.00     0.285 C 
BRANCH  12  13
HETATM   13  N   UNL     1     -38.313 -48.997  12.336  1.00  0.00     0.090 N 
HETATM   14  C   UNL     1     -37.825 -49.152  13.702  1.00  0.00     0.310 C 
HETATM   15  C   UNL     1     -37.581 -49.870  11.427  1.00  0.00     0.310 C 
ENDBRANCH  12  13
BRANCH  12  16
HETATM   16  C   UNL     1     -40.313 -47.598  12.122  1.00  0.00     0.011 A 
HETATM   17  C   UNL     1     -41.444 -47.051  12.779  1.00  0.00     0.118 A 
HETATM   18  N   UNL     1     -41.667 -45.774  12.448  1.00  0.00    -0.310 N 
HETATM   19  N   UNL     1     -40.678 -45.495  11.585  1.00  0.00    -0.308 N 
ATOM     20  HN  UNL     1     -42.412 -45.159  12.774  1.00  0.00     0.186 HD
HETATM   21  C   UNL     1     -40.548 -44.184  11.000  1.00  0.00     0.177 C 
HETATM   22  C   UNL     1     -39.863 -46.556  11.332  1.00  0.00     0.120 A 
ENDBRANCH  12  16
ENDBRANCH   1  12
TORSDOF 5
ENDMDL
MODEL 9
REMARK VINA RESULT:      -4.9      3.502      5.681
REMARK  5 active torsions:
REMARK  status: ('A' for Active; 'I' for Inactive)
REMARK    1  A    between atoms: C_5  and  N_6 
REMARK    2  A    between atoms: N_6  and  C_7 
REMARK    3  A    between atoms: C_7  and  C_8 
REMARK    4  A    between atoms: C_8  and  N_9 
REMARK    5  A    between atoms: C_8  and  C_12 
ROOT
HETATM    1  C   UNL     1     -41.868 -50.221  12.391  1.00  0.00     0.310 C 
ENDROOT
BRANCH   1   2
HETATM    2  N   UNL     1     -43.119 -50.973  12.485  1.00  0.00     0.090 N 
HETATM    3  H   UNL     1     -43.859 -50.329  12.224  1.00  0.00     0.316 HD
BRANCH   2   4
HETATM    4  C   UNL     1     -43.447 -51.477  13.825  1.00  0.00     0.224 C 
HETATM    5  C   UNL     1     -42.345 -52.364  14.435  1.00  0.00     0.036 C 
HETATM    6  C   UNL     1     -42.139 -53.661  13.652  1.00  0.00     0.006 C 
HETATM    7  C   UNL     1     -43.435 -54.471  13.512  1.00  0.00    -0.018 C 
HETATM    8  C   UNL     1     -43.840 -55.117  14.840  1.00  0.00     0.010 C 
HETATM    9  C   UNL     1     -44.569 -53.601  12.947  1.00  0.00     0.010 C 
HETATM   10  C   UNL     1     -44.770 -52.293  13.736  1.00  0.00     0.015 C 
HETATM   11  C   UNL     1     -45.939 -51.496  13.141  1.00  0.00     0.012 C 
ENDBRANCH   2   4
ENDBRANCH   1   2
BRANCH   1  12
HETATM   12  C   UNL     1     -42.044 -48.664  12.517  1.00  0.00     0.285 C 
BRANCH  12  13
HETATM   13  N   UNL     1     -40.899 -47.824  12.950  1.00  0.00     0.090 N 
HETATM   14  C   UNL     1     -41.255 -46.678  13.781  1.00  0.00     0.310 C 
HETATM   15  C   UNL     1     -39.770 -48.545  13.527  1.00  0.00     0.310 C 
ENDBRANCH  12  13
BRANCH  12  16
HETATM   16  C   UNL     1     -42.590 -48.140  11.206  1.00  0.00     0.011 A 
HETATM   17  C   UNL     1     -41.929 -48.069   9.954  1.00  0.00     0.118 A 
HETATM   18  N   UNL     1     -42.676 -47.490   9.007  1.00  0.00    -0.310 N 
HETATM   19  N   UNL     1     -43.819 -47.194   9.644  1.00  0.00    -0.308 N 
ATOM     20  HN  UNL     1     -42.434 -47.315   8.032  1.00  0.00     0.186 HD
HETATM   21  C   UNL     1     -44.917 -46.565   8.953  1.00  0.00     0.177 C 
HETATM   22  C   UNL     1     -43.808 -47.531  10.964  1.00  0.00     0.120 A 
ENDBRANCH  12  16
ENDBRANCH   1  12
TORSDOF 5
ENDMDL
