MODEL 1
REMARK VINA RESULT:      -5.9      0.000      0.000
REMARK  4 active torsions:
REMARK  status: ('A' for Active; 'I' for Inactive)
REMARK       I    between atoms: C_2  and  N_3 
REMARK       I    between atoms: C_2  and  N_12 
REMARK    1  A    between atoms: N_3  and  C_4 
REMARK    2  A    between atoms: C_4  and  C_5 
REMARK    3  A    between atoms: C_5  and  C_6 
REMARK    4  A    between atoms: N_12  and  C_13 
ROOT
HETATM    1  O   UNL     1     -44.972 -54.636  12.677  1.00  0.00    -0.247 OA
HETATM    2  C   UNL     1     -44.335 -53.596  12.518  1.00  0.00     0.323 C 
HETATM    3  N   UNL     1     -44.926 -52.370  12.416  1.00  0.00    -0.343 N 
HETATM    4  N   UNL     1     -42.990 -53.670  12.382  1.00  0.00    -0.274 N 
HETATM    5  H   UNL     1     -44.309 -51.569  12.527  1.00  0.00     0.164 HD
HETATM    6  H   UNL     1     -42.594 -54.597  12.377  1.00  0.00     0.174 HD
ENDROOT
BRANCH   3   7
HETATM    7  C   UNL     1     -46.345 -52.199  12.666  1.00  0.00     0.127 C 
BRANCH   7   8
HETATM    8  C   UNL     1     -46.621 -51.375  13.922  1.00  0.00     0.051 C 
BRANCH   8   9
HETATM    9  C   UNL     1     -46.919 -52.282  15.130  1.00  0.00     0.123 C 
HETATM   10  C   UNL     1     -47.450 -51.523  16.346  1.00  0.00     0.032 C 
HETATM   11  C   UNL     1     -46.361 -50.678  16.994  1.00  0.00     0.004 C 
HETATM   12  C   UNL     1     -45.138 -51.532  17.298  1.00  0.00     0.026 C 
HETATM   13  C   UNL     1     -44.716 -52.391  16.110  1.00  0.00     0.168 C 
HETATM   14  O   UNL     1     -45.804 -53.092  15.515  1.00  0.00    -0.386 OA
ENDBRANCH   8   9
ENDBRANCH   7   8
ENDBRANCH   3   7
BRANCH   4  15
HETATM   15  C   UNL     1     -42.130 -52.625  12.306  1.00  0.00     0.231 A 
HETATM   16  N   UNL     1     -41.292 -52.288  11.348  1.00  0.00    -0.330 N 
HETATM   17  C   UNL     1     -40.721 -51.130  11.813  1.00  0.00     0.116 A 
ATOM     18  HN  UNL     1     -41.110 -52.773  10.469  1.00  0.00     0.168 HD
HETATM   19  C   UNL     1     -41.227 -50.821  13.049  1.00  0.00     0.162 A 
HETATM   20  O   UNL     1     -42.148 -51.771  13.371  1.00  0.00    -0.290 OA
ENDBRANCH   4  15
TORSDOF 4
ENDMDL
MODEL 2
REMARK VINA RESULT:      -5.7      2.348      3.764
REMARK  4 active torsions:
REMARK  status: ('A' for Active; 'I' for Inactive)
REMARK       I    between atoms: C_2  and  N_3 
REMARK       I    between atoms: C_2  and  N_12 
REMARK    1  A    between atoms: N_3  and  C_4 
REMARK    2  A    between atoms: C_4  and  C_5 
REMARK    3  A    between atoms: C_5  and  C_6 
REMARK    4  A    between atoms: N_12  and  C_13 
ROOT
HETATM    1  O   UNL     1     -39.946 -51.962  12.165  1.00  0.00    -0.247 OA
HETATM    2  C   UNL     1     -40.868 -51.233  11.803  1.00  0.00     0.323 C 
HETATM    3  N   UNL     1     -42.179 -51.609  11.858  1.00  0.00    -0.343 N 
HETATM    4  N   UNL     1     -40.572 -50.022  11.275  1.00  0.00    -0.274 N 
HETATM    5  H   UNL     1     -42.860 -50.859  11.764  1.00  0.00     0.164 HD
HETATM    6  H   UNL     1     -39.592 -49.810  11.171  1.00  0.00     0.174 HD
ENDROOT
BRANCH   3   7
HETATM    7  C   UNL     1     -42.579 -52.840  12.515  1.00  0.00     0.127 C 
BRANCH   7   8
HETATM    8  C   UNL     1     -43.742 -52.632  13.483  1.00  0.00     0.051 C 
BRANCH   8   9
HETATM    9  C   UNL     1     -45.094 -52.893  12.793  1.00  0.00     0.123 C 
HETATM   10  C   UNL     1     -46.068 -51.720  12.900  1.00  0.00     0.032 C 
HETATM   11  C   UNL     1     -46.595 -51.560  14.319  1.00  0.00     0.004 C 
HETATM   12  C   UNL     1     -47.172 -52.876  14.822  1.00  0.00     0.026 C 
HETATM   13  C   UNL     1     -46.239 -54.055  14.571  1.00  0.00     0.168 C 
HETATM   14  O   UNL     1     -45.732 -54.092  13.240  1.00  0.00    -0.386 OA
ENDBRANCH   8   9
ENDBRANCH   7   8
ENDBRANCH   3   7
BRANCH   4  15
HETATM   15  C   UNL     1     -41.459 -49.058  10.926  1.00  0.00     0.231 A 
HETATM   16  N   UNL     1     -41.629 -48.442   9.774  1.00  0.00    -0.330 N 
HETATM   17  C   UNL     1     -42.688 -47.604  10.012  1.00  0.00     0.116 A 
ATOM     18  HN  UNL     1     -41.099 -48.561   8.911  1.00  0.00     0.168 HD
HETATM   19  C   UNL     1     -43.108 -47.733  11.311  1.00  0.00     0.162 A 
HETATM   20  O   UNL     1     -42.331 -48.680  11.906  1.00  0.00    -0.290 OA
ENDBRANCH   4  15
TORSDOF 4
ENDMDL
MODEL 3
REMARK VINA RESULT:      -5.6      2.049      3.208
REMARK  4 active torsions:
REMARK  status: ('A' for Active; 'I' for Inactive)
REMARK       I    between atoms: C_2  and  N_3 
REMARK       I    between atoms: C_2  and  N_12 
REMARK    1  A    between atoms: N_3  and  C_4 
REMARK    2  A    between atoms: C_4  and  C_5 
REMARK    3  A    between atoms: C_5  and  C_6 
REMARK    4  A    between atoms: N_12  and  C_13 
ROOT
HETATM    1  O   UNL     1     -40.465 -53.319  12.376  1.00  0.00    -0.247 OA
HETATM    2  C   UNL     1     -41.126 -52.345  12.019  1.00  0.00     0.323 C 
HETATM    3  N   UNL     1     -42.487 -52.363  11.928  1.00  0.00    -0.343 N 
HETATM    4  N   UNL     1     -40.475 -51.217  11.646  1.00  0.00    -0.274 N 
HETATM    5  H   UNL     1     -42.940 -51.454  11.858  1.00  0.00     0.164 HD
HETATM    6  H   UNL     1     -39.468 -51.265  11.645  1.00  0.00     0.174 HD
ENDROOT
BRANCH   3   7
HETATM    7  C   UNL     1     -43.257 -53.492  12.417  1.00  0.00     0.127 C 
BRANCH   7   8
HETATM    8  C   UNL     1     -43.861 -53.231  13.796  1.00  0.00     0.051 C 
BRANCH   8   9
HETATM    9  C   UNL     1     -44.114 -51.729  14.018  1.00  0.00     0.123 C 
HETATM   10  C   UNL     1     -44.516 -51.384  15.452  1.00  0.00     0.032 C 
HETATM   11  C   UNL     1     -45.922 -51.874  15.770  1.00  0.00     0.004 C 
HETATM   12  C   UNL     1     -46.908 -51.369  14.726  1.00  0.00     0.026 C 
HETATM   13  C   UNL     1     -46.415 -51.595  13.301  1.00  0.00     0.168 C 
HETATM   14  O   UNL     1     -45.067 -51.177  13.104  1.00  0.00    -0.386 OA
ENDBRANCH   8   9
ENDBRANCH   7   8
ENDBRANCH   3   7
BRANCH   4  15
HETATM   15  C   UNL     1     -41.044 -50.028  11.329  1.00  0.00     0.231 A 
HETATM   16  N   UNL     1     -40.838 -49.243  10.292  1.00  0.00    -0.330 N 
HETATM   17  C   UNL     1     -41.717 -48.209  10.493  1.00  0.00     0.116 A 
ATOM     18  HN  UNL     1     -40.182 -49.373   9.523  1.00  0.00     0.168 HD
HETATM   19  C   UNL     1     -42.411 -48.403  11.661  1.00  0.00     0.162 A 
HETATM   20  O   UNL     1     -41.994 -49.581  12.201  1.00  0.00    -0.290 OA
ENDBRANCH   4  15
TORSDOF 4
ENDMDL
MODEL 4
REMARK VINA RESULT:      -5.5      3.603      5.343
REMARK  4 active torsions:
REMARK  status: ('A' for Active; 'I' for Inactive)
REMARK       I    between atoms: C_2  and  N_3 
REMARK       I    between atoms: C_2  and  N_12 
REMARK    1  A    between atoms: N_3  and  C_4 
REMARK    2  A    between atoms: C_4  and  C_5 
REMARK    3  A    between atoms: C_5  and  C_6 
REMARK    4  A    between atoms: N_12  and  C_13 
ROOT
HETATM    1  O   UNL     1     -39.902 -48.791  11.621  1.00  0.00    -0.247 OA
HETATM    2  C   UNL     1     -41.038 -48.841  11.151  1.00  0.00     0.323 C 
HETATM    3  N   UNL     1     -41.953 -49.785  11.517  1.00  0.00    -0.343 N 
HETATM    4  N   UNL     1     -41.384 -47.956  10.186  1.00  0.00    -0.274 N 
HETATM    5  H   UNL     1     -42.918 -49.594  11.254  1.00  0.00     0.164 HD
HETATM    6  H   UNL     1     -40.658 -47.328   9.878  1.00  0.00     0.174 HD
ENDROOT
BRANCH   3   7
HETATM    7  C   UNL     1     -41.696 -50.690  12.622  1.00  0.00     0.127 C 
BRANCH   7   8
HETATM    8  C   UNL     1     -42.940 -51.475  13.033  1.00  0.00     0.051 C 
BRANCH   8   9
HETATM    9  C   UNL     1     -42.944 -52.881  12.404  1.00  0.00     0.123 C 
HETATM   10  C   UNL     1     -44.292 -53.593  12.515  1.00  0.00     0.032 C 
HETATM   11  C   UNL     1     -44.584 -54.014  13.948  1.00  0.00     0.004 C 
HETATM   12  C   UNL     1     -43.423 -54.822  14.511  1.00  0.00     0.026 C 
HETATM   13  C   UNL     1     -42.074 -54.158  14.259  1.00  0.00     0.168 C 
HETATM   14  O   UNL     1     -41.908 -53.727  12.911  1.00  0.00    -0.386 OA
ENDBRANCH   8   9
ENDBRANCH   7   8
ENDBRANCH   3   7
BRANCH   4  15
HETATM   15  C   UNL     1     -42.614 -47.803   9.638  1.00  0.00     0.231 A 
HETATM   16  N   UNL     1     -42.992 -47.861   8.378  1.00  0.00    -0.330 N 
HETATM   17  C   UNL     1     -44.348 -47.665   8.440  1.00  0.00     0.116 A 
ATOM     18  HN  UNL     1     -42.413 -48.016   7.553  1.00  0.00     0.168 HD
HETATM   19  C   UNL     1     -44.736 -47.476   9.742  1.00  0.00     0.162 A 
HETATM   20  O   UNL     1     -43.628 -47.577  10.525  1.00  0.00    -0.290 OA
ENDBRANCH   4  15
TORSDOF 4
ENDMDL
MODEL 5
REMARK VINA RESULT:      -5.3      3.640      4.840
REMARK  4 active torsions:
REMARK  status: ('A' for Active; 'I' for Inactive)
REMARK       I    between atoms: C_2  and  N_3 
REMARK       I    between atoms: C_2  and  N_12 
REMARK    1  A    between atoms: N_3  and  C_4 
REMARK    2  A    between atoms: C_4  and  C_5 
REMARK    3  A    between atoms: C_5  and  C_6 
REMARK    4  A    between atoms: N_12  and  C_13 
ROOT
HETATM    1  O   UNL     1     -40.583 -48.515  12.326  1.00  0.00    -0.247 OA
HETATM    2  C   UNL     1     -41.521 -48.672  11.545  1.00  0.00     0.323 C 
HETATM    3  N   UNL     1     -42.350 -49.755  11.585  1.00  0.00    -0.343 N 
HETATM    4  N   UNL     1     -41.712 -47.757  10.565  1.00  0.00    -0.274 N 
HETATM    5  H   UNL     1     -43.219 -49.668  11.063  1.00  0.00     0.164 HD
HETATM    6  H   UNL     1     -41.031 -47.015  10.512  1.00  0.00     0.174 HD
ENDROOT
BRANCH   3   7
HETATM    7  C   UNL     1     -42.280 -50.713  12.673  1.00  0.00     0.127 C 
BRANCH   7   8
HETATM    8  C   UNL     1     -43.415 -50.535  13.680  1.00  0.00     0.051 C 
BRANCH   8   9
HETATM    9  C   UNL     1     -44.036 -51.890  14.063  1.00  0.00     0.123 C 
HETATM   10  C   UNL     1     -45.149 -52.340  13.116  1.00  0.00     0.032 C 
HETATM   11  C   UNL     1     -46.401 -51.490  13.283  1.00  0.00     0.004 C 
HETATM   12  C   UNL     1     -46.826 -51.455  14.745  1.00  0.00     0.026 C 
HETATM   13  C   UNL     1     -45.664 -51.146  15.683  1.00  0.00     0.168 C 
HETATM   14  O   UNL     1     -44.507 -51.932  15.414  1.00  0.00    -0.386 OA
ENDBRANCH   8   9
ENDBRANCH   7   8
ENDBRANCH   3   7
BRANCH   4  15
HETATM   15  C   UNL     1     -42.748 -47.717   9.692  1.00  0.00     0.231 A 
HETATM   16  N   UNL     1     -42.773 -47.961   8.398  1.00  0.00    -0.330 N 
HETATM   17  C   UNL     1     -44.094 -47.798   8.066  1.00  0.00     0.116 A 
ATOM     18  HN  UNL     1     -41.995 -48.211   7.788  1.00  0.00     0.168 HD
HETATM   19  C   UNL     1     -44.816 -47.442   9.177  1.00  0.00     0.162 A 
HETATM   20  O   UNL     1     -43.960 -47.401  10.234  1.00  0.00    -0.290 OA
ENDBRANCH   4  15
TORSDOF 4
ENDMDL
MODEL 6
REMARK VINA RESULT:      -5.0      2.357      3.629
REMARK  4 active torsions:
REMARK  status: ('A' for Active; 'I' for Inactive)
REMARK       I    between atoms: C_2  and  N_3 
REMARK       I    between atoms: C_2  and  N_12 
REMARK    1  A    between atoms: N_3  and  C_4 
REMARK    2  A    between atoms: C_4  and  C_5 
REMARK    3  A    between atoms: C_5  and  C_6 
REMARK    4  A    between atoms: N_12  and  C_13 
ROOT
HETATM    1  O   UNL     1     -39.359 -53.195  13.250  1.00  0.00    -0.247 OA
HETATM    2  C   UNL     1     -40.166 -52.421  12.736  1.00  0.00     0.323 C 
HETATM    3  N   UNL     1     -41.505 -52.674  12.676  1.00  0.00    -0.343 N 
HETATM    4  N   UNL     1     -39.703 -51.290  12.153  1.00  0.00    -0.274 N 
HETATM    5  H   UNL     1     -42.099 -51.878  12.453  1.00  0.00     0.164 HD
HETATM    6  H   UNL     1     -38.701 -51.175  12.140  1.00  0.00     0.174 HD
ENDROOT
BRANCH   3   7
HETATM    7  C   UNL     1     -42.087 -53.804  13.377  1.00  0.00     0.127 C 
BRANCH   7   8
HETATM    8  C   UNL     1     -43.614 -53.771  13.371  1.00  0.00     0.051 C 
BRANCH   8   9
HETATM    9  C   UNL     1     -44.201 -54.959  14.153  1.00  0.00     0.123 C 
HETATM   10  C   UNL     1     -45.716 -55.100  14.003  1.00  0.00     0.032 C 
HETATM   11  C   UNL     1     -46.454 -53.991  14.740  1.00  0.00     0.004 C 
HETATM   12  C   UNL     1     -45.992 -53.918  16.189  1.00  0.00     0.026 C 
HETATM   13  C   UNL     1     -44.473 -53.927  16.318  1.00  0.00     0.168 C 
HETATM   14  O   UNL     1     -43.853 -54.948  15.541  1.00  0.00    -0.386 OA
ENDBRANCH   8   9
ENDBRANCH   7   8
ENDBRANCH   3   7
BRANCH   4  15
HETATM   15  C   UNL     1     -40.453 -50.286  11.638  1.00  0.00     0.231 A 
HETATM   16  N   UNL     1     -40.515 -49.823  10.406  1.00  0.00    -0.330 N 
HETATM   17  C   UNL     1     -41.466 -48.837  10.481  1.00  0.00     0.116 A 
ATOM     18  HN  UNL     1     -39.983 -50.126   9.591  1.00  0.00     0.168 HD
HETATM   19  C   UNL     1     -41.930 -48.730  11.767  1.00  0.00     0.162 A 
HETATM   20  O   UNL     1     -41.294 -49.669  12.519  1.00  0.00    -0.290 OA
ENDBRANCH   4  15
TORSDOF 4
ENDMDL
MODEL 7
REMARK VINA RESULT:      -5.0      6.503      8.345
REMARK  4 active torsions:
REMARK  status: ('A' for Active; 'I' for Inactive)
REMARK       I    between atoms: C_2  and  N_3 
REMARK       I    between atoms: C_2  and  N_12 
REMARK    1  A    between atoms: N_3  and  C_4 
REMARK    2  A    between atoms: C_4  and  C_5 
REMARK    3  A    between atoms: C_5  and  C_6 
REMARK    4  A    between atoms: N_12  and  C_13 
ROOT
HETATM    1  O   UNL     1     -42.615 -48.054  10.100  1.00  0.00    -0.247 OA
HETATM    2  C   UNL     1     -41.443 -48.079  10.474  1.00  0.00     0.323 C 
HETATM    3  N   UNL     1     -40.663 -46.962  10.551  1.00  0.00    -0.343 N 
HETATM    4  N   UNL     1     -40.879 -49.274  10.772  1.00  0.00    -0.274 N 
HETATM    5  H   UNL     1     -39.805 -47.056  11.090  1.00  0.00     0.164 HD
HETATM    6  H   UNL     1     -41.457 -50.087  10.623  1.00  0.00     0.174 HD
ENDROOT
BRANCH   3   7
HETATM    7  C   UNL     1     -41.228 -45.639  10.360  1.00  0.00     0.127 C 
BRANCH   7   8
HETATM    8  C   UNL     1     -41.050 -44.747  11.587  1.00  0.00     0.051 C 
BRANCH   8   9
HETATM    9  C   UNL     1     -40.862 -43.273  11.182  1.00  0.00     0.123 C 
HETATM   10  C   UNL     1     -40.530 -42.356  12.359  1.00  0.00     0.032 C 
HETATM   11  C   UNL     1     -41.733 -42.161  13.271  1.00  0.00     0.004 C 
HETATM   12  C   UNL     1     -42.940 -41.701  12.465  1.00  0.00     0.026 C 
HETATM   13  C   UNL     1     -43.163 -42.546  11.215  1.00  0.00     0.168 C 
HETATM   14  O   UNL     1     -41.974 -42.742  10.456  1.00  0.00    -0.386 OA
ENDBRANCH   8   9
ENDBRANCH   7   8
ENDBRANCH   3   7
BRANCH   4  15
HETATM   15  C   UNL     1     -39.645 -49.472  11.294  1.00  0.00     0.231 A 
HETATM   16  N   UNL     1     -38.599 -50.088  10.782  1.00  0.00    -0.330 N 
HETATM   17  C   UNL     1     -37.635 -49.941  11.746  1.00  0.00     0.116 A 
ATOM     18  HN  UNL     1     -38.524 -50.562   9.881  1.00  0.00     0.168 HD
HETATM   19  C   UNL     1     -38.145 -49.253  12.818  1.00  0.00     0.162 A 
HETATM   20  O   UNL     1     -39.436 -48.934  12.531  1.00  0.00    -0.290 OA
ENDBRANCH   4  15
TORSDOF 4
ENDMDL
MODEL 8
REMARK VINA RESULT:      -4.7      1.731      2.728
REMARK  4 active torsions:
REMARK  status: ('A' for Active; 'I' for Inactive)
REMARK       I    between atoms: C_2  and  N_3 
REMARK       I    between atoms: C_2  and  N_12 
REMARK    1  A    between atoms: N_3  and  C_4 
REMARK    2  A    between atoms: C_4  and  C_5 
REMARK    3  A    between atoms: C_5  and  C_6 
REMARK    4  A    between atoms: N_12  and  C_13 
ROOT
HETATM    1  O   UNL     1     -42.457 -54.293  12.909  1.00  0.00    -0.247 OA
HETATM    2  C   UNL     1     -41.873 -53.211  12.965  1.00  0.00     0.323 C 
HETATM    3  N   UNL     1     -41.833 -52.444  14.092  1.00  0.00    -0.343 N 
HETATM    4  N   UNL     1     -41.285 -52.731  11.843  1.00  0.00    -0.274 N 
HETATM    5  H   UNL     1     -41.136 -51.702  14.101  1.00  0.00     0.164 HD
HETATM    6  H   UNL     1     -41.405 -53.282  11.007  1.00  0.00     0.174 HD
ENDROOT
BRANCH   3   7
HETATM    7  C   UNL     1     -42.339 -52.943  15.357  1.00  0.00     0.127 C 
BRANCH   7   8
HETATM    8  C   UNL     1     -43.660 -52.290  15.756  1.00  0.00     0.051 C 
BRANCH   8   9
HETATM    9  C   UNL     1     -44.859 -53.169  15.356  1.00  0.00     0.123 C 
HETATM   10  C   UNL     1     -45.599 -52.664  14.117  1.00  0.00     0.032 C 
HETATM   11  C   UNL     1     -46.375 -51.389  14.413  1.00  0.00     0.004 C 
HETATM   12  C   UNL     1     -47.281 -51.588  15.621  1.00  0.00     0.026 C 
HETATM   13  C   UNL     1     -46.551 -52.228  16.797  1.00  0.00     0.168 C 
HETATM   14  O   UNL     1     -45.790 -53.373  16.424  1.00  0.00    -0.386 OA
ENDBRANCH   8   9
ENDBRANCH   7   8
ENDBRANCH   3   7
BRANCH   4  15
HETATM   15  C   UNL     1     -40.516 -51.618  11.752  1.00  0.00     0.231 A 
HETATM   16  N   UNL     1     -40.723 -50.500  11.086  1.00  0.00    -0.330 N 
HETATM   17  C   UNL     1     -39.629 -49.734  11.399  1.00  0.00     0.116 A 
ATOM     18  HN  UNL     1     -41.509 -50.261  10.483  1.00  0.00     0.168 HD
HETATM   19  C   UNL     1     -38.790 -50.430  12.231  1.00  0.00     0.162 A 
HETATM   20  O   UNL     1     -39.360 -51.642  12.477  1.00  0.00    -0.290 OA
ENDBRANCH   4  15
TORSDOF 4
ENDMDL
MODEL 9
REMARK VINA RESULT:      -4.7      5.954      6.835
REMARK  4 active torsions:
REMARK  status: ('A' for Active; 'I' for Inactive)
REMARK       I    between atoms: C_2  and  N_3 
REMARK       I    between atoms: C_2  and  N_12 
REMARK    1  A    between atoms: N_3  and  C_4 
REMARK    2  A    between atoms: C_4  and  C_5 
REMARK    3  A    between atoms: C_5  and  C_6 
REMARK    4  A    between atoms: N_12  and  C_13 
ROOT
HETATM    1  O   UNL     1     -42.637 -48.072  10.015  1.00  0.00    -0.247 OA
HETATM    2  C   UNL     1     -41.481 -48.107  10.436  1.00  0.00     0.323 C 
HETATM    3  N   UNL     1     -40.703 -46.995  10.566  1.00  0.00    -0.343 N 
HETATM    4  N   UNL     1     -40.933 -49.309  10.734  1.00  0.00    -0.274 N 
HETATM    5  H   UNL     1     -39.867 -47.101  11.137  1.00  0.00     0.164 HD
HETATM    6  H   UNL     1     -41.505 -50.118  10.546  1.00  0.00     0.174 HD
ENDROOT
BRANCH   3   7
HETATM    7  C   UNL     1     -41.256 -45.666  10.376  1.00  0.00     0.127 C 
BRANCH   7   8
HETATM    8  C   UNL     1     -41.132 -44.800  11.628  1.00  0.00     0.051 C 
BRANCH   8   9
HETATM    9  C   UNL     1     -42.444 -44.795  12.434  1.00  0.00     0.123 C 
HETATM   10  C   UNL     1     -42.433 -43.818  13.609  1.00  0.00     0.032 C 
HETATM   11  C   UNL     1     -41.515 -44.298  14.724  1.00  0.00     0.004 C 
HETATM   12  C   UNL     1     -41.868 -45.724  15.124  1.00  0.00     0.026 C 
HETATM   13  C   UNL     1     -42.015 -46.647  13.920  1.00  0.00     0.168 C 
HETATM   14  O   UNL     1     -42.830 -46.094  12.890  1.00  0.00    -0.386 OA
ENDBRANCH   8   9
ENDBRANCH   7   8
ENDBRANCH   3   7
BRANCH   4  15
HETATM   15  C   UNL     1     -39.721 -49.522  11.303  1.00  0.00     0.231 A 
HETATM   16  N   UNL     1     -38.624 -50.038  10.788  1.00  0.00    -0.330 N 
HETATM   17  C   UNL     1     -37.721 -49.966  11.817  1.00  0.00     0.116 A 
ATOM     18  HN  UNL     1     -38.481 -50.405   9.847  1.00  0.00     0.168 HD
HETATM   19  C   UNL     1     -38.317 -49.422  12.927  1.00  0.00     0.162 A 
HETATM   20  O   UNL     1     -39.603 -49.118  12.601  1.00  0.00    -0.290 OA
ENDBRANCH   4  15
TORSDOF 4
ENDMDL
