MODEL 1
REMARK VINA RESULT:      -6.5      0.000      0.000
REMARK  3 active torsions:
REMARK  status: ('A' for Active; 'I' for Inactive)
REMARK    1  A    between atoms: C_9  and  N_10 
REMARK       I    between atoms: N_10  and  C_11 
REMARK       I    between atoms: C_11  and  N_13 
REMARK    2  A    between atoms: N_13  and  C_14 
REMARK    3  A    between atoms: C_14  and  C_15 
ROOT
HETATM    1  N   UNL     1     -40.430 -50.029  10.765  1.00  0.00    -0.307 N 
HETATM    2  C   UNL     1     -41.438 -49.090  10.894  1.00  0.00     0.320 C 
HETATM    3  O   UNL     1     -42.141 -48.951  11.893  1.00  0.00    -0.247 OA
HETATM    4  N   UNL     1     -41.612 -48.291   9.777  1.00  0.00    -0.342 N 
HETATM    5  H   UNL     1     -40.248 -50.356   9.826  1.00  0.00     0.170 HD
HETATM    6  H   UNL     1     -40.772 -48.100   9.247  1.00  0.00     0.164 HD
ENDROOT
BRANCH   1   7
HETATM    7  C   UNL     1     -39.971 -50.829  11.860  1.00  0.00     0.061 A 
HETATM    8  C   UNL     1     -38.790 -50.558  12.559  1.00  0.00     0.048 A 
HETATM    9  C   UNL     1     -37.873 -49.420  12.252  1.00  0.00     0.072 C 
HETATM   10  N   UNL     1     -38.359 -51.362  13.569  1.00  0.00    -0.303 N 
HETATM   11  N   UNL     1     -39.071 -52.459  13.937  1.00  0.00    -0.312 N 
ATOM     12  HN  UNL     1     -37.491 -51.137  14.056  1.00  0.00     0.186 HD
HETATM   13  C   UNL     1     -40.223 -52.728  13.308  1.00  0.00     0.109 A 
ATOM     14  HN  UNL     1     -38.733 -53.069  14.681  1.00  0.00     0.186 HD
HETATM   15  C   UNL     1     -40.709 -51.934  12.290  1.00  0.00     0.050 A 
ENDBRANCH   1   7
BRANCH   4  16
HETATM   16  C   UNL     1     -42.550 -47.183   9.951  1.00  0.00     0.133 C 
BRANCH  16  17
HETATM   17  C   UNL     1     -43.802 -47.171   9.054  1.00  0.00    -0.028 C 
HETATM   18  C   UNL     1     -43.513 -47.877   7.717  1.00  0.00     0.016 C 
HETATM   19  C   UNL     1     -44.376 -45.760   8.837  1.00  0.00     0.011 C 
HETATM   20  C   UNL     1     -45.904 -45.888   8.866  1.00  0.00     0.001 C 
HETATM   21  C   UNL     1     -46.220 -47.353   9.122  1.00  0.00     0.001 C 
HETATM   22  C   UNL     1     -44.962 -47.890   9.787  1.00  0.00     0.011 C 
ENDBRANCH  16  17
ENDBRANCH   4  16
TORSDOF 3
ENDMDL
MODEL 2
REMARK VINA RESULT:      -6.4      1.822      7.133
REMARK  3 active torsions:
REMARK  status: ('A' for Active; 'I' for Inactive)
REMARK    1  A    between atoms: C_9  and  N_10 
REMARK       I    between atoms: N_10  and  C_11 
REMARK       I    between atoms: C_11  and  N_13 
REMARK    2  A    between atoms: N_13  and  C_14 
REMARK    3  A    between atoms: C_14  and  C_15 
ROOT
HETATM    1  N   UNL     1     -41.818 -48.219   9.498  1.00  0.00    -0.307 N 
HETATM    2  C   UNL     1     -41.392 -48.733  10.711  1.00  0.00     0.320 C 
HETATM    3  O   UNL     1     -41.799 -48.361  11.810  1.00  0.00    -0.247 OA
HETATM    4  N   UNL     1     -40.435 -49.727  10.598  1.00  0.00    -0.342 N 
HETATM    5  H   UNL     1     -41.144 -48.245   8.746  1.00  0.00     0.170 HD
HETATM    6  H   UNL     1     -40.508 -50.305   9.771  1.00  0.00     0.164 HD
ENDROOT
BRANCH   1   7
HETATM    7  C   UNL     1     -42.923 -47.316   9.385  1.00  0.00     0.061 A 
HETATM    8  C   UNL     1     -42.839 -45.962   9.725  1.00  0.00     0.048 A 
HETATM    9  C   UNL     1     -41.605 -45.301  10.246  1.00  0.00     0.072 C 
HETATM   10  N   UNL     1     -43.919 -45.138   9.645  1.00  0.00    -0.303 N 
HETATM   11  N   UNL     1     -45.123 -45.607   9.224  1.00  0.00    -0.312 N 
ATOM     12  HN  UNL     1     -43.824 -44.156   9.905  1.00  0.00     0.186 HD
HETATM   13  C   UNL     1     -45.228 -46.892   8.860  1.00  0.00     0.109 A 
ATOM     14  HN  UNL     1     -45.934 -44.990   9.185  1.00  0.00     0.186 HD
HETATM   15  C   UNL     1     -44.158 -47.762   8.907  1.00  0.00     0.050 A 
ENDBRANCH   1   7
BRANCH   4  16
HETATM   16  C   UNL     1     -40.096 -50.402  11.850  1.00  0.00     0.133 C 
BRANCH  16  17
HETATM   17  C   UNL     1     -38.701 -50.130  12.443  1.00  0.00    -0.028 C 
HETATM   18  C   UNL     1     -37.668 -49.930  11.320  1.00  0.00     0.016 C 
HETATM   19  C   UNL     1     -38.250 -51.209  13.443  1.00  0.00     0.011 C 
HETATM   20  C   UNL     1     -37.525 -50.486  14.586  1.00  0.00     0.001 C 
HETATM   21  C   UNL     1     -37.575 -48.999  14.269  1.00  0.00     0.001 C 
HETATM   22  C   UNL     1     -38.763 -48.862  13.331  1.00  0.00     0.011 C 
ENDBRANCH  16  17
ENDBRANCH   4  16
TORSDOF 3
ENDMDL
MODEL 3
REMARK VINA RESULT:      -6.3      4.191      6.652
REMARK  3 active torsions:
REMARK  status: ('A' for Active; 'I' for Inactive)
REMARK    1  A    between atoms: C_9  and  N_10 
REMARK       I    between atoms: N_10  and  C_11 
REMARK       I    between atoms: C_11  and  N_13 
REMARK    2  A    between atoms: N_13  and  C_14 
REMARK    3  A    between atoms: C_14  and  C_15 
ROOT
HETATM    1  N   UNL     1     -43.721 -52.887  12.047  1.00  0.00    -0.307 N 
HETATM    2  C   UNL     1     -42.547 -52.429  12.621  1.00  0.00     0.320 C 
HETATM    3  O   UNL     1     -42.354 -52.325  13.830  1.00  0.00    -0.247 OA
HETATM    4  N   UNL     1     -41.571 -52.077  11.705  1.00  0.00    -0.342 N 
HETATM    5  H   UNL     1     -43.938 -52.518  11.132  1.00  0.00     0.170 HD
HETATM    6  H   UNL     1     -41.571 -52.613  10.847  1.00  0.00     0.164 HD
ENDROOT
BRANCH   1   7
HETATM    7  C   UNL     1     -44.783 -53.466  12.812  1.00  0.00     0.061 A 
HETATM    8  C   UNL     1     -45.960 -52.778  13.125  1.00  0.00     0.048 A 
HETATM    9  C   UNL     1     -46.248 -51.372  12.710  1.00  0.00     0.072 C 
HETATM   10  N   UNL     1     -46.935 -53.341  13.890  1.00  0.00    -0.303 N 
HETATM   11  N   UNL     1     -46.796 -54.604  14.374  1.00  0.00    -0.312 N 
ATOM     12  HN  UNL     1     -47.779 -52.810  14.102  1.00  0.00     0.186 HD
HETATM   13  C   UNL     1     -45.695 -55.301  14.065  1.00  0.00     0.109 A 
ATOM     14  HN  UNL     1     -47.520 -55.014  14.963  1.00  0.00     0.186 HD
HETATM   15  C   UNL     1     -44.688 -54.779  13.280  1.00  0.00     0.050 A 
ENDBRANCH   1   7
BRANCH   4  16
HETATM   16  C   UNL     1     -40.268 -51.755  12.285  1.00  0.00     0.133 C 
BRANCH  16  17
HETATM   17  C   UNL     1     -39.827 -50.280  12.254  1.00  0.00    -0.028 C 
HETATM   18  C   UNL     1     -40.612 -49.505  11.181  1.00  0.00     0.016 C 
HETATM   19  C   UNL     1     -38.308 -50.108  12.079  1.00  0.00     0.011 C 
HETATM   20  C   UNL     1     -37.882 -48.938  12.975  1.00  0.00     0.001 C 
HETATM   21  C   UNL     1     -39.135 -48.448  13.686  1.00  0.00     0.001 C 
HETATM   22  C   UNL     1     -40.073 -49.645  13.645  1.00  0.00     0.011 C 
ENDBRANCH  16  17
ENDBRANCH   4  16
TORSDOF 3
ENDMDL
MODEL 4
REMARK VINA RESULT:      -6.3      3.727      6.370
REMARK  3 active torsions:
REMARK  status: ('A' for Active; 'I' for Inactive)
REMARK    1  A    between atoms: C_9  and  N_10 
REMARK       I    between atoms: N_10  and  C_11 
REMARK       I    between atoms: C_11  and  N_13 
REMARK    2  A    between atoms: N_13  and  C_14 
REMARK    3  A    between atoms: C_14  and  C_15 
ROOT
HETATM    1  N   UNL     1     -42.171 -49.376  11.388  1.00  0.00    -0.307 N 
HETATM    2  C   UNL     1     -42.973 -49.533  12.505  1.00  0.00     0.320 C 
HETATM    3  O   UNL     1     -43.200 -48.654  13.333  1.00  0.00    -0.247 OA
HETATM    4  N   UNL     1     -43.520 -50.798  12.633  1.00  0.00    -0.342 N 
HETATM    5  H   UNL     1     -41.702 -50.209  11.060  1.00  0.00     0.170 HD
HETATM    6  H   UNL     1     -43.719 -51.273  11.763  1.00  0.00     0.164 HD
ENDROOT
BRANCH   1   7
HETATM    7  C   UNL     1     -41.657 -48.104  10.976  1.00  0.00     0.061 A 
HETATM    8  C   UNL     1     -42.334 -47.260  10.090  1.00  0.00     0.048 A 
HETATM    9  C   UNL     1     -43.655 -47.578   9.469  1.00  0.00     0.072 C 
HETATM   10  N   UNL     1     -41.801 -46.076   9.685  1.00  0.00    -0.303 N 
HETATM   11  N   UNL     1     -40.585 -45.669  10.136  1.00  0.00    -0.312 N 
ATOM     12  HN  UNL     1     -42.320 -45.486   9.034  1.00  0.00     0.186 HD
HETATM   13  C   UNL     1     -39.926 -46.441  11.011  1.00  0.00     0.109 A 
ATOM     14  HN  UNL     1     -40.181 -44.790   9.814  1.00  0.00     0.186 HD
HETATM   15  C   UNL     1     -40.433 -47.641  11.464  1.00  0.00     0.050 A 
ENDBRANCH   1   7
BRANCH   4  16
HETATM   16  C   UNL     1     -44.505 -50.939  13.705  1.00  0.00     0.133 C 
BRANCH  16  17
HETATM   17  C   UNL     1     -45.493 -52.116  13.605  1.00  0.00    -0.028 C 
HETATM   18  C   UNL     1     -46.529 -51.856  12.497  1.00  0.00     0.016 C 
HETATM   19  C   UNL     1     -46.169 -52.452  14.946  1.00  0.00     0.011 C 
HETATM   20  C   UNL     1     -46.265 -53.981  15.029  1.00  0.00     0.001 C 
HETATM   21  C   UNL     1     -45.629 -54.533  13.763  1.00  0.00     0.001 C 
HETATM   22  C   UNL     1     -44.709 -53.416  13.296  1.00  0.00     0.011 C 
ENDBRANCH  16  17
ENDBRANCH   4  16
TORSDOF 3
ENDMDL
MODEL 5
REMARK VINA RESULT:      -6.2      4.011      6.091
REMARK  3 active torsions:
REMARK  status: ('A' for Active; 'I' for Inactive)
REMARK    1  A    between atoms: C_9  and  N_10 
REMARK       I    between atoms: N_10  and  C_11 
REMARK       I    between atoms: C_11  and  N_13 
REMARK    2  A    between atoms: N_13  and  C_14 
REMARK    3  A    between atoms: C_14  and  C_15 
ROOT
HETATM    1  N   UNL     1     -42.373 -49.358  11.409  1.00  0.00    -0.307 N 
HETATM    2  C   UNL     1     -42.998 -49.475  12.638  1.00  0.00     0.320 C 
HETATM    3  O   UNL     1     -43.030 -48.593  13.494  1.00  0.00    -0.247 OA
HETATM    4  N   UNL     1     -43.604 -50.702  12.849  1.00  0.00    -0.342 N 
HETATM    5  H   UNL     1     -42.021 -50.216  11.009  1.00  0.00     0.170 HD
HETATM    6  H   UNL     1     -43.971 -51.150  12.019  1.00  0.00     0.164 HD
ENDROOT
BRANCH   1   7
HETATM    7  C   UNL     1     -41.844 -48.119  10.924  1.00  0.00     0.061 A 
HETATM    8  C   UNL     1     -40.506 -47.746  11.086  1.00  0.00     0.048 A 
HETATM    9  C   UNL     1     -39.479 -48.580  11.780  1.00  0.00     0.072 C 
HETATM   10  N   UNL     1     -40.042 -46.544  10.650  1.00  0.00    -0.303 N 
HETATM   11  N   UNL     1     -40.871 -45.661  10.032  1.00  0.00    -0.312 N 
ATOM     12  HN  UNL     1     -39.061 -46.302  10.787  1.00  0.00     0.186 HD
HETATM   13  C   UNL     1     -42.151 -46.002   9.833  1.00  0.00     0.109 A 
ATOM     14  HN  UNL     1     -40.523 -44.753   9.725  1.00  0.00     0.186 HD
HETATM   15  C   UNL     1     -42.663 -47.216  10.242  1.00  0.00     0.050 A 
ENDBRANCH   1   7
BRANCH   4  16
HETATM   16  C   UNL     1     -44.415 -50.790  14.063  1.00  0.00     0.133 C 
BRANCH  16  17
HETATM   17  C   UNL     1     -45.691 -51.649  13.999  1.00  0.00    -0.028 C 
HETATM   18  C   UNL     1     -46.331 -51.560  12.602  1.00  0.00     0.016 C 
HETATM   19  C   UNL     1     -46.702 -51.311  15.108  1.00  0.00     0.011 C 
HETATM   20  C   UNL     1     -47.310 -52.638  15.581  1.00  0.00     0.001 C 
HETATM   21  C   UNL     1     -46.642 -53.741  14.774  1.00  0.00     0.001 C 
HETATM   22  C   UNL     1     -45.331 -53.121  14.318  1.00  0.00     0.011 C 
ENDBRANCH  16  17
ENDBRANCH   4  16
TORSDOF 3
ENDMDL
MODEL 6
REMARK VINA RESULT:      -6.2      3.465      5.492
REMARK  3 active torsions:
REMARK  status: ('A' for Active; 'I' for Inactive)
REMARK    1  A    between atoms: C_9  and  N_10 
REMARK       I    between atoms: N_10  and  C_11 
REMARK       I    between atoms: C_11  and  N_13 
REMARK    2  A    between atoms: N_13  and  C_14 
REMARK    3  A    between atoms: C_14  and  C_15 
ROOT
HETATM    1  N   UNL     1     -41.459 -51.118  11.383  1.00  0.00    -0.307 N 
HETATM    2  C   UNL     1     -41.966 -51.642  12.560  1.00  0.00     0.320 C 
HETATM    3  O   UNL     1     -41.851 -51.117  13.665  1.00  0.00    -0.247 OA
HETATM    4  N   UNL     1     -42.631 -52.845  12.401  1.00  0.00    -0.342 N 
HETATM    5  H   UNL     1     -41.209 -51.791  10.671  1.00  0.00     0.170 HD
HETATM    6  H   UNL     1     -43.109 -52.962  11.517  1.00  0.00     0.164 HD
ENDROOT
BRANCH   1   7
HETATM    7  C   UNL     1     -40.897 -49.804  11.298  1.00  0.00     0.061 A 
HETATM    8  C   UNL     1     -39.556 -49.529  11.584  1.00  0.00     0.048 A 
HETATM    9  C   UNL     1     -38.559 -50.557  12.011  1.00  0.00     0.072 C 
HETATM   10  N   UNL     1     -39.060 -48.263  11.534  1.00  0.00    -0.303 N 
HETATM   11  N   UNL     1     -39.860 -47.216  11.198  1.00  0.00    -0.312 N 
ATOM     12  HN  UNL     1     -38.078 -48.097  11.752  1.00  0.00     0.186 HD
HETATM   13  C   UNL     1     -41.142 -47.450  10.888  1.00  0.00     0.109 A 
ATOM     14  HN  UNL     1     -39.489 -46.266  11.182  1.00  0.00     0.186 HD
HETATM   15  C   UNL     1     -41.685 -48.719  10.907  1.00  0.00     0.050 A 
ENDBRANCH   1   7
BRANCH   4  16
HETATM   16  C   UNL     1     -43.321 -53.331  13.596  1.00  0.00     0.133 C 
BRANCH  16  17
HETATM   17  C   UNL     1     -44.848 -53.142  13.654  1.00  0.00    -0.028 C 
HETATM   18  C   UNL     1     -45.532 -54.430  14.146  1.00  0.00     0.016 C 
HETATM   19  C   UNL     1     -45.447 -52.655  12.323  1.00  0.00     0.011 C 
HETATM   20  C   UNL     1     -46.543 -51.639  12.669  1.00  0.00     0.001 C 
HETATM   21  C   UNL     1     -46.566 -51.515  14.185  1.00  0.00     0.001 C 
HETATM   22  C   UNL     1     -45.181 -51.973  14.614  1.00  0.00     0.011 C 
ENDBRANCH  16  17
ENDBRANCH   4  16
TORSDOF 3
ENDMDL
MODEL 7
REMARK VINA RESULT:      -6.1      3.603      5.495
REMARK  3 active torsions:
REMARK  status: ('A' for Active; 'I' for Inactive)
REMARK    1  A    between atoms: C_9  and  N_10 
REMARK       I    between atoms: N_10  and  C_11 
REMARK       I    between atoms: C_11  and  N_13 
REMARK    2  A    between atoms: N_13  and  C_14 
REMARK    3  A    between atoms: C_14  and  C_15 
ROOT
HETATM    1  N   UNL     1     -40.810 -50.954  13.644  1.00  0.00    -0.307 N 
HETATM    2  C   UNL     1     -41.704 -51.983  13.402  1.00  0.00     0.320 C 
HETATM    3  O   UNL     1     -41.699 -52.691  12.397  1.00  0.00    -0.247 OA
HETATM    4  N   UNL     1     -42.641 -52.165  14.404  1.00  0.00    -0.342 N 
HETATM    5  H   UNL     1     -41.157 -50.193  14.212  1.00  0.00     0.170 HD
HETATM    6  H   UNL     1     -42.323 -51.945  15.338  1.00  0.00     0.164 HD
ENDROOT
BRANCH   1   7
HETATM    7  C   UNL     1     -39.660 -50.717  12.826  1.00  0.00     0.061 A 
HETATM    8  C   UNL     1     -39.704 -49.958  11.651  1.00  0.00     0.048 A 
HETATM    9  C   UNL     1     -40.939 -49.314  11.112  1.00  0.00     0.072 C 
HETATM   10  N   UNL     1     -38.602 -49.785  10.872  1.00  0.00    -0.303 N 
HETATM   11  N   UNL     1     -37.412 -50.344  11.216  1.00  0.00    -0.312 N 
ATOM     12  HN  UNL     1     -38.669 -49.228  10.020  1.00  0.00     0.186 HD
HETATM   13  C   UNL     1     -37.330 -51.051  12.352  1.00  0.00     0.109 A 
ATOM     14  HN  UNL     1     -36.594 -50.228  10.619  1.00  0.00     0.186 HD
HETATM   15  C   UNL     1     -38.415 -51.239  13.183  1.00  0.00     0.050 A 
ENDBRANCH   1   7
BRANCH   4  16
HETATM   16  C   UNL     1     -43.484 -53.350  14.253  1.00  0.00     0.133 C 
BRANCH  16  17
HETATM   17  C   UNL     1     -44.996 -53.123  14.070  1.00  0.00    -0.028 C 
HETATM   18  C   UNL     1     -45.786 -54.362  14.527  1.00  0.00     0.016 C 
HETATM   19  C   UNL     1     -45.375 -52.705  12.639  1.00  0.00     0.011 C 
HETATM   20  C   UNL     1     -46.477 -51.644  12.758  1.00  0.00     0.001 C 
HETATM   21  C   UNL     1     -46.721 -51.426  14.243  1.00  0.00     0.001 C 
HETATM   22  C   UNL     1     -45.430 -51.889  14.900  1.00  0.00     0.011 C 
ENDBRANCH  16  17
ENDBRANCH   4  16
TORSDOF 3
ENDMDL
MODEL 8
REMARK VINA RESULT:      -6.0      4.145      6.315
REMARK  3 active torsions:
REMARK  status: ('A' for Active; 'I' for Inactive)
REMARK    1  A    between atoms: C_9  and  N_10 
REMARK       I    between atoms: N_10  and  C_11 
REMARK       I    between atoms: C_11  and  N_13 
REMARK    2  A    between atoms: N_13  and  C_14 
REMARK    3  A    between atoms: C_14  and  C_15 
ROOT
HETATM    1  N   UNL     1     -41.986 -52.961  11.964  1.00  0.00    -0.307 N 
HETATM    2  C   UNL     1     -41.588 -51.643  12.114  1.00  0.00     0.320 C 
HETATM    3  O   UNL     1     -42.098 -50.843  12.894  1.00  0.00    -0.247 OA
HETATM    4  N   UNL     1     -40.538 -51.274  11.290  1.00  0.00    -0.342 N 
HETATM    5  H   UNL     1     -41.842 -53.364  11.049  1.00  0.00     0.170 HD
HETATM    6  H   UNL     1     -39.878 -52.010  11.076  1.00  0.00     0.164 HD
ENDROOT
BRANCH   1   7
HETATM    7  C   UNL     1     -42.928 -53.590  12.840  1.00  0.00     0.061 A 
HETATM    8  C   UNL     1     -42.556 -54.224  14.031  1.00  0.00     0.048 A 
HETATM    9  C   UNL     1     -41.150 -54.325  14.525  1.00  0.00     0.072 C 
HETATM   10  N   UNL     1     -43.469 -54.849  14.822  1.00  0.00    -0.303 N 
HETATM   11  N   UNL     1     -44.784 -54.873  14.480  1.00  0.00    -0.312 N 
ATOM     12  HN  UNL     1     -43.163 -55.304  15.681  1.00  0.00     0.186 HD
HETATM   13  C   UNL     1     -45.177 -54.248  13.362  1.00  0.00     0.109 A 
ATOM     14  HN  UNL     1     -45.462 -55.360  15.066  1.00  0.00     0.186 HD
HETATM   15  C   UNL     1     -44.291 -53.586  12.538  1.00  0.00     0.050 A 
ENDBRANCH   1   7
BRANCH   4  16
HETATM   16  C   UNL     1     -39.988 -49.944  11.550  1.00  0.00     0.133 C 
BRANCH  16  17
HETATM   17  C   UNL     1     -38.618 -49.872  12.250  1.00  0.00    -0.028 C 
HETATM   18  C   UNL     1     -37.484 -49.845  11.210  1.00  0.00     0.016 C 
HETATM   19  C   UNL     1     -38.411 -50.991  13.286  1.00  0.00     0.011 C 
HETATM   20  C   UNL     1     -37.677 -50.366  14.479  1.00  0.00     0.001 C 
HETATM   21  C   UNL     1     -37.481 -48.893  14.154  1.00  0.00     0.001 C 
HETATM   22  C   UNL     1     -38.560 -48.596  13.125  1.00  0.00     0.011 C 
ENDBRANCH  16  17
ENDBRANCH   4  16
TORSDOF 3
ENDMDL
MODEL 9
REMARK VINA RESULT:      -5.6      4.352      7.192
REMARK  3 active torsions:
REMARK  status: ('A' for Active; 'I' for Inactive)
REMARK    1  A    between atoms: C_9  and  N_10 
REMARK       I    between atoms: N_10  and  C_11 
REMARK       I    between atoms: C_11  and  N_13 
REMARK    2  A    between atoms: N_13  and  C_14 
REMARK    3  A    between atoms: C_14  and  C_15 
ROOT
HETATM    1  N   UNL     1     -44.156 -52.230  12.428  1.00  0.00    -0.307 N 
HETATM    2  C   UNL     1     -43.266 -51.420  13.112  1.00  0.00     0.320 C 
HETATM    3  O   UNL     1     -43.245 -51.279  14.333  1.00  0.00    -0.247 OA
HETATM    4  N   UNL     1     -42.371 -50.750  12.296  1.00  0.00    -0.342 N 
HETATM    5  H   UNL     1     -44.386 -51.938  11.488  1.00  0.00     0.170 HD
HETATM    6  H   UNL     1     -42.104 -51.240  11.453  1.00  0.00     0.164 HD
ENDROOT
BRANCH   1   7
HETATM    7  C   UNL     1     -45.041 -53.141  13.089  1.00  0.00     0.061 A 
HETATM    8  C   UNL     1     -46.251 -52.743  13.668  1.00  0.00     0.048 A 
HETATM    9  C   UNL     1     -46.759 -51.338  13.672  1.00  0.00     0.072 C 
HETATM   10  N   UNL     1     -47.051 -53.625  14.326  1.00  0.00    -0.303 N 
HETATM   11  N   UNL     1     -46.700 -54.933  14.438  1.00  0.00    -0.312 N 
ATOM     12  HN  UNL     1     -47.925 -53.300  14.739  1.00  0.00     0.186 HD
HETATM   13  C   UNL     1     -45.562 -55.352  13.867  1.00  0.00     0.109 A 
ATOM     14  HN  UNL     1     -47.293 -55.586  14.949  1.00  0.00     0.186 HD
HETATM   15  C   UNL     1     -44.727 -54.499  13.175  1.00  0.00     0.050 A 
ENDBRANCH   1   7
BRANCH   4  16
HETATM   16  C   UNL     1     -41.315 -50.025  13.003  1.00  0.00     0.133 C 
BRANCH  16  17
HETATM   17  C   UNL     1     -40.009 -50.787  13.293  1.00  0.00    -0.028 C 
HETATM   18  C   UNL     1     -38.829 -50.134  12.552  1.00  0.00     0.016 C 
HETATM   19  C   UNL     1     -40.107 -52.292  12.987  1.00  0.00     0.011 C 
HETATM   20  C   UNL     1     -39.337 -53.026  14.093  1.00  0.00     0.001 C 
HETATM   21  C   UNL     1     -38.817 -51.962  15.048  1.00  0.00     0.001 C 
HETATM   22  C   UNL     1     -39.741 -50.777  14.819  1.00  0.00     0.011 C 
ENDBRANCH  16  17
ENDBRANCH   4  16
TORSDOF 3
ENDMDL
