MODEL 1
REMARK VINA RESULT:      -6.2      0.000      0.000
REMARK  10 active torsions:
REMARK  status: ('A' for Active; 'I' for Inactive)
REMARK    1  A    between atoms: N_1  and  C_3 
REMARK    2  A    between atoms: C_2  and  S_9 
REMARK    3  A    between atoms: C_8  and  O_16 
REMARK    4  A    between atoms: C_11  and  O_19 
REMARK    5  A    between atoms: C_12  and  C_26 
REMARK    6  A    between atoms: C_15  and  N_31 
REMARK    7  A    between atoms: O_16  and  C_21 
REMARK    8  A    between atoms: O_19  and  C_22 
REMARK    9  A    between atoms: C_25  and  O_27 
REMARK   10  A    between atoms: C_26  and  O_27 
ROOT
HETATM    1  N   UNL     1     -41.723 -48.627  12.849  1.00  0.00    -0.277 N 
HETATM    2  C   UNL     1     -40.605 -47.962  13.317  1.00  0.00     0.209 A 
HETATM    3  C   UNL     1     -42.094 -48.003  11.674  1.00  0.00     0.143 A 
HETATM    4  N   UNL     1     -40.186 -47.052  12.440  1.00  0.00    -0.327 N 
ATOM      5  HN  UNL     1     -39.344 -46.479  12.500  1.00  0.00     0.168 HD
HETATM    6  C   UNL     1     -41.125 -47.048  11.438  1.00  0.00     0.117 A 
HETATM    7  N   UNL     1     -43.171 -48.265  10.908  1.00  0.00    -0.336 N 
ATOM      8  HN  UNL     1     -43.868 -48.979  11.118  1.00  0.00     0.168 HD
HETATM    9  C   UNL     1     -41.261 -46.279  10.268  1.00  0.00     0.109 A 
HETATM   10  N   UNL     1     -42.320 -46.510   9.461  1.00  0.00    -0.341 N 
ATOM     11  HN  UNL     1     -42.446 -45.980   8.598  1.00  0.00     0.167 HD
HETATM   12  C   UNL     1     -43.206 -47.459   9.827  1.00  0.00     0.183 A 
ENDROOT
BRANCH   1  13
HETATM   13  C   UNL     1     -42.459 -49.754  13.388  1.00  0.00     0.264 C 
HETATM   14  C   UNL     1     -42.105 -51.178  12.971  1.00  0.00     0.213 C 
HETATM   15  C   UNL     1     -43.443 -51.932  13.075  1.00  0.00     0.197 C 
HETATM   16  C   UNL     1     -44.476 -50.862  13.476  1.00  0.00     0.180 C 
HETATM   17  O   UNL     1     -43.867 -49.587  13.155  1.00  0.00    -0.353 OA
BRANCH  14  18
HETATM   18  O   UNL     1     -41.116 -51.752  13.844  1.00  0.00    -0.309 OA
BRANCH  18  19
HETATM   19  C   UNL     1     -40.080 -52.378  13.226  1.00  0.00     0.255 C 
HETATM   20  O   UNL     1     -39.251 -51.837  12.512  1.00  0.00    -0.266 OA
HETATM   21  C   UNL     1     -40.048 -53.815  13.637  1.00  0.00     0.126 C 
ENDBRANCH  18  19
ENDBRANCH  14  18
BRANCH  15  22
HETATM   22  O   UNL     1     -43.389 -53.025  14.003  1.00  0.00    -0.311 OA
BRANCH  22  23
HETATM   23  C   UNL     1     -43.964 -54.184  13.585  1.00  0.00     0.255 C 
HETATM   24  O   UNL     1     -44.528 -54.345  12.513  1.00  0.00    -0.266 OA
HETATM   25  C   UNL     1     -43.745 -55.270  14.594  1.00  0.00     0.126 C 
ENDBRANCH  22  23
ENDBRANCH  15  22
BRANCH  16  26
HETATM   26  C   UNL     1     -44.909 -50.889  14.958  1.00  0.00     0.213 C 
BRANCH  26  27
HETATM   27  O   UNL     1     -46.299 -51.208  15.148  1.00  0.00    -0.319 OA
BRANCH  27  28
HETATM   28  C   UNL     1     -46.606 -52.525  15.265  1.00  0.00     0.254 C 
HETATM   29  O   UNL     1     -47.204 -53.183  14.428  1.00  0.00    -0.266 OA
HETATM   30  C   UNL     1     -46.087 -53.080  16.560  1.00  0.00     0.126 C 
ENDBRANCH  27  28
ENDBRANCH  26  27
ENDBRANCH  16  26
ENDBRANCH   1  13
BRANCH   2  31
HETATM   31  S   UNL     1     -39.814 -48.199  14.889  1.00  0.00     0.203 S 
HETATM   32  O   UNL     1     -40.867 -48.147  15.883  1.00  0.00    -0.220 OA
HETATM   33  O   UNL     1     -38.991 -49.380  14.729  1.00  0.00    -0.220 OA
HETATM   34  C   UNL     1     -38.796 -46.773  15.113  1.00  0.00     0.170 C 
ENDBRANCH   2  31
BRANCH   9  35
HETATM   35  N   UNL     1     -40.349 -45.302   9.888  1.00  0.00    -0.287 NA
HETATM   36  H   UNL     1     -39.930 -45.470   8.982  1.00  0.00     0.125 HD
HETATM   37  H   UNL     1     -40.696 -44.369  10.077  1.00  0.00     0.125 HD
ENDBRANCH   9  35
TORSDOF 10
ENDMDL
MODEL 2
REMARK VINA RESULT:      -6.1      1.925      3.353
REMARK  10 active torsions:
REMARK  status: ('A' for Active; 'I' for Inactive)
REMARK    1  A    between atoms: N_1  and  C_3 
REMARK    2  A    between atoms: C_2  and  S_9 
REMARK    3  A    between atoms: C_8  and  O_16 
REMARK    4  A    between atoms: C_11  and  O_19 
REMARK    5  A    between atoms: C_12  and  C_26 
REMARK    6  A    between atoms: C_15  and  N_31 
REMARK    7  A    between atoms: O_16  and  C_21 
REMARK    8  A    between atoms: O_19  and  C_22 
REMARK    9  A    between atoms: C_25  and  O_27 
REMARK   10  A    between atoms: C_26  and  O_27 
ROOT
HETATM    1  N   UNL     1     -42.638 -47.705  12.629  1.00  0.00    -0.277 N 
HETATM    2  C   UNL     1     -42.928 -46.521  13.281  1.00  0.00     0.209 A 
HETATM    3  C   UNL     1     -42.803 -47.466  11.278  1.00  0.00     0.143 A 
HETATM    4  N   UNL     1     -43.133 -45.533  12.413  1.00  0.00    -0.327 N 
ATOM      5  HN  UNL     1     -43.288 -44.547  12.625  1.00  0.00     0.168 HD
HETATM    6  C   UNL     1     -43.094 -46.120  11.172  1.00  0.00     0.117 A 
HETATM    7  N   UNL     1     -42.701 -48.351  10.268  1.00  0.00    -0.336 N 
ATOM      8  HN  UNL     1     -42.487 -49.340  10.387  1.00  0.00     0.168 HD
HETATM    9  C   UNL     1     -43.284 -45.610   9.875  1.00  0.00     0.109 A 
HETATM   10  N   UNL     1     -43.184 -46.456   8.826  1.00  0.00    -0.341 N 
ATOM     11  HN  UNL     1     -43.305 -46.121   7.870  1.00  0.00     0.167 HD
HETATM   12  C   UNL     1     -42.920 -47.755   9.076  1.00  0.00     0.183 A 
ENDROOT
BRANCH   1  13
HETATM   13  C   UNL     1     -42.241 -49.003  13.138  1.00  0.00     0.264 C 
HETATM   14  C   UNL     1     -40.777 -49.432  13.102  1.00  0.00     0.213 C 
HETATM   15  C   UNL     1     -40.849 -50.964  12.965  1.00  0.00     0.197 C 
HETATM   16  C   UNL     1     -42.352 -51.287  12.862  1.00  0.00     0.180 C 
HETATM   17  O   UNL     1     -42.998 -50.043  12.496  1.00  0.00    -0.353 OA
BRANCH  14  18
HETATM   18  O   UNL     1     -40.087 -49.049  14.304  1.00  0.00    -0.309 OA
BRANCH  18  19
HETATM   19  C   UNL     1     -39.016 -48.231  14.131  1.00  0.00     0.255 C 
HETATM   20  O   UNL     1     -39.018 -47.188  13.497  1.00  0.00    -0.266 OA
HETATM   21  C   UNL     1     -37.858 -48.749  14.921  1.00  0.00     0.126 C 
ENDBRANCH  18  19
ENDBRANCH  14  18
BRANCH  15  22
HETATM   22  O   UNL     1     -40.210 -51.645  14.054  1.00  0.00    -0.311 OA
BRANCH  22  23
HETATM   23  C   UNL     1     -39.088 -52.345  13.737  1.00  0.00     0.255 C 
HETATM   24  O   UNL     1     -38.097 -51.880  13.194  1.00  0.00    -0.266 OA
HETATM   25  C   UNL     1     -39.202 -53.760  14.214  1.00  0.00     0.126 C 
ENDBRANCH  22  23
ENDBRANCH  15  22
BRANCH  16  26
HETATM   26  C   UNL     1     -42.990 -51.864  14.144  1.00  0.00     0.213 C 
BRANCH  26  27
HETATM   27  O   UNL     1     -43.908 -52.944  13.897  1.00  0.00    -0.319 OA
BRANCH  27  28
HETATM   28  C   UNL     1     -45.065 -52.620  13.265  1.00  0.00     0.254 C 
HETATM   29  O   UNL     1     -45.439 -53.090  12.202  1.00  0.00    -0.266 OA
HETATM   30  C   UNL     1     -45.848 -51.620  14.065  1.00  0.00     0.126 C 
ENDBRANCH  27  28
ENDBRANCH  26  27
ENDBRANCH  16  26
ENDBRANCH   1  13
BRANCH   2  31
HETATM   31  S   UNL     1     -43.075 -46.289  15.036  1.00  0.00     0.203 S 
HETATM   32  O   UNL     1     -44.052 -45.235  15.223  1.00  0.00    -0.220 OA
HETATM   33  O   UNL     1     -43.286 -47.614  15.581  1.00  0.00    -0.220 OA
HETATM   34  C   UNL     1     -41.506 -45.662  15.551  1.00  0.00     0.170 C 
ENDBRANCH   2  31
BRANCH   9  35
HETATM   35  N   UNL     1     -43.556 -44.273   9.614  1.00  0.00    -0.287 NA
HETATM   36  H   UNL     1     -42.965 -43.873   8.895  1.00  0.00     0.125 HD
HETATM   37  H   UNL     1     -44.551 -44.095   9.554  1.00  0.00     0.125 HD
ENDBRANCH   9  35
TORSDOF 10
ENDMDL
MODEL 3
REMARK VINA RESULT:      -5.9      3.602      6.930
REMARK  10 active torsions:
REMARK  status: ('A' for Active; 'I' for Inactive)
REMARK    1  A    between atoms: N_1  and  C_3 
REMARK    2  A    between atoms: C_2  and  S_9 
REMARK    3  A    between atoms: C_8  and  O_16 
REMARK    4  A    between atoms: C_11  and  O_19 
REMARK    5  A    between atoms: C_12  and  C_26 
REMARK    6  A    between atoms: C_15  and  N_31 
REMARK    7  A    between atoms: O_16  and  C_21 
REMARK    8  A    between atoms: O_19  and  C_22 
REMARK    9  A    between atoms: C_25  and  O_27 
REMARK   10  A    between atoms: C_26  and  O_27 
ROOT
HETATM    1  N   UNL     1     -42.202 -52.477  13.648  1.00  0.00    -0.277 N 
HETATM    2  C   UNL     1     -41.734 -53.632  14.246  1.00  0.00     0.209 A 
HETATM    3  C   UNL     1     -43.526 -52.703  13.325  1.00  0.00     0.143 A 
HETATM    4  N   UNL     1     -42.718 -54.509  14.430  1.00  0.00    -0.327 N 
ATOM      5  HN  UNL     1     -42.664 -55.404  14.916  1.00  0.00     0.168 HD
HETATM    6  C   UNL     1     -43.822 -53.955  13.828  1.00  0.00     0.117 A 
HETATM    7  N   UNL     1     -44.363 -51.883  12.661  1.00  0.00    -0.336 N 
ATOM      8  HN  UNL     1     -44.105 -50.965  12.301  1.00  0.00     0.168 HD
HETATM    9  C   UNL     1     -45.138 -54.418  13.651  1.00  0.00     0.109 A 
HETATM   10  N   UNL     1     -46.019 -53.628  12.998  1.00  0.00    -0.341 N 
ATOM     11  HN  UNL     1     -46.985 -53.925  12.860  1.00  0.00     0.167 HD
HETATM   12  C   UNL     1     -45.588 -52.437  12.535  1.00  0.00     0.183 A 
ENDROOT
BRANCH   1  13
HETATM   13  C   UNL     1     -41.543 -51.219  13.353  1.00  0.00     0.264 C 
HETATM   14  C   UNL     1     -42.093 -49.909  13.909  1.00  0.00     0.213 C 
HETATM   15  C   UNL     1     -41.688 -48.866  12.852  1.00  0.00     0.197 C 
HETATM   16  C   UNL     1     -40.999 -49.672  11.736  1.00  0.00     0.180 C 
HETATM   17  O   UNL     1     -41.410 -51.047  11.932  1.00  0.00    -0.353 OA
BRANCH  14  18
HETATM   18  O   UNL     1     -41.519 -49.600  15.191  1.00  0.00    -0.309 OA
BRANCH  18  19
HETATM   19  C   UNL     1     -42.276 -49.935  16.269  1.00  0.00     0.255 C 
HETATM   20  O   UNL     1     -41.843 -50.298  17.351  1.00  0.00    -0.266 OA
HETATM   21  C   UNL     1     -43.718 -49.692  15.962  1.00  0.00     0.126 C 
ENDBRANCH  18  19
ENDBRANCH  14  18
BRANCH  15  22
HETATM   22  O   UNL     1     -40.849 -47.834  13.389  1.00  0.00    -0.311 OA
BRANCH  22  23
HETATM   23  C   UNL     1     -41.257 -46.558  13.156  1.00  0.00     0.255 C 
HETATM   24  O   UNL     1     -40.526 -45.580  13.118  1.00  0.00    -0.266 OA
HETATM   25  C   UNL     1     -42.728 -46.523  12.875  1.00  0.00     0.126 C 
ENDBRANCH  22  23
ENDBRANCH  15  22
BRANCH  16  26
HETATM   26  C   UNL     1     -39.459 -49.573  11.708  1.00  0.00     0.213 C 
BRANCH  26  27
HETATM   27  O   UNL     1     -38.796 -50.848  11.770  1.00  0.00    -0.319 OA
BRANCH  27  28
HETATM   28  C   UNL     1     -37.701 -50.922  12.568  1.00  0.00     0.254 C 
HETATM   29  O   UNL     1     -36.755 -51.675  12.395  1.00  0.00    -0.266 OA
HETATM   30  C   UNL     1     -37.790 -49.928  13.690  1.00  0.00     0.126 C 
ENDBRANCH  27  28
ENDBRANCH  26  27
ENDBRANCH  16  26
ENDBRANCH   1  13
BRANCH   2  31
HETATM   31  S   UNL     1     -40.051 -53.987  14.686  1.00  0.00     0.203 S 
HETATM   32  O   UNL     1     -40.088 -55.200  15.478  1.00  0.00    -0.220 OA
HETATM   33  O   UNL     1     -39.309 -53.924  13.444  1.00  0.00    -0.220 OA
HETATM   34  C   UNL     1     -39.565 -52.666  15.753  1.00  0.00     0.170 C 
ENDBRANCH   2  31
BRANCH   9  35
HETATM   35  N   UNL     1     -45.585 -55.644  14.127  1.00  0.00    -0.287 NA
HETATM   36  H   UNL     1     -45.366 -55.803  15.103  1.00  0.00     0.125 HD
HETATM   37  H   UNL     1     -46.529 -55.846  13.821  1.00  0.00     0.125 HD
ENDBRANCH   9  35
TORSDOF 10
ENDMDL
MODEL 4
REMARK VINA RESULT:      -5.8      1.984      2.976
REMARK  10 active torsions:
REMARK  status: ('A' for Active; 'I' for Inactive)
REMARK    1  A    between atoms: N_1  and  C_3 
REMARK    2  A    between atoms: C_2  and  S_9 
REMARK    3  A    between atoms: C_8  and  O_16 
REMARK    4  A    between atoms: C_11  and  O_19 
REMARK    5  A    between atoms: C_12  and  C_26 
REMARK    6  A    between atoms: C_15  and  N_31 
REMARK    7  A    between atoms: O_16  and  C_21 
REMARK    8  A    between atoms: O_19  and  C_22 
REMARK    9  A    between atoms: C_25  and  O_27 
REMARK   10  A    between atoms: C_26  and  O_27 
ROOT
HETATM    1  N   UNL     1     -41.322 -49.691  12.391  1.00  0.00    -0.277 N 
HETATM    2  C   UNL     1     -39.957 -49.654  12.173  1.00  0.00     0.209 A 
HETATM    3  C   UNL     1     -41.838 -48.513  11.887  1.00  0.00     0.143 A 
HETATM    4  N   UNL     1     -39.616 -48.589  11.451  1.00  0.00    -0.327 N 
ATOM      5  HN  UNL     1     -38.691 -48.363  11.085  1.00  0.00     0.168 HD
HETATM    6  C   UNL     1     -40.770 -47.860  11.302  1.00  0.00     0.117 A 
HETATM    7  N   UNL     1     -43.112 -48.082  11.944  1.00  0.00    -0.336 N 
ATOM      8  HN  UNL     1     -43.874 -48.593  12.389  1.00  0.00     0.168 HD
HETATM    9  C   UNL     1     -41.040 -46.626  10.683  1.00  0.00     0.109 A 
HETATM   10  N   UNL     1     -42.305 -46.154  10.706  1.00  0.00    -0.341 N 
ATOM     11  HN  UNL     1     -42.542 -45.268  10.259  1.00  0.00     0.167 HD
HETATM   12  C   UNL     1     -43.249 -46.885  11.336  1.00  0.00     0.183 A 
ENDROOT
BRANCH   1  13
HETATM   13  C   UNL     1     -42.162 -50.694  13.016  1.00  0.00     0.264 C 
HETATM   14  C   UNL     1     -41.861 -51.182  14.430  1.00  0.00     0.213 C 
HETATM   15  C   UNL     1     -42.379 -52.632  14.433  1.00  0.00     0.197 C 
HETATM   16  C   UNL     1     -42.873 -52.884  12.996  1.00  0.00     0.180 C 
HETATM   17  O   UNL     1     -42.253 -51.859  12.181  1.00  0.00    -0.353 OA
BRANCH  14  18
HETATM   18  O   UNL     1     -42.538 -50.386  15.418  1.00  0.00    -0.309 OA
BRANCH  18  19
HETATM   19  C   UNL     1     -41.973 -49.179  15.687  1.00  0.00     0.255 C 
HETATM   20  O   UNL     1     -40.785 -48.983  15.885  1.00  0.00    -0.266 OA
HETATM   21  C   UNL     1     -43.014 -48.110  15.602  1.00  0.00     0.126 C 
ENDBRANCH  18  19
ENDBRANCH  14  18
BRANCH  15  22
HETATM   22  O   UNL     1     -43.400 -52.850  15.417  1.00  0.00    -0.311 OA
BRANCH  22  23
HETATM   23  C   UNL     1     -43.245 -53.954  16.195  1.00  0.00     0.255 C 
HETATM   24  O   UNL     1     -44.141 -54.518  16.806  1.00  0.00    -0.266 OA
HETATM   25  C   UNL     1     -41.827 -54.434  16.145  1.00  0.00     0.126 C 
ENDBRANCH  22  23
ENDBRANCH  15  22
BRANCH  16  26
HETATM   26  C   UNL     1     -44.406 -52.857  12.815  1.00  0.00     0.213 C 
BRANCH  26  27
HETATM   27  O   UNL     1     -44.984 -54.155  12.591  1.00  0.00    -0.319 OA
BRANCH  27  28
HETATM   28  C   UNL     1     -45.648 -54.709  13.638  1.00  0.00     0.254 C 
HETATM   29  O   UNL     1     -45.531 -55.866  14.010  1.00  0.00    -0.266 OA
HETATM   30  C   UNL     1     -46.534 -53.696  14.303  1.00  0.00     0.126 C 
ENDBRANCH  27  28
ENDBRANCH  26  27
ENDBRANCH  16  26
ENDBRANCH   1  13
BRANCH   2  31
HETATM   31  S   UNL     1     -38.756 -50.808  12.789  1.00  0.00     0.203 S 
HETATM   32  O   UNL     1     -38.452 -50.391  14.143  1.00  0.00    -0.220 OA
HETATM   33  O   UNL     1     -39.308 -52.118  12.513  1.00  0.00    -0.220 OA
HETATM   34  C   UNL     1     -37.312 -50.538  11.809  1.00  0.00     0.170 C 
ENDBRANCH   2  31
BRANCH   9  35
HETATM   35  N   UNL     1     -40.071 -45.872  10.034  1.00  0.00    -0.287 NA
HETATM   36  H   UNL     1     -39.253 -46.407   9.767  1.00  0.00     0.125 HD
HETATM   37  H   UNL     1     -40.475 -45.257   9.337  1.00  0.00     0.125 HD
ENDBRANCH   9  35
TORSDOF 10
ENDMDL
MODEL 5
REMARK VINA RESULT:      -5.8      3.632      6.966
REMARK  10 active torsions:
REMARK  status: ('A' for Active; 'I' for Inactive)
REMARK    1  A    between atoms: N_1  and  C_3 
REMARK    2  A    between atoms: C_2  and  S_9 
REMARK    3  A    between atoms: C_8  and  O_16 
REMARK    4  A    between atoms: C_11  and  O_19 
REMARK    5  A    between atoms: C_12  and  C_26 
REMARK    6  A    between atoms: C_15  and  N_31 
REMARK    7  A    between atoms: O_16  and  C_21 
REMARK    8  A    between atoms: O_19  and  C_22 
REMARK    9  A    between atoms: C_25  and  O_27 
REMARK   10  A    between atoms: C_26  and  O_27 
ROOT
HETATM    1  N   UNL     1     -40.792 -49.718  13.377  1.00  0.00    -0.277 N 
HETATM    2  C   UNL     1     -41.503 -49.330  12.257  1.00  0.00     0.209 A 
HETATM    3  C   UNL     1     -41.259 -50.968  13.734  1.00  0.00     0.143 A 
HETATM    4  N   UNL     1     -42.286 -50.314  11.823  1.00  0.00    -0.327 N 
ATOM      5  HN  UNL     1     -42.856 -50.322  10.976  1.00  0.00     0.168 HD
HETATM    6  C   UNL     1     -42.168 -51.317  12.754  1.00  0.00     0.117 A 
HETATM    7  N   UNL     1     -40.909 -51.703  14.807  1.00  0.00    -0.336 N 
ATOM      8  HN  UNL     1     -40.234 -51.408  15.512  1.00  0.00     0.168 HD
HETATM    9  C   UNL     1     -42.779 -52.579  12.873  1.00  0.00     0.109 A 
HETATM   10  N   UNL     1     -42.454 -53.358  13.927  1.00  0.00    -0.341 N 
ATOM     11  HN  UNL     1     -42.868 -54.284  14.042  1.00  0.00     0.167 HD
HETATM   12  C   UNL     1     -41.568 -52.880  14.826  1.00  0.00     0.183 A 
ENDROOT
BRANCH   1  13
HETATM   13  C   UNL     1     -39.750 -49.044  14.129  1.00  0.00     0.264 C 
HETATM   14  C   UNL     1     -38.407 -49.725  14.369  1.00  0.00     0.213 C 
HETATM   15  C   UNL     1     -37.938 -49.143  15.715  1.00  0.00     0.197 C 
HETATM   16  C   UNL     1     -39.086 -48.225  16.176  1.00  0.00     0.180 C 
HETATM   17  O   UNL     1     -40.248 -48.634  15.413  1.00  0.00    -0.353 OA
BRANCH  14  18
HETATM   18  O   UNL     1     -37.470 -49.427  13.320  1.00  0.00    -0.309 OA
BRANCH  18  19
HETATM   19  C   UNL     1     -37.269 -50.418  12.412  1.00  0.00     0.255 C 
HETATM   20  O   UNL     1     -37.051 -51.589  12.681  1.00  0.00    -0.266 OA
HETATM   21  C   UNL     1     -37.459 -49.878  11.031  1.00  0.00     0.126 C 
ENDBRANCH  18  19
ENDBRANCH  14  18
BRANCH  15  22
HETATM   22  O   UNL     1     -36.685 -48.453  15.611  1.00  0.00    -0.311 OA
BRANCH  22  23
HETATM   23  C   UNL     1     -35.693 -48.904  16.424  1.00  0.00     0.255 C 
HETATM   24  O   UNL     1     -34.947 -49.839  16.175  1.00  0.00    -0.266 OA
HETATM   25  C   UNL     1     -35.587 -48.044  17.646  1.00  0.00     0.126 C 
ENDBRANCH  22  23
ENDBRANCH  15  22
BRANCH  16  26
HETATM   26  C   UNL     1     -38.832 -46.714  15.995  1.00  0.00     0.213 C 
BRANCH  26  27
HETATM   27  O   UNL     1     -39.929 -46.012  15.384  1.00  0.00    -0.319 OA
BRANCH  27  28
HETATM   28  C   UNL     1     -39.653 -44.783  14.877  1.00  0.00     0.254 C 
HETATM   29  O   UNL     1     -39.749 -43.732  15.492  1.00  0.00    -0.266 OA
HETATM   30  C   UNL     1     -39.183 -44.887  13.455  1.00  0.00     0.126 C 
ENDBRANCH  27  28
ENDBRANCH  26  27
ENDBRANCH  16  26
ENDBRANCH   1  13
BRANCH   2  31
HETATM   31  S   UNL     1     -41.465 -47.734  11.481  1.00  0.00     0.203 S 
HETATM   32  O   UNL     1     -42.193 -46.840  12.361  1.00  0.00    -0.220 OA
HETATM   33  O   UNL     1     -40.074 -47.498  11.156  1.00  0.00    -0.220 OA
HETATM   34  C   UNL     1     -42.414 -47.917  10.002  1.00  0.00     0.170 C 
ENDBRANCH   2  31
BRANCH   9  35
HETATM   35  N   UNL     1     -43.691 -53.074  11.949  1.00  0.00    -0.287 NA
HETATM   36  H   UNL     1     -44.545 -53.419  12.370  1.00  0.00     0.125 HD
HETATM   37  H   UNL     1     -43.779 -52.467  11.143  1.00  0.00     0.125 HD
ENDBRANCH   9  35
TORSDOF 10
ENDMDL
MODEL 6
REMARK VINA RESULT:      -5.7      1.788      2.620
REMARK  10 active torsions:
REMARK  status: ('A' for Active; 'I' for Inactive)
REMARK    1  A    between atoms: N_1  and  C_3 
REMARK    2  A    between atoms: C_2  and  S_9 
REMARK    3  A    between atoms: C_8  and  O_16 
REMARK    4  A    between atoms: C_11  and  O_19 
REMARK    5  A    between atoms: C_12  and  C_26 
REMARK    6  A    between atoms: C_15  and  N_31 
REMARK    7  A    between atoms: O_16  and  C_21 
REMARK    8  A    between atoms: O_19  and  C_22 
REMARK    9  A    between atoms: C_25  and  O_27 
REMARK   10  A    between atoms: C_26  and  O_27 
ROOT
HETATM    1  N   UNL     1     -40.622 -48.207  12.965  1.00  0.00    -0.277 N 
HETATM    2  C   UNL     1     -40.018 -47.050  13.418  1.00  0.00     0.209 A 
HETATM    3  C   UNL     1     -41.298 -47.877  11.806  1.00  0.00     0.143 A 
HETATM    4  N   UNL     1     -40.170 -46.056  12.545  1.00  0.00    -0.327 N 
ATOM      5  HN  UNL     1     -39.762 -45.123  12.596  1.00  0.00     0.168 HD
HETATM    6  C   UNL     1     -40.993 -46.552  11.563  1.00  0.00     0.117 A 
HETATM    7  N   UNL     1     -42.089 -48.672  11.060  1.00  0.00    -0.336 N 
ATOM      8  HN  UNL     1     -42.293 -49.647  11.274  1.00  0.00     0.168 HD
HETATM    9  C   UNL     1     -41.546 -45.973  10.407  1.00  0.00     0.109 A 
HETATM   10  N   UNL     1     -42.340 -46.731   9.620  1.00  0.00    -0.341 N 
ATOM     11  HN  UNL     1     -42.751 -46.350   8.767  1.00  0.00     0.167 HD
HETATM   12  C   UNL     1     -42.576 -48.007   9.991  1.00  0.00     0.183 A 
ENDROOT
BRANCH   1  13
HETATM   13  C   UNL     1     -40.631 -49.554  13.503  1.00  0.00     0.264 C 
HETATM   14  C   UNL     1     -39.836 -50.664  12.822  1.00  0.00     0.213 C 
HETATM   15  C   UNL     1     -40.642 -51.936  13.137  1.00  0.00     0.197 C 
HETATM   16  C   UNL     1     -41.877 -51.446  13.916  1.00  0.00     0.180 C 
HETATM   17  O   UNL     1     -41.981 -50.028  13.637  1.00  0.00    -0.353 OA
BRANCH  14  18
HETATM   18  O   UNL     1     -38.500 -50.751  13.347  1.00  0.00    -0.309 OA
BRANCH  18  19
HETATM   19  C   UNL     1     -37.510 -50.856  12.420  1.00  0.00     0.255 C 
HETATM   20  O   UNL     1     -36.757 -51.809  12.296  1.00  0.00    -0.266 OA
HETATM   21  C   UNL     1     -37.551 -49.672  11.510  1.00  0.00     0.126 C 
ENDBRANCH  18  19
ENDBRANCH  14  18
BRANCH  15  22
HETATM   22  O   UNL     1     -39.877 -52.907  13.866  1.00  0.00    -0.311 OA
BRANCH  22  23
HETATM   23  C   UNL     1     -40.123 -54.208  13.555  1.00  0.00     0.255 C 
HETATM   24  O   UNL     1     -40.927 -54.593  12.719  1.00  0.00    -0.266 OA
HETATM   25  C   UNL     1     -39.213 -55.111  14.330  1.00  0.00     0.126 C 
ENDBRANCH  22  23
ENDBRANCH  15  22
BRANCH  16  26
HETATM   26  C   UNL     1     -41.833 -51.690  15.439  1.00  0.00     0.213 C 
BRANCH  26  27
HETATM   27  O   UNL     1     -42.416 -52.942  15.842  1.00  0.00    -0.319 OA
BRANCH  27  28
HETATM   28  C   UNL     1     -43.686 -53.179  15.427  1.00  0.00     0.254 C 
HETATM   29  O   UNL     1     -44.630 -52.421  15.589  1.00  0.00    -0.266 OA
HETATM   30  C   UNL     1     -43.776 -54.495  14.710  1.00  0.00     0.126 C 
ENDBRANCH  27  28
ENDBRANCH  26  27
ENDBRANCH  16  26
ENDBRANCH   1  13
BRANCH   2  31
HETATM   31  S   UNL     1     -39.183 -46.830  14.970  1.00  0.00     0.203 S 
HETATM   32  O   UNL     1     -39.880 -47.668  15.926  1.00  0.00    -0.220 OA
HETATM   33  O   UNL     1     -37.778 -47.031  14.680  1.00  0.00    -0.220 OA
HETATM   34  C   UNL     1     -39.478 -45.148  15.418  1.00  0.00     0.170 C 
ENDBRANCH   2  31
BRANCH   9  35
HETATM   35  N   UNL     1     -41.305 -44.660  10.022  1.00  0.00    -0.287 NA
HETATM   36  H   UNL     1     -41.907 -43.987  10.481  1.00  0.00     0.125 HD
HETATM   37  H   UNL     1     -40.314 -44.453   9.987  1.00  0.00     0.125 HD
ENDBRANCH   9  35
TORSDOF 10
ENDMDL
MODEL 7
REMARK VINA RESULT:      -5.7      3.290      6.761
REMARK  10 active torsions:
REMARK  status: ('A' for Active; 'I' for Inactive)
REMARK    1  A    between atoms: N_1  and  C_3 
REMARK    2  A    between atoms: C_2  and  S_9 
REMARK    3  A    between atoms: C_8  and  O_16 
REMARK    4  A    between atoms: C_11  and  O_19 
REMARK    5  A    between atoms: C_12  and  C_26 
REMARK    6  A    between atoms: C_15  and  N_31 
REMARK    7  A    between atoms: O_16  and  C_21 
REMARK    8  A    between atoms: O_19  and  C_22 
REMARK    9  A    between atoms: C_25  and  O_27 
REMARK   10  A    between atoms: C_26  and  O_27 
ROOT
HETATM    1  N   UNL     1     -41.096 -50.130  12.695  1.00  0.00    -0.277 N 
HETATM    2  C   UNL     1     -39.928 -50.848  12.865  1.00  0.00     0.209 A 
HETATM    3  C   UNL     1     -42.140 -50.998  12.952  1.00  0.00     0.143 A 
HETATM    4  N   UNL     1     -40.179 -52.068  13.336  1.00  0.00    -0.327 N 
ATOM      5  HN  UNL     1     -39.498 -52.772  13.622  1.00  0.00     0.168 HD
HETATM    6  C   UNL     1     -41.548 -52.179  13.356  1.00  0.00     0.117 A 
HETATM    7  N   UNL     1     -43.459 -50.756  12.837  1.00  0.00    -0.336 N 
ATOM      8  HN  UNL     1     -43.858 -49.869  12.531  1.00  0.00     0.168 HD
HETATM    9  C   UNL     1     -42.410 -53.235  13.706  1.00  0.00     0.109 A 
HETATM   10  N   UNL     1     -43.743 -53.039  13.616  1.00  0.00    -0.341 N 
ATOM     11  HN  UNL     1     -44.399 -53.777  13.872  1.00  0.00     0.167 HD
HETATM   12  C   UNL     1     -44.185 -51.841  13.180  1.00  0.00     0.183 A 
ENDROOT
BRANCH   1  13
HETATM   13  C   UNL     1     -41.321 -48.747  12.319  1.00  0.00     0.264 C 
HETATM   14  C   UNL     1     -41.550 -47.683  13.388  1.00  0.00     0.213 C 
HETATM   15  C   UNL     1     -42.455 -46.653  12.689  1.00  0.00     0.197 C 
HETATM   16  C   UNL     1     -42.733 -47.244  11.294  1.00  0.00     0.180 C 
HETATM   17  O   UNL     1     -42.417 -48.654  11.394  1.00  0.00    -0.353 OA
BRANCH  14  18
HETATM   18  O   UNL     1     -40.312 -47.086  13.810  1.00  0.00    -0.309 OA
BRANCH  18  19
HETATM   19  C   UNL     1     -40.117 -47.023  15.154  1.00  0.00     0.255 C 
HETATM   20  O   UNL     1     -39.369 -46.245  15.724  1.00  0.00    -0.266 OA
HETATM   21  C   UNL     1     -41.037 -47.983  15.837  1.00  0.00     0.126 C 
ENDBRANCH  18  19
ENDBRANCH  14  18
BRANCH  15  22
HETATM   22  O   UNL     1     -41.861 -45.348  12.630  1.00  0.00    -0.311 OA
BRANCH  22  23
HETATM   23  C   UNL     1     -42.671 -44.314  12.981  1.00  0.00     0.255 C 
HETATM   24  O   UNL     1     -43.289 -44.228  14.032  1.00  0.00    -0.266 OA
HETATM   25  C   UNL     1     -42.645 -43.248  11.929  1.00  0.00     0.126 C 
ENDBRANCH  22  23
ENDBRANCH  15  22
BRANCH  16  26
HETATM   26  C   UNL     1     -41.940 -46.599  10.138  1.00  0.00     0.213 C 
BRANCH  26  27
HETATM   27  O   UNL     1     -42.743 -45.776   9.273  1.00  0.00    -0.319 OA
BRANCH  27  28
HETATM   28  C   UNL     1     -43.840 -46.363   8.729  1.00  0.00     0.254 C 
HETATM   29  O   UNL     1     -44.985 -45.955   8.847  1.00  0.00    -0.266 OA
HETATM   30  C   UNL     1     -43.456 -47.575   7.932  1.00  0.00     0.126 C 
ENDBRANCH  27  28
ENDBRANCH  26  27
ENDBRANCH  16  26
ENDBRANCH   1  13
BRANCH   2  31
HETATM   31  S   UNL     1     -38.284 -50.301  12.477  1.00  0.00     0.203 S 
HETATM   32  O   UNL     1     -37.489 -51.501  12.305  1.00  0.00    -0.220 OA
HETATM   33  O   UNL     1     -38.442 -49.345  11.402  1.00  0.00    -0.220 OA
HETATM   34  C   UNL     1     -37.713 -49.486  13.937  1.00  0.00     0.170 C 
ENDBRANCH   2  31
BRANCH   9  35
HETATM   35  N   UNL     1     -41.958 -54.469  14.156  1.00  0.00    -0.287 NA
HETATM   36  H   UNL     1     -42.369 -54.754  15.037  1.00  0.00     0.125 HD
HETATM   37  H   UNL     1     -41.929 -55.155  13.411  1.00  0.00     0.125 HD
ENDBRANCH   9  35
TORSDOF 10
ENDMDL
MODEL 8
REMARK VINA RESULT:      -5.6      2.920      7.126
REMARK  10 active torsions:
REMARK  status: ('A' for Active; 'I' for Inactive)
REMARK    1  A    between atoms: N_1  and  C_3 
REMARK    2  A    between atoms: C_2  and  S_9 
REMARK    3  A    between atoms: C_8  and  O_16 
REMARK    4  A    between atoms: C_11  and  O_19 
REMARK    5  A    between atoms: C_12  and  C_26 
REMARK    6  A    between atoms: C_15  and  N_31 
REMARK    7  A    between atoms: O_16  and  C_21 
REMARK    8  A    between atoms: O_19  and  C_22 
REMARK    9  A    between atoms: C_25  and  O_27 
REMARK   10  A    between atoms: C_26  and  O_27 
ROOT
HETATM    1  N   UNL     1     -40.589 -48.545  12.659  1.00  0.00    -0.277 N 
HETATM    2  C   UNL     1     -41.140 -49.753  12.275  1.00  0.00     0.209 A 
HETATM    3  C   UNL     1     -40.962 -47.616  11.707  1.00  0.00     0.143 A 
HETATM    4  N   UNL     1     -41.937 -49.602  11.219  1.00  0.00    -0.327 N 
ATOM      5  HN  UNL     1     -42.524 -50.313  10.782  1.00  0.00     0.168 HD
HETATM    6  C   UNL     1     -41.801 -48.288  10.841  1.00  0.00     0.117 A 
HETATM    7  N   UNL     1     -40.594 -46.322  11.631  1.00  0.00    -0.336 N 
ATOM      8  HN  UNL     1     -39.967 -45.861  12.290  1.00  0.00     0.168 HD
HETATM    9  C   UNL     1     -42.348 -47.545   9.778  1.00  0.00     0.109 A 
HETATM   10  N   UNL     1     -42.016 -46.241   9.663  1.00  0.00    -0.341 N 
ATOM     11  HN  UNL     1     -42.401 -45.667   8.912  1.00  0.00     0.167 HD
HETATM   12  C   UNL     1     -41.162 -45.717  10.567  1.00  0.00     0.183 A 
ENDROOT
BRANCH   1  13
HETATM   13  C   UNL     1     -39.762 -48.191  13.797  1.00  0.00     0.264 C 
HETATM   14  C   UNL     1     -40.252 -47.169  14.819  1.00  0.00     0.213 C 
HETATM   15  C   UNL     1     -38.955 -46.522  15.337  1.00  0.00     0.197 C 
HETATM   16  C   UNL     1     -37.825 -47.175  14.519  1.00  0.00     0.180 C 
HETATM   17  O   UNL     1     -38.467 -47.754  13.355  1.00  0.00    -0.353 OA
BRANCH  14  18
HETATM   18  O   UNL     1     -40.980 -47.801  15.886  1.00  0.00    -0.309 OA
BRANCH  18  19
HETATM   19  C   UNL     1     -42.318 -47.935  15.684  1.00  0.00     0.255 C 
HETATM   20  O   UNL     1     -42.991 -48.894  16.027  1.00  0.00    -0.266 OA
HETATM   21  C   UNL     1     -42.859 -46.685  15.070  1.00  0.00     0.126 C 
ENDBRANCH  18  19
ENDBRANCH  14  18
BRANCH  15  22
HETATM   22  O   UNL     1     -38.782 -46.691  16.752  1.00  0.00    -0.311 OA
BRANCH  22  23
HETATM   23  C   UNL     1     -38.523 -45.556  17.455  1.00  0.00     0.255 C 
HETATM   24  O   UNL     1     -38.870 -44.431  17.130  1.00  0.00    -0.266 OA
HETATM   25  C   UNL     1     -37.812 -45.884  18.732  1.00  0.00     0.126 C 
ENDBRANCH  22  23
ENDBRANCH  15  22
BRANCH  16  26
HETATM   26  C   UNL     1     -37.007 -48.249  15.267  1.00  0.00     0.213 C 
BRANCH  26  27
HETATM   27  O   UNL     1     -35.705 -47.799  15.682  1.00  0.00    -0.319 OA
BRANCH  27  28
HETATM   28  C   UNL     1     -35.378 -48.014  16.982  1.00  0.00     0.254 C 
HETATM   29  O   UNL     1     -34.560 -47.366  17.616  1.00  0.00    -0.266 OA
HETATM   30  C   UNL     1     -36.179 -49.148  17.553  1.00  0.00     0.126 C 
ENDBRANCH  27  28
ENDBRANCH  26  27
ENDBRANCH  16  26
ENDBRANCH   1  13
BRANCH   2  31
HETATM   31  S   UNL     1     -40.829 -51.339  13.010  1.00  0.00     0.203 S 
HETATM   32  O   UNL     1     -39.480 -51.704  12.628  1.00  0.00    -0.220 OA
HETATM   33  O   UNL     1     -41.202 -51.195  14.402  1.00  0.00    -0.220 OA
HETATM   34  C   UNL     1     -41.936 -52.449  12.196  1.00  0.00     0.170 C 
ENDBRANCH   2  31
BRANCH   9  35
HETATM   35  N   UNL     1     -43.227 -48.082   8.846  1.00  0.00    -0.287 NA
HETATM   36  H   UNL     1     -42.906 -47.993   7.890  1.00  0.00     0.125 HD
HETATM   37  H   UNL     1     -43.581 -48.985   9.138  1.00  0.00     0.125 HD
ENDBRANCH   9  35
TORSDOF 10
ENDMDL
MODEL 9
REMARK VINA RESULT:      -5.6      3.262      6.943
REMARK  10 active torsions:
REMARK  status: ('A' for Active; 'I' for Inactive)
REMARK    1  A    between atoms: N_1  and  C_3 
REMARK    2  A    between atoms: C_2  and  S_9 
REMARK    3  A    between atoms: C_8  and  O_16 
REMARK    4  A    between atoms: C_11  and  O_19 
REMARK    5  A    between atoms: C_12  and  C_26 
REMARK    6  A    between atoms: C_15  and  N_31 
REMARK    7  A    between atoms: O_16  and  C_21 
REMARK    8  A    between atoms: O_19  and  C_22 
REMARK    9  A    between atoms: C_25  and  O_27 
REMARK   10  A    between atoms: C_26  and  O_27 
ROOT
HETATM    1  N   UNL     1     -42.722 -51.540  13.263  1.00  0.00    -0.277 N 
HETATM    2  C   UNL     1     -41.945 -52.660  13.493  1.00  0.00     0.209 A 
HETATM    3  C   UNL     1     -44.036 -51.968  13.227  1.00  0.00     0.143 A 
HETATM    4  N   UNL     1     -42.702 -53.728  13.731  1.00  0.00    -0.327 N 
ATOM      5  HN  UNL     1     -42.387 -54.659  14.005  1.00  0.00     0.168 HD
HETATM    6  C   UNL     1     -43.996 -53.314  13.531  1.00  0.00     0.117 A 
HETATM    7  N   UNL     1     -45.132 -51.235  12.956  1.00  0.00    -0.336 N 
ATOM      8  HN  UNL     1     -45.120 -50.240  12.732  1.00  0.00     0.168 HD
HETATM    9  C   UNL     1     -45.228 -53.991  13.585  1.00  0.00     0.109 A 
HETATM   10  N   UNL     1     -46.359 -53.298  13.329  1.00  0.00    -0.341 N 
ATOM     11  HN  UNL     1     -47.272 -53.752  13.370  1.00  0.00     0.167 HD
HETATM   12  C   UNL     1     -46.250 -51.989  13.019  1.00  0.00     0.183 A 
ENDROOT
BRANCH   1  13
HETATM   13  C   UNL     1     -42.361 -50.149  13.071  1.00  0.00     0.264 C 
HETATM   14  C   UNL     1     -42.569 -49.135  14.193  1.00  0.00     0.213 C 
HETATM   15  C   UNL     1     -42.822 -47.813  13.447  1.00  0.00     0.197 C 
HETATM   16  C   UNL     1     -42.810 -48.187  11.953  1.00  0.00     0.180 C 
HETATM   17  O   UNL     1     -43.011 -49.621  11.904  1.00  0.00    -0.353 OA
BRANCH  14  18
HETATM   18  O   UNL     1     -41.409 -49.041  15.039  1.00  0.00    -0.309 OA
BRANCH  18  19
HETATM   19  C   UNL     1     -41.645 -49.152  16.373  1.00  0.00     0.255 C 
HETATM   20  O   UNL     1     -42.322 -50.019  16.901  1.00  0.00    -0.266 OA
HETATM   21  C   UNL     1     -40.864 -48.109  17.106  1.00  0.00     0.126 C 
ENDBRANCH  18  19
ENDBRANCH  14  18
BRANCH  15  22
HETATM   22  O   UNL     1     -41.857 -46.803  13.773  1.00  0.00    -0.311 OA
BRANCH  22  23
HETATM   23  C   UNL     1     -42.365 -45.587  14.108  1.00  0.00     0.255 C 
HETATM   24  O   UNL     1     -43.554 -45.308  14.155  1.00  0.00    -0.266 OA
HETATM   25  C   UNL     1     -41.263 -44.646  14.489  1.00  0.00     0.126 C 
ENDBRANCH  22  23
ENDBRANCH  15  22
BRANCH  16  26
HETATM   26  C   UNL     1     -41.526 -47.801  11.189  1.00  0.00     0.213 C 
BRANCH  26  27
HETATM   27  O   UNL     1     -41.735 -46.806  10.171  1.00  0.00    -0.319 OA
BRANCH  27  28
HETATM   28  C   UNL     1     -41.370 -45.536  10.483  1.00  0.00     0.254 C 
HETATM   29  O   UNL     1     -42.131 -44.582  10.542  1.00  0.00    -0.266 OA
HETATM   30  C   UNL     1     -39.900 -45.461  10.777  1.00  0.00     0.126 C 
ENDBRANCH  27  28
ENDBRANCH  26  27
ENDBRANCH  16  26
ENDBRANCH   1  13
BRANCH   2  31
HETATM   31  S   UNL     1     -40.172 -52.745  13.441  1.00  0.00     0.203 S 
HETATM   32  O   UNL     1     -39.836 -54.154  13.421  1.00  0.00    -0.220 OA
HETATM   33  O   UNL     1     -39.778 -51.863  12.363  1.00  0.00    -0.220 OA
HETATM   34  C   UNL     1     -39.633 -52.089  14.991  1.00  0.00     0.170 C 
ENDBRANCH   2  31
BRANCH   9  35
HETATM   35  N   UNL     1     -45.344 -55.338  13.904  1.00  0.00    -0.287 NA
HETATM   36  H   UNL     1     -45.645 -55.503  14.857  1.00  0.00     0.125 HD
HETATM   37  H   UNL     1     -45.805 -55.862  13.170  1.00  0.00     0.125 HD
ENDBRANCH   9  35
TORSDOF 10
ENDMDL
