MODEL 1
REMARK VINA RESULT:      -5.1      0.000      0.000
REMARK  3 active torsions:
REMARK  status: ('A' for Active; 'I' for Inactive)
REMARK    1  A    between atoms: C_8  and  N_9 
REMARK    2  A    between atoms: N_9  and  C_10 
REMARK    3  A    between atoms: C_10  and  C_11 
ROOT
HETATM    1  N   UNL     1     -41.180 -48.951  10.428  1.00  0.00    -0.382 N 
HETATM    2  H   UNL     1     -41.203 -49.456   9.542  1.00  0.00     0.160 HD
ENDROOT
BRANCH   1   3
HETATM    3  C   UNL     1     -41.862 -47.728  10.387  1.00  0.00     0.052 A 
HETATM    4  C   UNL     1     -41.465 -46.489  10.925  1.00  0.00     0.075 A 
HETATM    5 CL   UNL     1     -40.087 -46.216  11.925  1.00  0.00    -0.080 Cl
HETATM    6  C   UNL     1     -42.254 -45.363  10.669  1.00  0.00     0.113 A 
HETATM    7  N   UNL     1     -43.376 -45.356   9.913  1.00  0.00    -0.373 N 
HETATM    8  C   UNL     1     -43.725 -46.539   9.379  1.00  0.00     0.090 A 
ATOM      9  HN  UNL     1     -43.921 -44.507   9.759  1.00  0.00     0.164 HD
HETATM   10  C   UNL     1     -43.012 -47.713   9.579  1.00  0.00     0.048 A 
ENDBRANCH   1   3
BRANCH   1  11
HETATM   11  C   UNL     1     -41.226 -49.862  11.557  1.00  0.00     0.186 C 
BRANCH  11  12
HETATM   12  C   UNL     1     -39.815 -50.233  11.974  1.00  0.00     0.085 C 
HETATM   13  C   UNL     1     -39.576 -51.302  12.749  1.00  0.00     0.168 C 
HETATM   14  O   UNL     1     -38.349 -51.796  13.083  1.00  0.00    -0.358 OA
HETATM   15  C   UNL     1     -37.256 -50.987  12.649  1.00  0.00     0.201 C 
HETATM   16  C   UNL     1     -37.538 -50.124  11.421  1.00  0.00     0.202 C 
HETATM   17  O   UNL     1     -38.807 -49.462  11.430  1.00  0.00    -0.350 OA
ENDBRANCH  11  12
ENDBRANCH   1  11
TORSDOF 3
ENDMDL
MODEL 2
REMARK VINA RESULT:      -5.0      1.625      1.994
REMARK  3 active torsions:
REMARK  status: ('A' for Active; 'I' for Inactive)
REMARK    1  A    between atoms: C_8  and  N_9 
REMARK    2  A    between atoms: N_9  and  C_10 
REMARK    3  A    between atoms: C_10  and  C_11 
ROOT
HETATM    1  N   UNL     1     -41.474 -48.565  10.163  1.00  0.00    -0.382 N 
HETATM    2  H   UNL     1     -41.446 -49.163   9.337  1.00  0.00     0.160 HD
ENDROOT
BRANCH   1   3
HETATM    3  C   UNL     1     -42.159 -47.362   9.954  1.00  0.00     0.052 A 
HETATM    4  C   UNL     1     -43.100 -47.057   8.952  1.00  0.00     0.075 A 
HETATM    5 CL   UNL     1     -43.520 -48.066   7.618  1.00  0.00    -0.080 Cl
HETATM    6  C   UNL     1     -43.750 -45.819   8.997  1.00  0.00     0.113 A 
HETATM    7  N   UNL     1     -43.567 -44.879   9.952  1.00  0.00    -0.373 N 
HETATM    8  C   UNL     1     -42.690 -45.197  10.920  1.00  0.00     0.090 A 
ATOM      9  HN  UNL     1     -44.062 -43.987   9.938  1.00  0.00     0.164 HD
HETATM   10  C   UNL     1     -41.991 -46.396  10.961  1.00  0.00     0.048 A 
ENDBRANCH   1   3
BRANCH   1  11
HETATM   11  C   UNL     1     -41.575 -49.350  11.381  1.00  0.00     0.186 C 
BRANCH  11  12
HETATM   12  C   UNL     1     -40.197 -49.824  11.801  1.00  0.00     0.085 C 
HETATM   13  C   UNL     1     -40.003 -51.060  12.286  1.00  0.00     0.168 C 
HETATM   14  O   UNL     1     -38.799 -51.630  12.579  1.00  0.00    -0.358 OA
HETATM   15  C   UNL     1     -37.689 -50.740  12.466  1.00  0.00     0.201 C 
HETATM   16  C   UNL     1     -37.884 -49.583  11.488  1.00  0.00     0.202 C 
HETATM   17  O   UNL     1     -39.162 -48.941  11.565  1.00  0.00    -0.350 OA
ENDBRANCH  11  12
ENDBRANCH   1  11
TORSDOF 3
ENDMDL
MODEL 3
REMARK VINA RESULT:      -4.9      5.589      6.728
REMARK  3 active torsions:
REMARK  status: ('A' for Active; 'I' for Inactive)
REMARK    1  A    between atoms: C_8  and  N_9 
REMARK    2  A    between atoms: N_9  and  C_10 
REMARK    3  A    between atoms: C_10  and  C_11 
ROOT
HETATM    1  N   UNL     1     -44.067 -52.801  12.358  1.00  0.00    -0.382 N 
HETATM    2  H   UNL     1     -43.824 -53.744  12.055  1.00  0.00     0.160 HD
ENDROOT
BRANCH   1   3
HETATM    3  C   UNL     1     -45.161 -52.765  13.233  1.00  0.00     0.052 A 
HETATM    4  C   UNL     1     -45.767 -53.835  13.916  1.00  0.00     0.075 A 
HETATM    5 CL   UNL     1     -45.398 -55.507  13.708  1.00  0.00    -0.080 Cl
HETATM    6  C   UNL     1     -46.785 -53.554  14.834  1.00  0.00     0.113 A 
HETATM    7  N   UNL     1     -47.230 -52.316  15.146  1.00  0.00    -0.373 N 
HETATM    8  C   UNL     1     -46.620 -51.301  14.510  1.00  0.00     0.090 A 
ATOM      9  HN  UNL     1     -47.980 -52.163  15.820  1.00  0.00     0.164 HD
HETATM   10  C   UNL     1     -45.606 -51.477  13.578  1.00  0.00     0.048 A 
ENDBRANCH   1   3
BRANCH   1  11
HETATM   11  C   UNL     1     -42.884 -51.974  12.511  1.00  0.00     0.186 C 
BRANCH  11  12
HETATM   12  C   UNL     1     -41.725 -52.823  12.996  1.00  0.00     0.085 C 
HETATM   13  C   UNL     1     -40.453 -52.447  12.794  1.00  0.00     0.168 C 
HETATM   14  O   UNL     1     -39.342 -53.065  13.289  1.00  0.00    -0.358 OA
HETATM   15  C   UNL     1     -39.609 -54.292  13.965  1.00  0.00     0.201 C 
HETATM   16  C   UNL     1     -41.006 -54.405  14.572  1.00  0.00     0.202 C 
HETATM   17  O   UNL     1     -42.067 -53.941  13.730  1.00  0.00    -0.350 OA
ENDBRANCH  11  12
ENDBRANCH   1  11
TORSDOF 3
ENDMDL
MODEL 4
REMARK VINA RESULT:      -4.9      4.950      6.349
REMARK  3 active torsions:
REMARK  status: ('A' for Active; 'I' for Inactive)
REMARK    1  A    between atoms: C_8  and  N_9 
REMARK    2  A    between atoms: N_9  and  C_10 
REMARK    3  A    between atoms: C_10  and  C_11 
ROOT
HETATM    1  N   UNL     1     -43.115 -53.753  12.512  1.00  0.00    -0.382 N 
HETATM    2  H   UNL     1     -43.206 -54.285  11.647  1.00  0.00     0.160 HD
ENDROOT
BRANCH   1   3
HETATM    3  C   UNL     1     -44.314 -53.652  13.230  1.00  0.00     0.052 A 
HETATM    4  C   UNL     1     -45.061 -52.496  13.523  1.00  0.00     0.075 A 
HETATM    5 CL   UNL     1     -44.580 -50.872  13.196  1.00  0.00    -0.080 Cl
HETATM    6  C   UNL     1     -46.296 -52.640  14.164  1.00  0.00     0.113 A 
HETATM    7  N   UNL     1     -46.858 -53.819  14.512  1.00  0.00    -0.373 N 
HETATM    8  C   UNL     1     -46.149 -54.917  14.197  1.00  0.00     0.090 A 
ATOM      9  HN  UNL     1     -47.761 -53.872  14.983  1.00  0.00     0.164 HD
HETATM   10  C   UNL     1     -44.912 -54.879  13.568  1.00  0.00     0.048 A 
ENDBRANCH   1   3
BRANCH   1  11
HETATM   11  C   UNL     1     -41.820 -53.969  13.132  1.00  0.00     0.186 C 
BRANCH  11  12
HETATM   12  C   UNL     1     -40.884 -52.830  12.773  1.00  0.00     0.085 C 
HETATM   13  C   UNL     1     -41.296 -51.802  12.015  1.00  0.00     0.168 C 
HETATM   14  O   UNL     1     -40.584 -50.674  11.733  1.00  0.00    -0.358 OA
HETATM   15  C   UNL     1     -39.237 -50.701  12.203  1.00  0.00     0.201 C 
HETATM   16  C   UNL     1     -38.992 -51.600  13.413  1.00  0.00     0.202 C 
HETATM   17  O   UNL     1     -39.631 -52.880  13.349  1.00  0.00    -0.350 OA
ENDBRANCH  11  12
ENDBRANCH   1  11
TORSDOF 3
ENDMDL
MODEL 5
REMARK VINA RESULT:      -4.9      2.849      6.002
REMARK  3 active torsions:
REMARK  status: ('A' for Active; 'I' for Inactive)
REMARK    1  A    between atoms: C_8  and  N_9 
REMARK    2  A    between atoms: N_9  and  C_10 
REMARK    3  A    between atoms: C_10  and  C_11 
ROOT
HETATM    1  N   UNL     1     -40.533 -48.703  10.654  1.00  0.00    -0.382 N 
HETATM    2  H   UNL     1     -39.858 -48.693   9.890  1.00  0.00     0.160 HD
ENDROOT
BRANCH   1   3
HETATM    3  C   UNL     1     -40.333 -49.755  11.557  1.00  0.00     0.052 A 
HETATM    4  C   UNL     1     -39.115 -50.279  12.030  1.00  0.00     0.075 A 
HETATM    5 CL   UNL     1     -37.542 -49.843  11.471  1.00  0.00    -0.080 Cl
HETATM    6  C   UNL     1     -39.148 -51.264  13.022  1.00  0.00     0.113 A 
HETATM    7  N   UNL     1     -40.272 -51.751  13.596  1.00  0.00    -0.373 N 
HETATM    8  C   UNL     1     -41.426 -51.220  13.158  1.00  0.00     0.090 A 
ATOM      9  HN  UNL     1     -40.245 -52.476  14.314  1.00  0.00     0.164 HD
HETATM   10  C   UNL     1     -41.498 -50.242  12.174  1.00  0.00     0.048 A 
ENDBRANCH   1   3
BRANCH   1  11
HETATM   11  C   UNL     1     -40.899 -47.356  11.053  1.00  0.00     0.186 C 
BRANCH  11  12
HETATM   12  C   UNL     1     -42.125 -46.907  10.280  1.00  0.00     0.085 C 
HETATM   13  C   UNL     1     -42.487 -45.616  10.237  1.00  0.00     0.168 C 
HETATM   14  O   UNL     1     -43.492 -45.087   9.481  1.00  0.00    -0.358 OA
HETATM   15  C   UNL     1     -44.280 -46.059   8.795  1.00  0.00     0.201 C 
HETATM   16  C   UNL     1     -43.564 -47.372   8.487  1.00  0.00     0.202 C 
HETATM   17  O   UNL     1     -42.773 -47.892   9.562  1.00  0.00    -0.350 OA
ENDBRANCH  11  12
ENDBRANCH   1  11
TORSDOF 3
ENDMDL
MODEL 6
REMARK VINA RESULT:      -4.8      4.373      6.198
REMARK  3 active torsions:
REMARK  status: ('A' for Active; 'I' for Inactive)
REMARK    1  A    between atoms: C_8  and  N_9 
REMARK    2  A    between atoms: N_9  and  C_10 
REMARK    3  A    between atoms: C_10  and  C_11 
ROOT
HETATM    1  N   UNL     1     -41.897 -52.775  12.031  1.00  0.00    -0.382 N 
HETATM    2  H   UNL     1     -41.020 -53.224  11.767  1.00  0.00     0.160 HD
ENDROOT
BRANCH   1   3
HETATM    3  C   UNL     1     -42.707 -53.575  12.846  1.00  0.00     0.052 A 
HETATM    4  C   UNL     1     -42.356 -54.252  14.029  1.00  0.00     0.075 A 
HETATM    5 CL   UNL     1     -40.764 -54.388  14.682  1.00  0.00    -0.080 Cl
HETATM    6  C   UNL     1     -43.359 -54.909  14.750  1.00  0.00     0.113 A 
HETATM    7  N   UNL     1     -44.669 -54.930  14.415  1.00  0.00    -0.373 N 
HETATM    8  C   UNL     1     -44.996 -54.253  13.300  1.00  0.00     0.090 A 
ATOM      9  HN  UNL     1     -45.363 -55.429  14.971  1.00  0.00     0.164 HD
HETATM   10  C   UNL     1     -44.073 -53.575  12.514  1.00  0.00     0.048 A 
ENDBRANCH   1   3
BRANCH   1  11
HETATM   11  C   UNL     1     -41.721 -51.346  12.222  1.00  0.00     0.186 C 
BRANCH  11  12
HETATM   12  C   UNL     1     -40.248 -50.995  12.138  1.00  0.00     0.085 C 
HETATM   13  C   UNL     1     -39.834 -49.863  11.549  1.00  0.00     0.168 C 
HETATM   14  O   UNL     1     -38.554 -49.391  11.522  1.00  0.00    -0.358 OA
HETATM   15  C   UNL     1     -37.590 -50.287  12.071  1.00  0.00     0.201 C 
HETATM   16  C   UNL     1     -38.132 -51.261  13.115  1.00  0.00     0.202 C 
HETATM   17  O   UNL     1     -39.388 -51.863  12.781  1.00  0.00    -0.350 OA
ENDBRANCH  11  12
ENDBRANCH   1  11
TORSDOF 3
ENDMDL
MODEL 7
REMARK VINA RESULT:      -4.7      3.928      5.266
REMARK  3 active torsions:
REMARK  status: ('A' for Active; 'I' for Inactive)
REMARK    1  A    between atoms: C_8  and  N_9 
REMARK    2  A    between atoms: N_9  and  C_10 
REMARK    3  A    between atoms: C_10  and  C_11 
ROOT
HETATM    1  N   UNL     1     -42.371 -51.027  12.089  1.00  0.00    -0.382 N 
HETATM    2  H   UNL     1     -43.134 -50.746  12.705  1.00  0.00     0.160 HD
ENDROOT
BRANCH   1   3
HETATM    3  C   UNL     1     -41.507 -49.975  11.762  1.00  0.00     0.052 A 
HETATM    4  C   UNL     1     -41.831 -48.636  11.475  1.00  0.00     0.075 A 
HETATM    5 CL   UNL     1     -43.424 -47.997  11.300  1.00  0.00    -0.080 Cl
HETATM    6  C   UNL     1     -40.792 -47.720  11.282  1.00  0.00     0.113 A 
HETATM    7  N   UNL     1     -39.474 -48.010  11.371  1.00  0.00    -0.373 N 
HETATM    8  C   UNL     1     -39.178 -49.286  11.676  1.00  0.00     0.090 A 
ATOM      9  HN  UNL     1     -38.751 -47.307  11.216  1.00  0.00     0.164 HD
HETATM   10  C   UNL     1     -40.137 -50.269  11.881  1.00  0.00     0.048 A 
ENDBRANCH   1   3
BRANCH   1  11
HETATM   11  C   UNL     1     -41.924 -52.377  12.385  1.00  0.00     0.186 C 
BRANCH  11  12
HETATM   12  C   UNL     1     -43.057 -53.166  13.012  1.00  0.00     0.085 C 
HETATM   13  C   UNL     1     -44.184 -53.427  12.331  1.00  0.00     0.168 C 
HETATM   14  O   UNL     1     -45.210 -54.224  12.748  1.00  0.00    -0.358 OA
HETATM   15  C   UNL     1     -45.079 -54.690  14.091  1.00  0.00     0.201 C 
HETATM   16  C   UNL     1     -43.644 -54.785  14.605  1.00  0.00     0.202 C 
HETATM   17  O   UNL     1     -42.812 -53.667  14.274  1.00  0.00    -0.350 OA
ENDBRANCH  11  12
ENDBRANCH   1  11
TORSDOF 3
ENDMDL
MODEL 8
REMARK VINA RESULT:      -4.7      5.350      6.685
REMARK  3 active torsions:
REMARK  status: ('A' for Active; 'I' for Inactive)
REMARK    1  A    between atoms: C_8  and  N_9 
REMARK    2  A    between atoms: N_9  and  C_10 
REMARK    3  A    between atoms: C_10  and  C_11 
ROOT
HETATM    1  N   UNL     1     -43.772 -52.143  13.205  1.00  0.00    -0.382 N 
HETATM    2  H   UNL     1     -44.131 -51.220  12.962  1.00  0.00     0.160 HD
ENDROOT
BRANCH   1   3
HETATM    3  C   UNL     1     -44.751 -53.000  13.723  1.00  0.00     0.052 A 
HETATM    4  C   UNL     1     -45.936 -52.661  14.404  1.00  0.00     0.075 A 
HETATM    5 CL   UNL     1     -46.392 -51.077  14.913  1.00  0.00    -0.080 Cl
HETATM    6  C   UNL     1     -46.832 -53.682  14.739  1.00  0.00     0.113 A 
HETATM    7  N   UNL     1     -46.669 -54.990  14.438  1.00  0.00    -0.373 N 
HETATM    8  C   UNL     1     -45.549 -55.295  13.760  1.00  0.00     0.090 A 
ATOM      9  HN  UNL     1     -47.350 -55.699  14.709  1.00  0.00     0.164 HD
HETATM   10  C   UNL     1     -44.596 -54.357  13.387  1.00  0.00     0.048 A 
ENDBRANCH   1   3
BRANCH   1  11
HETATM   11  C   UNL     1     -42.737 -52.567  12.280  1.00  0.00     0.186 C 
BRANCH  11  12
HETATM   12  C   UNL     1     -41.402 -52.629  12.997  1.00  0.00     0.085 C 
HETATM   13  C   UNL     1     -40.673 -53.755  13.016  1.00  0.00     0.168 C 
HETATM   14  O   UNL     1     -39.413 -53.889  13.523  1.00  0.00    -0.358 OA
HETATM   15  C   UNL     1     -38.929 -52.730  14.199  1.00  0.00     0.201 C 
HETATM   16  C   UNL     1     -39.540 -51.409  13.737  1.00  0.00     0.202 C 
HETATM   17  O   UNL     1     -40.958 -51.439  13.539  1.00  0.00    -0.350 OA
ENDBRANCH  11  12
ENDBRANCH   1  11
TORSDOF 3
ENDMDL
MODEL 9
REMARK VINA RESULT:      -4.7      2.549      5.544
REMARK  3 active torsions:
REMARK  status: ('A' for Active; 'I' for Inactive)
REMARK    1  A    between atoms: C_8  and  N_9 
REMARK    2  A    between atoms: N_9  and  C_10 
REMARK    3  A    between atoms: C_10  and  C_11 
ROOT
HETATM    1  N   UNL     1     -40.768 -49.389  10.489  1.00  0.00    -0.382 N 
HETATM    2  H   UNL     1     -40.004 -48.998   9.939  1.00  0.00     0.160 HD
ENDROOT
BRANCH   1   3
HETATM    3  C   UNL     1     -40.338 -50.277  11.484  1.00  0.00     0.052 A 
HETATM    4  C   UNL     1     -39.045 -50.428  12.018  1.00  0.00     0.075 A 
HETATM    5 CL   UNL     1     -37.617 -49.647  11.446  1.00  0.00    -0.080 Cl
HETATM    6  C   UNL     1     -38.861 -51.304  13.093  1.00  0.00     0.113 A 
HETATM    7  N   UNL     1     -39.842 -52.017  13.691  1.00  0.00    -0.373 N 
HETATM    8  C   UNL     1     -41.077 -51.839  13.192  1.00  0.00     0.090 A 
ATOM      9  HN  UNL     1     -39.656 -52.649  14.470  1.00  0.00     0.164 HD
HETATM   10  C   UNL     1     -41.361 -50.997  12.125  1.00  0.00     0.048 A 
ENDBRANCH   1   3
BRANCH   1  11
HETATM   11  C   UNL     1     -41.833 -48.420  10.679  1.00  0.00     0.186 C 
BRANCH  11  12
HETATM   12  C   UNL     1     -41.251 -47.020  10.712  1.00  0.00     0.085 C 
HETATM   13  C   UNL     1     -41.896 -45.984  10.155  1.00  0.00     0.168 C 
HETATM   14  O   UNL     1     -41.529 -44.672  10.230  1.00  0.00    -0.358 OA
HETATM   15  C   UNL     1     -40.266 -44.455  10.858  1.00  0.00     0.201 C 
HETATM   16  C   UNL     1     -39.847 -45.530  11.858  1.00  0.00     0.202 C 
HETATM   17  O   UNL     1     -40.078 -46.876  11.425  1.00  0.00    -0.350 OA
ENDBRANCH  11  12
ENDBRANCH   1  11
TORSDOF 3
ENDMDL
