MODEL 1
REMARK VINA RESULT:      -6.5      0.000      0.000
REMARK  6 active torsions:
REMARK  status: ('A' for Active; 'I' for Inactive)
REMARK    1  A    between atoms: O_2  and  C_3 
REMARK    2  A    between atoms: C_3  and  C_4 
REMARK    3  A    between atoms: C_4  and  N_5 
REMARK    4  A    between atoms: C_8  and  C_13 
REMARK       I    between atoms: C_13  and  N_15 
REMARK    5  A    between atoms: N_15  and  C_16 
REMARK    6  A    between atoms: N_19  and  C_22 
ROOT
HETATM    1  C   UNL     1     -40.991 -49.217  11.254  1.00  0.00     0.269 C 
HETATM    2  O   UNL     1     -39.774 -49.136  11.355  1.00  0.00    -0.266 OA
HETATM    3  N   UNL     1     -41.749 -50.277  11.699  1.00  0.00    -0.351 N 
HETATM    4  H   UNL     1     -42.732 -50.285  11.434  1.00  0.00     0.163 HD
ENDROOT
BRANCH   1   5
HETATM    5  C   UNL     1     -41.769 -48.053  10.629  1.00  0.00     0.116 A 
HETATM    6  N   UNL     1     -42.770 -48.293   9.834  1.00  0.00    -0.290 N 
HETATM    7  N   UNL     1     -43.412 -47.181   9.287  1.00  0.00    -0.255 N 
ATOM      8  HN  UNL     1     -43.070 -49.245   9.622  1.00  0.00     0.187 HD
HETATM    9  C   UNL     1     -43.023 -45.861   9.514  1.00  0.00     0.262 A 
HETATM   10  C   UNL     1     -41.902 -45.665  10.452  1.00  0.00     0.078 A 
HETATM   11  O   UNL     1     -43.554 -44.875   9.015  1.00  0.00    -0.267 OA
HETATM   12  C   UNL     1     -41.297 -46.709  11.018  1.00  0.00     0.042 A 
BRANCH   7  13
HETATM   13  C   UNL     1     -44.616 -47.432   8.497  1.00  0.00     0.178 C 
BRANCH  13  14
HETATM   14  C   UNL     1     -45.917 -47.371   9.304  1.00  0.00     0.189 C 
BRANCH  14  15
HETATM   15  O   UNL     1     -46.982 -47.901   8.506  1.00  0.00    -0.394 OA
HETATM   16  C   UNL     1     -46.576 -49.070   7.804  1.00  0.00     0.201 C 
ENDBRANCH  14  15
ENDBRANCH  13  14
ENDBRANCH   7  13
ENDBRANCH   1   5
BRANCH   3  17
HETATM   17  C   UNL     1     -41.135 -51.436  12.350  1.00  0.00     0.088 C 
HETATM   18  C   UNL     1     -41.879 -52.739  12.059  1.00  0.00     0.055 C 
HETATM   19  C   UNL     1     -43.171 -52.868  12.865  1.00  0.00     0.275 C 
HETATM   20  N   UNL     1     -43.028 -52.615  14.301  1.00  0.00     0.093 N 
HETATM   21  C   UNL     1     -42.320 -51.365  14.588  1.00  0.00     0.275 C 
HETATM   22  C   UNL     1     -40.986 -51.232  13.856  1.00  0.00     0.055 C 
BRANCH  20  23
HETATM   23  C   UNL     1     -42.536 -53.755  15.093  1.00  0.00     0.223 A 
HETATM   24  C   UNL     1     -43.092 -55.141  14.904  1.00  0.00     0.038 A 
HETATM   25  C   UNL     1     -43.495 -54.338  16.102  1.00  0.00     0.038 A 
ENDBRANCH  20  23
ENDBRANCH   3  17
TORSDOF 6
ENDMDL
MODEL 2
REMARK VINA RESULT:      -6.1      3.256      7.095
REMARK  6 active torsions:
REMARK  status: ('A' for Active; 'I' for Inactive)
REMARK    1  A    between atoms: O_2  and  C_3 
REMARK    2  A    between atoms: C_3  and  C_4 
REMARK    3  A    between atoms: C_4  and  N_5 
REMARK    4  A    between atoms: C_8  and  C_13 
REMARK       I    between atoms: C_13  and  N_15 
REMARK    5  A    between atoms: N_15  and  C_16 
REMARK    6  A    between atoms: N_19  and  C_22 
ROOT
HETATM    1  C   UNL     1     -41.321 -51.598  12.115  1.00  0.00     0.269 C 
HETATM    2  O   UNL     1     -40.175 -52.003  11.977  1.00  0.00    -0.266 OA
HETATM    3  N   UNL     1     -41.765 -50.347  11.745  1.00  0.00    -0.351 N 
HETATM    4  H   UNL     1     -42.703 -50.085  12.037  1.00  0.00     0.163 HD
ENDROOT
BRANCH   1   5
HETATM    5  C   UNL     1     -42.382 -52.538  12.701  1.00  0.00     0.116 A 
HETATM    6  N   UNL     1     -43.644 -52.292  12.509  1.00  0.00    -0.290 N 
HETATM    7  N   UNL     1     -44.548 -53.180  13.094  1.00  0.00    -0.255 N 
ATOM      8  HN  UNL     1     -43.958 -51.492  11.959  1.00  0.00     0.187 HD
HETATM    9  C   UNL     1     -44.177 -54.269  13.883  1.00  0.00     0.262 A 
HETATM   10  C   UNL     1     -42.729 -54.504  14.029  1.00  0.00     0.078 A 
HETATM   11  O   UNL     1     -44.958 -55.039  14.432  1.00  0.00    -0.267 OA
HETATM   12  C   UNL     1     -41.845 -53.693  13.448  1.00  0.00     0.042 A 
BRANCH   7  13
HETATM   13  C   UNL     1     -45.964 -52.991  12.779  1.00  0.00     0.178 C 
BRANCH  13  14
HETATM   14  C   UNL     1     -46.487 -51.583  13.078  1.00  0.00     0.189 C 
BRANCH  14  15
HETATM   15  O   UNL     1     -45.974 -51.157  14.345  1.00  0.00    -0.394 OA
HETATM   16  C   UNL     1     -46.870 -51.475  15.404  1.00  0.00     0.201 C 
ENDBRANCH  14  15
ENDBRANCH  13  14
ENDBRANCH   7  13
ENDBRANCH   1   5
BRANCH   3  17
HETATM   17  C   UNL     1     -40.864 -49.366  11.138  1.00  0.00     0.088 C 
HETATM   18  C   UNL     1     -39.884 -48.761  12.144  1.00  0.00     0.055 C 
HETATM   19  C   UNL     1     -40.543 -47.720  13.049  1.00  0.00     0.275 C 
HETATM   20  N   UNL     1     -41.321 -46.698  12.344  1.00  0.00     0.093 N 
HETATM   21  C   UNL     1     -42.266 -47.270  11.381  1.00  0.00     0.275 C 
HETATM   22  C   UNL     1     -41.629 -48.263  10.410  1.00  0.00     0.055 C 
BRANCH  20  23
HETATM   23  C   UNL     1     -40.537 -45.581  11.793  1.00  0.00     0.223 A 
HETATM   24  C   UNL     1     -39.440 -44.924  12.587  1.00  0.00     0.038 A 
HETATM   25  C   UNL     1     -40.756 -44.228  12.426  1.00  0.00     0.038 A 
ENDBRANCH  20  23
ENDBRANCH   3  17
TORSDOF 6
ENDMDL
MODEL 3
REMARK VINA RESULT:      -5.6      3.014      7.728
REMARK  6 active torsions:
REMARK  status: ('A' for Active; 'I' for Inactive)
REMARK    1  A    between atoms: O_2  and  C_3 
REMARK    2  A    between atoms: C_3  and  C_4 
REMARK    3  A    between atoms: C_4  and  N_5 
REMARK    4  A    between atoms: C_8  and  C_13 
REMARK       I    between atoms: C_13  and  N_15 
REMARK    5  A    between atoms: N_15  and  C_16 
REMARK    6  A    between atoms: N_19  and  C_22 
ROOT
HETATM    1  C   UNL     1     -41.345 -48.191  10.661  1.00  0.00     0.269 C 
HETATM    2  O   UNL     1     -42.320 -48.215   9.923  1.00  0.00    -0.266 OA
HETATM    3  N   UNL     1     -40.624 -47.061  10.977  1.00  0.00    -0.351 N 
HETATM    4  H   UNL     1     -39.756 -47.196  11.491  1.00  0.00     0.163 HD
ENDROOT
BRANCH   1   5
HETATM    5  C   UNL     1     -40.886 -49.488  11.338  1.00  0.00     0.116 A 
HETATM    6  N   UNL     1     -41.732 -50.460  11.520  1.00  0.00    -0.290 N 
HETATM    7  N   UNL     1     -41.244 -51.598  12.164  1.00  0.00    -0.255 N 
ATOM      8  HN  UNL     1     -42.701 -50.393  11.207  1.00  0.00     0.187 HD
HETATM    9  C   UNL     1     -39.941 -51.729  12.643  1.00  0.00     0.262 A 
HETATM   10  C   UNL     1     -39.031 -50.601  12.371  1.00  0.00     0.078 A 
HETATM   11  O   UNL     1     -39.506 -52.708  13.241  1.00  0.00    -0.267 OA
HETATM   12  C   UNL     1     -39.461 -49.519  11.724  1.00  0.00     0.042 A 
BRANCH   7  13
HETATM   13  C   UNL     1     -42.146 -52.745  12.259  1.00  0.00     0.178 C 
BRANCH  13  14
HETATM   14  C   UNL     1     -43.563 -52.389  12.718  1.00  0.00     0.189 C 
BRANCH  14  15
HETATM   15  O   UNL     1     -44.470 -53.391  12.242  1.00  0.00    -0.394 OA
HETATM   16  C   UNL     1     -44.807 -54.318  13.268  1.00  0.00     0.201 C 
ENDBRANCH  14  15
ENDBRANCH  13  14
ENDBRANCH   7  13
ENDBRANCH   1   5
BRANCH   3  17
HETATM   17  C   UNL     1     -40.978 -45.750  10.429  1.00  0.00     0.088 C 
HETATM   18  C   UNL     1     -39.843 -44.734  10.545  1.00  0.00     0.055 C 
HETATM   19  C   UNL     1     -39.686 -44.191  11.965  1.00  0.00     0.275 C 
HETATM   20  N   UNL     1     -40.927 -43.713  12.580  1.00  0.00     0.093 N 
HETATM   21  C   UNL     1     -42.020 -44.684  12.478  1.00  0.00     0.275 C 
HETATM   22  C   UNL     1     -42.255 -45.196  11.058  1.00  0.00     0.055 C 
BRANCH  20  23
HETATM   23  C   UNL     1     -41.328 -42.347  12.206  1.00  0.00     0.223 A 
HETATM   24  C   UNL     1     -40.346 -41.206  12.227  1.00  0.00     0.038 A 
HETATM   25  C   UNL     1     -41.364 -41.327  13.318  1.00  0.00     0.038 A 
ENDBRANCH  20  23
ENDBRANCH   3  17
TORSDOF 6
ENDMDL
MODEL 4
REMARK VINA RESULT:      -5.6      2.063      3.739
REMARK  6 active torsions:
REMARK  status: ('A' for Active; 'I' for Inactive)
REMARK    1  A    between atoms: O_2  and  C_3 
REMARK    2  A    between atoms: C_3  and  C_4 
REMARK    3  A    between atoms: C_4  and  N_5 
REMARK    4  A    between atoms: C_8  and  C_13 
REMARK       I    between atoms: C_13  and  N_15 
REMARK    5  A    between atoms: N_15  and  C_16 
REMARK    6  A    between atoms: N_19  and  C_22 
ROOT
HETATM    1  C   UNL     1     -40.484 -49.466  11.317  1.00  0.00     0.269 C 
HETATM    2  O   UNL     1     -39.276 -49.657  11.277  1.00  0.00    -0.266 OA
HETATM    3  N   UNL     1     -41.415 -50.396  11.725  1.00  0.00    -0.351 N 
HETATM    4  H   UNL     1     -42.395 -50.161  11.582  1.00  0.00     0.163 HD
ENDROOT
BRANCH   1   5
HETATM    5  C   UNL     1     -41.038 -48.089  10.934  1.00  0.00     0.116 A 
HETATM    6  N   UNL     1     -40.269 -47.042  10.988  1.00  0.00    -0.290 N 
HETATM    7  N   UNL     1     -40.853 -45.821  10.647  1.00  0.00    -0.255 N 
ATOM      8  HN  UNL     1     -39.289 -47.109  11.266  1.00  0.00     0.187 HD
HETATM    9  C   UNL     1     -42.193 -45.665  10.294  1.00  0.00     0.262 A 
HETATM   10  C   UNL     1     -42.995 -46.900  10.222  1.00  0.00     0.078 A 
HETATM   11  O   UNL     1     -42.731 -44.596  10.025  1.00  0.00    -0.267 OA
HETATM   12  C   UNL     1     -42.451 -48.083  10.506  1.00  0.00     0.042 A 
BRANCH   7  13
HETATM   13  C   UNL     1     -39.970 -44.657  10.578  1.00  0.00     0.178 C 
BRANCH  13  14
HETATM   14  C   UNL     1     -39.813 -43.913  11.908  1.00  0.00     0.189 C 
BRANCH  14  15
HETATM   15  O   UNL     1     -38.925 -44.655  12.753  1.00  0.00    -0.394 OA
HETATM   16  C   UNL     1     -39.498 -44.890  14.034  1.00  0.00     0.201 C 
ENDBRANCH  14  15
ENDBRANCH  13  14
ENDBRANCH   7  13
ENDBRANCH   1   5
BRANCH   3  17
HETATM   17  C   UNL     1     -41.017 -51.738  12.154  1.00  0.00     0.088 C 
HETATM   18  C   UNL     1     -42.127 -52.772  11.967  1.00  0.00     0.055 C 
HETATM   19  C   UNL     1     -43.214 -52.663  13.035  1.00  0.00     0.275 C 
HETATM   20  N   UNL     1     -42.719 -52.619  14.414  1.00  0.00     0.093 N 
HETATM   21  C   UNL     1     -41.657 -51.626  14.602  1.00  0.00     0.275 C 
HETATM   22  C   UNL     1     -40.515 -51.750  13.596  1.00  0.00     0.055 C 
BRANCH  20  23
HETATM   23  C   UNL     1     -42.401 -53.927  15.009  1.00  0.00     0.223 A 
HETATM   24  C   UNL     1     -43.313 -55.112  14.833  1.00  0.00     0.038 A 
HETATM   25  C   UNL     1     -43.288 -54.385  16.142  1.00  0.00     0.038 A 
ENDBRANCH  20  23
ENDBRANCH   3  17
TORSDOF 6
ENDMDL
MODEL 5
REMARK VINA RESULT:      -5.4      3.745      7.387
REMARK  6 active torsions:
REMARK  status: ('A' for Active; 'I' for Inactive)
REMARK    1  A    between atoms: O_2  and  C_3 
REMARK    2  A    between atoms: C_3  and  C_4 
REMARK    3  A    between atoms: C_4  and  N_5 
REMARK    4  A    between atoms: C_8  and  C_13 
REMARK       I    between atoms: C_13  and  N_15 
REMARK    5  A    between atoms: N_15  and  C_16 
REMARK    6  A    between atoms: N_19  and  C_22 
ROOT
HETATM    1  C   UNL     1     -39.742 -52.134  13.587  1.00  0.00     0.269 C 
HETATM    2  O   UNL     1     -38.620 -52.572  13.370  1.00  0.00    -0.266 OA
HETATM    3  N   UNL     1     -40.095 -50.804  13.514  1.00  0.00    -0.351 N 
HETATM    4  H   UNL     1     -41.023 -50.555  13.849  1.00  0.00     0.163 HD
ENDROOT
BRANCH   1   5
HETATM    5  C   UNL     1     -40.875 -53.110  13.924  1.00  0.00     0.116 A 
HETATM    6  N   UNL     1     -41.953 -53.130  13.198  1.00  0.00    -0.290 N 
HETATM    7  N   UNL     1     -42.948 -54.029  13.583  1.00  0.00    -0.255 N 
ATOM      8  HN  UNL     1     -42.066 -52.520  12.388  1.00  0.00     0.187 HD
HETATM    9  C   UNL     1     -42.863 -54.861  14.700  1.00  0.00     0.262 A 
HETATM   10  C   UNL     1     -41.598 -54.807  15.456  1.00  0.00     0.078 A 
HETATM   11  O   UNL     1     -43.741 -55.632  15.073  1.00  0.00    -0.267 OA
HETATM   12  C   UNL     1     -40.617 -53.985  15.086  1.00  0.00     0.042 A 
BRANCH   7  13
HETATM   13  C   UNL     1     -44.109 -54.154  12.703  1.00  0.00     0.178 C 
BRANCH  13  14
HETATM   14  C   UNL     1     -45.356 -53.422  13.206  1.00  0.00     0.189 C 
BRANCH  14  15
HETATM   15  O   UNL     1     -46.034 -52.839  12.087  1.00  0.00    -0.394 OA
HETATM   16  C   UNL     1     -46.589 -51.570  12.417  1.00  0.00     0.201 C 
ENDBRANCH  14  15
ENDBRANCH  13  14
ENDBRANCH   7  13
ENDBRANCH   1   5
BRANCH   3  17
HETATM   17  C   UNL     1     -39.118 -49.772  13.164  1.00  0.00     0.088 C 
HETATM   18  C   UNL     1     -38.951 -48.719  14.260  1.00  0.00     0.055 C 
HETATM   19  C   UNL     1     -40.111 -47.726  14.297  1.00  0.00     0.275 C 
HETATM   20  N   UNL     1     -40.455 -47.133  13.002  1.00  0.00     0.093 N 
HETATM   21  C   UNL     1     -40.622 -48.136  11.946  1.00  0.00     0.275 C 
HETATM   22  C   UNL     1     -39.446 -49.105  11.830  1.00  0.00     0.055 C 
BRANCH  20  23
HETATM   23  C   UNL     1     -39.619 -45.993  12.591  1.00  0.00     0.223 A 
HETATM   24  C   UNL     1     -39.242 -44.906  13.561  1.00  0.00     0.038 A 
HETATM   25  C   UNL     1     -40.299 -44.646  12.533  1.00  0.00     0.038 A 
ENDBRANCH  20  23
ENDBRANCH   3  17
TORSDOF 6
ENDMDL
MODEL 6
REMARK VINA RESULT:      -5.4      4.095      8.708
REMARK  6 active torsions:
REMARK  status: ('A' for Active; 'I' for Inactive)
REMARK    1  A    between atoms: O_2  and  C_3 
REMARK    2  A    between atoms: C_3  and  C_4 
REMARK    3  A    between atoms: C_4  and  N_5 
REMARK    4  A    between atoms: C_8  and  C_13 
REMARK       I    between atoms: C_13  and  N_15 
REMARK    5  A    between atoms: N_15  and  C_16 
REMARK    6  A    between atoms: N_19  and  C_22 
ROOT
HETATM    1  C   UNL     1     -40.033 -52.229  13.554  1.00  0.00     0.269 C 
HETATM    2  O   UNL     1     -38.910 -52.667  13.348  1.00  0.00    -0.266 OA
HETATM    3  N   UNL     1     -40.412 -50.917  13.371  1.00  0.00    -0.351 N 
HETATM    4  H   UNL     1     -41.336 -50.653  13.707  1.00  0.00     0.163 HD
ENDROOT
BRANCH   1   5
HETATM    5  C   UNL     1     -41.139 -53.188  14.008  1.00  0.00     0.116 A 
HETATM    6  N   UNL     1     -40.891 -54.079  14.922  1.00  0.00    -0.290 N 
HETATM    7  N   UNL     1     -41.943 -54.931  15.264  1.00  0.00    -0.255 N 
ATOM      8  HN  UNL     1     -39.976 -54.152  15.366  1.00  0.00     0.187 HD
HETATM    9  C   UNL     1     -43.202 -54.900  14.666  1.00  0.00     0.262 A 
HETATM   10  C   UNL     1     -43.420 -53.842  13.662  1.00  0.00     0.078 A 
HETATM   11  O   UNL     1     -44.126 -55.662  14.930  1.00  0.00    -0.267 OA
HETATM   12  C   UNL     1     -42.445 -52.991  13.346  1.00  0.00     0.042 A 
BRANCH   7  13
HETATM   13  C   UNL     1     -41.718 -55.850  16.378  1.00  0.00     0.178 C 
BRANCH  13  14
HETATM   14  C   UNL     1     -40.370 -55.661  17.082  1.00  0.00     0.189 C 
BRANCH  14  15
HETATM   15  O   UNL     1     -39.381 -56.447  16.407  1.00  0.00    -0.394 OA
HETATM   16  C   UNL     1     -38.143 -55.752  16.306  1.00  0.00     0.201 C 
ENDBRANCH  14  15
ENDBRANCH  13  14
ENDBRANCH   7  13
ENDBRANCH   1   5
BRANCH   3  17
HETATM   17  C   UNL     1     -39.463 -49.905  12.904  1.00  0.00     0.088 C 
HETATM   18  C   UNL     1     -39.585 -48.584  13.663  1.00  0.00     0.055 C 
HETATM   19  C   UNL     1     -40.800 -47.767  13.225  1.00  0.00     0.275 C 
HETATM   20  N   UNL     1     -40.932 -47.592  11.776  1.00  0.00     0.093 N 
HETATM   21  C   UNL     1     -40.821 -48.855  11.040  1.00  0.00     0.275 C 
HETATM   22  C   UNL     1     -39.578 -49.667  11.400  1.00  0.00     0.055 C 
BRANCH  20  23
HETATM   23  C   UNL     1     -40.118 -46.511  11.198  1.00  0.00     0.223 A 
HETATM   24  C   UNL     1     -39.984 -45.176  11.881  1.00  0.00     0.038 A 
HETATM   25  C   UNL     1     -40.867 -45.308  10.678  1.00  0.00     0.038 A 
ENDBRANCH  20  23
ENDBRANCH   3  17
TORSDOF 6
ENDMDL
MODEL 7
REMARK VINA RESULT:      -5.4      3.069      7.858
REMARK  6 active torsions:
REMARK  status: ('A' for Active; 'I' for Inactive)
REMARK    1  A    between atoms: O_2  and  C_3 
REMARK    2  A    between atoms: C_3  and  C_4 
REMARK    3  A    between atoms: C_4  and  N_5 
REMARK    4  A    between atoms: C_8  and  C_13 
REMARK       I    between atoms: C_13  and  N_15 
REMARK    5  A    between atoms: N_15  and  C_16 
REMARK    6  A    between atoms: N_19  and  C_22 
ROOT
HETATM    1  C   UNL     1     -42.036 -50.963  12.198  1.00  0.00     0.269 C 
HETATM    2  O   UNL     1     -41.024 -51.580  11.896  1.00  0.00    -0.266 OA
HETATM    3  N   UNL     1     -42.322 -49.676  11.800  1.00  0.00    -0.351 N 
HETATM    4  H   UNL     1     -43.129 -49.229  12.230  1.00  0.00     0.163 HD
ENDROOT
BRANCH   1   5
HETATM    5  C   UNL     1     -43.110 -51.656  13.045  1.00  0.00     0.116 A 
HETATM    6  N   UNL     1     -43.021 -52.930  13.292  1.00  0.00    -0.290 N 
HETATM    7  N   UNL     1     -44.049 -53.491  14.050  1.00  0.00    -0.255 N 
ATOM      8  HN  UNL     1     -42.240 -53.489  12.949  1.00  0.00     0.187 HD
HETATM    9  C   UNL     1     -45.158 -52.783  14.514  1.00  0.00     0.262 A 
HETATM   10  C   UNL     1     -45.174 -51.337  14.223  1.00  0.00     0.078 A 
HETATM   11  O   UNL     1     -46.087 -53.267  15.151  1.00  0.00    -0.267 OA
HETATM   12  C   UNL     1     -44.185 -50.769  13.535  1.00  0.00     0.042 A 
BRANCH   7  13
HETATM   13  C   UNL     1     -43.897 -54.891  14.444  1.00  0.00     0.178 C 
BRANCH  13  14
HETATM   14  C   UNL     1     -42.946 -55.108  15.625  1.00  0.00     0.189 C 
BRANCH  14  15
HETATM   15  O   UNL     1     -41.969 -54.060  15.632  1.00  0.00    -0.394 OA
HETATM   16  C   UNL     1     -40.647 -54.580  15.551  1.00  0.00     0.201 C 
ENDBRANCH  14  15
ENDBRANCH  13  14
ENDBRANCH   7  13
ENDBRANCH   1   5
BRANCH   3  17
HETATM   17  C   UNL     1     -41.399 -48.914  10.957  1.00  0.00     0.088 C 
HETATM   18  C   UNL     1     -40.339 -48.167  11.766  1.00  0.00     0.055 C 
HETATM   19  C   UNL     1     -40.893 -46.911  12.437  1.00  0.00     0.275 C 
HETATM   20  N   UNL     1     -41.648 -46.021  11.550  1.00  0.00     0.093 N 
HETATM   21  C   UNL     1     -42.670 -46.729  10.775  1.00  0.00     0.275 C 
HETATM   22  C   UNL     1     -42.138 -47.952  10.029  1.00  0.00     0.055 C 
BRANCH  20  23
HETATM   23  C   UNL     1     -40.831 -45.107  10.735  1.00  0.00     0.223 A 
HETATM   24  C   UNL     1     -39.569 -44.490  11.273  1.00  0.00     0.038 A 
HETATM   25  C   UNL     1     -40.810 -43.660  11.163  1.00  0.00     0.038 A 
ENDBRANCH  20  23
ENDBRANCH   3  17
TORSDOF 6
ENDMDL
MODEL 8
REMARK VINA RESULT:      -5.3      3.563      7.820
REMARK  6 active torsions:
REMARK  status: ('A' for Active; 'I' for Inactive)
REMARK    1  A    between atoms: O_2  and  C_3 
REMARK    2  A    between atoms: C_3  and  C_4 
REMARK    3  A    between atoms: C_4  and  N_5 
REMARK    4  A    between atoms: C_8  and  C_13 
REMARK       I    between atoms: C_13  and  N_15 
REMARK    5  A    between atoms: N_15  and  C_16 
REMARK    6  A    between atoms: N_19  and  C_22 
ROOT
HETATM    1  C   UNL     1     -43.232 -49.570  14.163  1.00  0.00     0.269 C 
HETATM    2  O   UNL     1     -43.466 -49.147  15.287  1.00  0.00    -0.266 OA
HETATM    3  N   UNL     1     -42.551 -48.878  13.187  1.00  0.00    -0.351 N 
HETATM    4  H   UNL     1     -42.542 -49.285  12.254  1.00  0.00     0.163 HD
ENDROOT
BRANCH   1   5
HETATM    5  C   UNL     1     -43.678 -50.990  13.790  1.00  0.00     0.116 A 
HETATM    6  N   UNL     1     -42.832 -51.974  13.855  1.00  0.00    -0.290 N 
HETATM    7  N   UNL     1     -43.307 -53.231  13.477  1.00  0.00    -0.255 N 
ATOM      8  HN  UNL     1     -41.870 -51.836  14.167  1.00  0.00     0.187 HD
HETATM    9  C   UNL     1     -44.599 -53.472  13.011  1.00  0.00     0.262 A 
HETATM   10  C   UNL     1     -45.513 -52.314  12.996  1.00  0.00     0.078 A 
HETATM   11  O   UNL     1     -45.023 -54.562  12.642  1.00  0.00    -0.267 OA
HETATM   12  C   UNL     1     -45.094 -51.111  13.389  1.00  0.00     0.042 A 
BRANCH   7  13
HETATM   13  C   UNL     1     -42.407 -54.367  13.667  1.00  0.00     0.178 C 
BRANCH  13  14
HETATM   14  C   UNL     1     -40.971 -54.113  13.197  1.00  0.00     0.189 C 
BRANCH  14  15
HETATM   15  O   UNL     1     -40.178 -53.717  14.322  1.00  0.00    -0.394 OA
HETATM   16  C   UNL     1     -39.288 -52.659  13.986  1.00  0.00     0.201 C 
ENDBRANCH  14  15
ENDBRANCH  13  14
ENDBRANCH   7  13
ENDBRANCH   1   5
BRANCH   3  17
HETATM   17  C   UNL     1     -42.036 -47.528  13.425  1.00  0.00     0.088 C 
HETATM   18  C   UNL     1     -42.585 -46.503  12.434  1.00  0.00     0.055 C 
HETATM   19  C   UNL     1     -41.922 -46.603  11.061  1.00  0.00     0.275 C 
HETATM   20  N   UNL     1     -40.457 -46.625  11.087  1.00  0.00     0.093 N 
HETATM   21  C   UNL     1     -39.922 -47.610  12.032  1.00  0.00     0.275 C 
HETATM   22  C   UNL     1     -40.510 -47.494  13.437  1.00  0.00     0.055 C 
BRANCH  20  23
HETATM   23  C   UNL     1     -39.810 -45.307  11.195  1.00  0.00     0.223 A 
HETATM   24  C   UNL     1     -40.479 -44.060  10.682  1.00  0.00     0.038 A 
HETATM   25  C   UNL     1     -39.355 -44.672   9.903  1.00  0.00     0.038 A 
ENDBRANCH  20  23
ENDBRANCH   3  17
TORSDOF 6
ENDMDL
MODEL 9
REMARK VINA RESULT:      -5.3      2.269      2.805
REMARK  6 active torsions:
REMARK  status: ('A' for Active; 'I' for Inactive)
REMARK    1  A    between atoms: O_2  and  C_3 
REMARK    2  A    between atoms: C_3  and  C_4 
REMARK    3  A    between atoms: C_4  and  N_5 
REMARK    4  A    between atoms: C_8  and  C_13 
REMARK       I    between atoms: C_13  and  N_15 
REMARK    5  A    between atoms: N_15  and  C_16 
REMARK    6  A    between atoms: N_19  and  C_22 
ROOT
HETATM    1  C   UNL     1     -42.803 -50.268  12.725  1.00  0.00     0.269 C 
HETATM    2  O   UNL     1     -43.991 -50.304  13.013  1.00  0.00    -0.266 OA
HETATM    3  N   UNL     1     -41.908 -51.292  12.945  1.00  0.00    -0.351 N 
HETATM    4  H   UNL     1     -40.924 -51.087  12.786  1.00  0.00     0.163 HD
ENDROOT
BRANCH   1   5
HETATM    5  C   UNL     1     -42.239 -49.025  12.026  1.00  0.00     0.116 A 
HETATM    6  N   UNL     1     -42.872 -48.503  11.018  1.00  0.00    -0.290 N 
HETATM    7  N   UNL     1     -42.283 -47.388  10.421  1.00  0.00    -0.255 N 
ATOM      8  HN  UNL     1     -43.754 -48.890  10.680  1.00  0.00     0.187 HD
HETATM    9  C   UNL     1     -41.064 -46.839  10.817  1.00  0.00     0.262 A 
HETATM   10  C   UNL     1     -40.420 -47.463  11.988  1.00  0.00     0.078 A 
HETATM   11  O   UNL     1     -40.516 -45.881  10.283  1.00  0.00    -0.267 OA
HETATM   12  C   UNL     1     -40.982 -48.505  12.600  1.00  0.00     0.042 A 
BRANCH   7  13
HETATM   13  C   UNL     1     -43.047 -46.715   9.371  1.00  0.00     0.178 C 
BRANCH  13  14
HETATM   14  C   UNL     1     -44.131 -47.587   8.730  1.00  0.00     0.189 C 
BRANCH  14  15
HETATM   15  O   UNL     1     -45.298 -47.561   9.561  1.00  0.00    -0.394 OA
HETATM   16  C   UNL     1     -46.437 -48.070   8.877  1.00  0.00     0.201 C 
ENDBRANCH  14  15
ENDBRANCH  13  14
ENDBRANCH   7  13
ENDBRANCH   1   5
BRANCH   3  17
HETATM   17  C   UNL     1     -42.323 -52.549  13.569  1.00  0.00     0.088 C 
HETATM   18  C   UNL     1     -42.233 -52.510  15.094  1.00  0.00     0.055 C 
HETATM   19  C   UNL     1     -40.796 -52.639  15.599  1.00  0.00     0.275 C 
HETATM   20  N   UNL     1     -40.040 -53.754  15.023  1.00  0.00     0.093 N 
HETATM   21  C   UNL     1     -40.118 -53.796  13.560  1.00  0.00     0.275 C 
HETATM   22  C   UNL     1     -41.546 -53.743  13.019  1.00  0.00     0.055 C 
BRANCH  20  23
HETATM   23  C   UNL     1     -40.276 -55.064  15.654  1.00  0.00     0.223 A 
HETATM   24  C   UNL     1     -40.359 -55.212  17.149  1.00  0.00     0.038 A 
HETATM   25  C   UNL     1     -39.123 -55.655  16.429  1.00  0.00     0.038 A 
ENDBRANCH  20  23
ENDBRANCH   3  17
TORSDOF 6
ENDMDL
