MODEL 1
REMARK VINA RESULT:      -6.2      0.000      0.000
REMARK  5 active torsions:
REMARK  status: ('A' for Active; 'I' for Inactive)
REMARK    1  A    between atoms: N_2  and  C_4 
REMARK    2  A    between atoms: C_4  and  C_5 
REMARK    3  A    between atoms: C_5  and  C_6 
REMARK    4  A    between atoms: C_6  and  N_7 
REMARK       I    between atoms: N_7  and  C_8 
REMARK       I    between atoms: C_8  and  N_10 
REMARK    5  A    between atoms: N_10  and  C_11 
ROOT
HETATM    1  N   UNL     1     -42.730 -46.030  11.545  1.00  0.00    -0.342 N 
HETATM    2  C   UNL     1     -43.380 -47.073  10.917  1.00  0.00     0.321 C 
HETATM    3  O   UNL     1     -43.307 -48.224  11.321  1.00  0.00    -0.247 OA
HETATM    4  N   UNL     1     -44.135 -46.613   9.868  1.00  0.00    -0.294 N 
HETATM    5  H   UNL     1     -42.310 -45.354  10.909  1.00  0.00     0.164 HD
HETATM    6  H   UNL     1     -44.320 -45.623   9.864  1.00  0.00     0.172 HD
ENDROOT
BRANCH   1   7
HETATM    7  C   UNL     1     -41.912 -46.310  12.710  1.00  0.00     0.135 C 
BRANCH   7   8
HETATM    8  C   UNL     1     -40.413 -46.516  12.375  1.00  0.00     0.002 C 
HETATM    9  C   UNL     1     -40.085 -46.161  10.909  1.00  0.00     0.013 C 
HETATM   10  C   UNL     1     -39.529 -44.742  10.867  1.00  0.00     0.001 C 
HETATM   11  C   UNL     1     -39.555 -44.224  12.291  1.00  0.00     0.001 C 
HETATM   12  C   UNL     1     -39.583 -45.470  13.165  1.00  0.00     0.013 C 
BRANCH   8  13
HETATM   13  C   UNL     1     -39.959 -47.958  12.771  1.00  0.00     0.282 C 
BRANCH  13  14
HETATM   14  N   UNL     1     -39.515 -48.875  11.688  1.00  0.00     0.080 N 
HETATM   15  C   UNL     1     -38.141 -49.357  11.867  1.00  0.00     0.309 C 
HETATM   16  C   UNL     1     -40.405 -50.048  11.652  1.00  0.00     0.309 C 
ENDBRANCH  13  14
ENDBRANCH   8  13
ENDBRANCH   7   8
ENDBRANCH   1   7
BRANCH   4  17
HETATM   17  C   UNL     1     -44.896 -47.438   9.028  1.00  0.00     0.123 A 
HETATM   18  C   UNL     1     -46.159 -47.819   9.459  1.00  0.00     0.051 A 
HETATM   19  C   UNL     1     -46.917 -48.672   8.660  1.00  0.00     0.022 A 
HETATM   20  C   UNL     1     -46.390 -49.079   7.453  1.00  0.00     0.107 A 
HETATM   21  N   UNL     1     -45.180 -48.675   7.033  1.00  0.00    -0.310 N 
HETATM   22  N   UNL     1     -44.429 -47.850   7.833  1.00  0.00    -0.286 N 
ATOM     23  HN  UNL     1     -44.822 -48.978   6.127  1.00  0.00     0.186 HD
ATOM     24  HN  UNL     1     -43.507 -47.547   7.520  1.00  0.00     0.188 HD
ENDBRANCH   4  17
TORSDOF 5
ENDMDL
MODEL 2
REMARK VINA RESULT:      -6.0      3.970      6.609
REMARK  5 active torsions:
REMARK  status: ('A' for Active; 'I' for Inactive)
REMARK    1  A    between atoms: N_2  and  C_4 
REMARK    2  A    between atoms: C_4  and  C_5 
REMARK    3  A    between atoms: C_5  and  C_6 
REMARK    4  A    between atoms: C_6  and  N_7 
REMARK       I    between atoms: N_7  and  C_8 
REMARK       I    between atoms: C_8  and  N_10 
REMARK    5  A    between atoms: N_10  and  C_11 
ROOT
HETATM    1  N   UNL     1     -43.053 -51.004  12.568  1.00  0.00    -0.342 N 
HETATM    2  C   UNL     1     -42.352 -49.816  12.559  1.00  0.00     0.321 C 
HETATM    3  O   UNL     1     -41.699 -49.437  13.519  1.00  0.00    -0.247 OA
HETATM    4  N   UNL     1     -42.450 -49.204  11.335  1.00  0.00    -0.294 N 
HETATM    5  H   UNL     1     -43.970 -50.954  12.126  1.00  0.00     0.164 HD
HETATM    6  H   UNL     1     -42.766 -49.789  10.578  1.00  0.00     0.172 HD
ENDROOT
BRANCH   1   7
HETATM    7  C   UNL     1     -43.036 -51.822  13.767  1.00  0.00     0.135 C 
BRANCH   7   8
HETATM    8  C   UNL     1     -42.715 -53.313  13.492  1.00  0.00     0.002 C 
HETATM    9  C   UNL     1     -43.034 -54.215  14.704  1.00  0.00     0.013 C 
HETATM   10  C   UNL     1     -44.407 -54.843  14.492  1.00  0.00     0.001 C 
HETATM   11  C   UNL     1     -44.936 -54.298  13.181  1.00  0.00     0.001 C 
HETATM   12  C   UNL     1     -43.702 -53.839  12.416  1.00  0.00     0.013 C 
BRANCH   8  13
HETATM   13  C   UNL     1     -41.247 -53.469  12.983  1.00  0.00     0.282 C 
BRANCH  13  14
HETATM   14  N   UNL     1     -40.145 -53.343  13.973  1.00  0.00     0.080 N 
HETATM   15  C   UNL     1     -39.249 -54.505  13.990  1.00  0.00     0.309 C 
HETATM   16  C   UNL     1     -39.337 -52.155  13.652  1.00  0.00     0.309 C 
ENDBRANCH  13  14
ENDBRANCH   8  13
ENDBRANCH   7   8
ENDBRANCH   1   7
BRANCH   4  17
HETATM   17  C   UNL     1     -41.858 -47.972  11.023  1.00  0.00     0.123 A 
HETATM   18  C   UNL     1     -42.691 -46.879  10.832  1.00  0.00     0.051 A 
HETATM   19  C   UNL     1     -42.128 -45.653  10.481  1.00  0.00     0.022 A 
HETATM   20  C   UNL     1     -40.757 -45.572  10.367  1.00  0.00     0.107 A 
HETATM   21  N   UNL     1     -39.960 -46.631  10.588  1.00  0.00    -0.310 N 
HETATM   22  N   UNL     1     -40.521 -47.840  10.915  1.00  0.00    -0.286 N 
ATOM     23  HN  UNL     1     -38.947 -46.537  10.513  1.00  0.00     0.186 HD
ATOM     24  HN  UNL     1     -39.920 -48.647  11.076  1.00  0.00     0.188 HD
ENDBRANCH   4  17
TORSDOF 5
ENDMDL
MODEL 3
REMARK VINA RESULT:      -6.0      4.167      6.749
REMARK  5 active torsions:
REMARK  status: ('A' for Active; 'I' for Inactive)
REMARK    1  A    between atoms: N_2  and  C_4 
REMARK    2  A    between atoms: C_4  and  C_5 
REMARK    3  A    between atoms: C_5  and  C_6 
REMARK    4  A    between atoms: C_6  and  N_7 
REMARK       I    between atoms: N_7  and  C_8 
REMARK       I    between atoms: C_8  and  N_10 
REMARK    5  A    between atoms: N_10  and  C_11 
ROOT
HETATM    1  N   UNL     1     -41.905 -51.435  11.779  1.00  0.00    -0.342 N 
HETATM    2  C   UNL     1     -41.284 -50.203  11.807  1.00  0.00     0.321 C 
HETATM    3  O   UNL     1     -40.245 -50.011  12.421  1.00  0.00    -0.247 OA
HETATM    4  N   UNL     1     -41.954 -49.303  11.018  1.00  0.00    -0.294 N 
HETATM    5  H   UNL     1     -42.921 -51.394  11.850  1.00  0.00     0.164 HD
HETATM    6  H   UNL     1     -42.601 -49.700  10.355  1.00  0.00     0.172 HD
ENDROOT
BRANCH   1   7
HETATM    7  C   UNL     1     -41.320 -52.535  12.522  1.00  0.00     0.135 C 
BRANCH   7   8
HETATM    8  C   UNL     1     -42.314 -53.223  13.491  1.00  0.00     0.002 C 
HETATM    9  C   UNL     1     -41.698 -54.455  14.188  1.00  0.00     0.013 C 
HETATM   10  C   UNL     1     -41.203 -54.033  15.568  1.00  0.00     0.001 C 
HETATM   11  C   UNL     1     -41.482 -52.549  15.694  1.00  0.00     0.001 C 
HETATM   12  C   UNL     1     -42.584 -52.266  14.682  1.00  0.00     0.013 C 
BRANCH   8  13
HETATM   13  C   UNL     1     -43.655 -53.544  12.757  1.00  0.00     0.282 C 
BRANCH  13  14
HETATM   14  N   UNL     1     -44.915 -53.497  13.546  1.00  0.00     0.080 N 
HETATM   15  C   UNL     1     -45.971 -52.707  12.901  1.00  0.00     0.309 C 
HETATM   16  C   UNL     1     -45.423 -54.866  13.730  1.00  0.00     0.309 C 
ENDBRANCH  13  14
ENDBRANCH   8  13
ENDBRANCH   7   8
ENDBRANCH   1   7
BRANCH   4  17
HETATM   17  C   UNL     1     -41.574 -47.964  10.858  1.00  0.00     0.123 A 
HETATM   18  C   UNL     1     -42.565 -46.994  10.908  1.00  0.00     0.051 A 
HETATM   19  C   UNL     1     -42.217 -45.660  10.710  1.00  0.00     0.022 A 
HETATM   20  C   UNL     1     -40.889 -45.354  10.502  1.00  0.00     0.107 A 
HETATM   21  N   UNL     1     -39.935 -46.299  10.489  1.00  0.00    -0.310 N 
HETATM   22  N   UNL     1     -40.286 -47.614  10.665  1.00  0.00    -0.286 N 
ATOM     23  HN  UNL     1     -38.957 -46.042  10.350  1.00  0.00     0.186 HD
ATOM     24  HN  UNL     1     -39.565 -48.335  10.650  1.00  0.00     0.188 HD
ENDBRANCH   4  17
TORSDOF 5
ENDMDL
MODEL 4
REMARK VINA RESULT:      -6.0      4.485      5.771
REMARK  5 active torsions:
REMARK  status: ('A' for Active; 'I' for Inactive)
REMARK    1  A    between atoms: N_2  and  C_4 
REMARK    2  A    between atoms: C_4  and  C_5 
REMARK    3  A    between atoms: C_5  and  C_6 
REMARK    4  A    between atoms: C_6  and  N_7 
REMARK       I    between atoms: N_7  and  C_8 
REMARK       I    between atoms: C_8  and  N_10 
REMARK    5  A    between atoms: N_10  and  C_11 
ROOT
HETATM    1  N   UNL     1     -41.945 -51.123  11.829  1.00  0.00    -0.342 N 
HETATM    2  C   UNL     1     -42.712 -51.879  12.692  1.00  0.00     0.321 C 
HETATM    3  O   UNL     1     -42.218 -52.670  13.481  1.00  0.00    -0.247 OA
HETATM    4  N   UNL     1     -44.041 -51.558  12.569  1.00  0.00    -0.294 N 
HETATM    5  H   UNL     1     -42.335 -51.032  10.892  1.00  0.00     0.164 HD
HETATM    6  H   UNL     1     -44.238 -50.688  12.101  1.00  0.00     0.172 HD
ENDROOT
BRANCH   1   7
HETATM    7  C   UNL     1     -40.504 -51.288  11.841  1.00  0.00     0.135 C 
BRANCH   7   8
HETATM    8  C   UNL     1     -39.748 -50.069  12.428  1.00  0.00     0.002 C 
HETATM    9  C   UNL     1     -39.187 -50.351  13.838  1.00  0.00     0.013 C 
HETATM   10  C   UNL     1     -37.719 -50.742  13.706  1.00  0.00     0.001 C 
HETATM   11  C   UNL     1     -37.400 -50.737  12.225  1.00  0.00     0.001 C 
HETATM   12  C   UNL     1     -38.459 -49.841  11.595  1.00  0.00     0.013 C 
BRANCH   8  13
HETATM   13  C   UNL     1     -40.646 -48.793  12.371  1.00  0.00     0.282 C 
BRANCH  13  14
HETATM   14  N   UNL     1     -40.566 -47.932  11.161  1.00  0.00     0.080 N 
HETATM   15  C   UNL     1     -41.833 -47.852  10.424  1.00  0.00     0.309 C 
HETATM   16  C   UNL     1     -40.188 -46.567  11.561  1.00  0.00     0.309 C 
ENDBRANCH  13  14
ENDBRANCH   8  13
ENDBRANCH   7   8
ENDBRANCH   1   7
BRANCH   4  17
HETATM   17  C   UNL     1     -45.067 -52.170  13.302  1.00  0.00     0.123 A 
HETATM   18  C   UNL     1     -45.887 -51.361  14.076  1.00  0.00     0.051 A 
HETATM   19  C   UNL     1     -46.887 -51.951  14.845  1.00  0.00     0.022 A 
HETATM   20  C   UNL     1     -47.042 -53.319  14.780  1.00  0.00     0.107 A 
HETATM   21  N   UNL     1     -46.262 -54.087  14.000  1.00  0.00    -0.310 N 
HETATM   22  N   UNL     1     -45.265 -53.502  13.260  1.00  0.00    -0.286 N 
ATOM     23  HN  UNL     1     -46.410 -55.096  13.959  1.00  0.00     0.186 HD
ATOM     24  HN  UNL     1     -44.668 -54.083  12.672  1.00  0.00     0.188 HD
ENDBRANCH   4  17
TORSDOF 5
ENDMDL
MODEL 5
REMARK VINA RESULT:      -5.9      2.609      6.268
REMARK  5 active torsions:
REMARK  status: ('A' for Active; 'I' for Inactive)
REMARK    1  A    between atoms: N_2  and  C_4 
REMARK    2  A    between atoms: C_4  and  C_5 
REMARK    3  A    between atoms: C_5  and  C_6 
REMARK    4  A    between atoms: C_6  and  N_7 
REMARK       I    between atoms: N_7  and  C_8 
REMARK       I    between atoms: C_8  and  N_10 
REMARK    5  A    between atoms: N_10  and  C_11 
ROOT
HETATM    1  N   UNL     1     -42.224 -48.845  10.840  1.00  0.00    -0.342 N 
HETATM    2  C   UNL     1     -42.108 -49.883  11.742  1.00  0.00     0.321 C 
HETATM    3  O   UNL     1     -42.864 -50.007  12.694  1.00  0.00    -0.247 OA
HETATM    4  N   UNL     1     -41.105 -50.741  11.368  1.00  0.00    -0.294 N 
HETATM    5  H   UNL     1     -41.334 -48.446  10.544  1.00  0.00     0.164 HD
HETATM    6  H   UNL     1     -40.793 -50.658  10.414  1.00  0.00     0.172 HD
ENDROOT
BRANCH   1   7
HETATM    7  C   UNL     1     -43.261 -47.851  11.042  1.00  0.00     0.135 C 
BRANCH   7   8
HETATM    8  C   UNL     1     -43.470 -46.921   9.820  1.00  0.00     0.002 C 
HETATM    9  C   UNL     1     -43.079 -47.602   8.491  1.00  0.00     0.013 C 
HETATM   10  C   UNL     1     -44.342 -48.150   7.837  1.00  0.00     0.001 C 
HETATM   11  C   UNL     1     -45.488 -47.839   8.778  1.00  0.00     0.001 C 
HETATM   12  C   UNL     1     -44.992 -46.683   9.637  1.00  0.00     0.013 C 
BRANCH   8  13
HETATM   13  C   UNL     1     -42.745 -45.556  10.044  1.00  0.00     0.282 C 
BRANCH  13  14
HETATM   14  N   UNL     1     -41.731 -45.470  11.129  1.00  0.00     0.080 N 
HETATM   15  C   UNL     1     -40.351 -45.474  10.630  1.00  0.00     0.309 C 
HETATM   16  C   UNL     1     -41.936 -44.224  11.886  1.00  0.00     0.309 C 
ENDBRANCH  13  14
ENDBRANCH   8  13
ENDBRANCH   7   8
ENDBRANCH   1   7
BRANCH   4  17
HETATM   17  C   UNL     1     -40.737 -51.882  12.094  1.00  0.00     0.123 A 
HETATM   18  C   UNL     1     -39.969 -51.709  13.236  1.00  0.00     0.051 A 
HETATM   19  C   UNL     1     -39.556 -52.832  13.950  1.00  0.00     0.022 A 
HETATM   20  C   UNL     1     -39.956 -54.074  13.506  1.00  0.00     0.107 A 
HETATM   21  N   UNL     1     -40.728 -54.225  12.417  1.00  0.00    -0.310 N 
HETATM   22  N   UNL     1     -41.116 -53.117  11.706  1.00  0.00    -0.286 N 
ATOM     23  HN  UNL     1     -41.024 -55.156  12.121  1.00  0.00     0.186 HD
ATOM     24  HN  UNL     1     -41.696 -53.229  10.876  1.00  0.00     0.188 HD
ENDBRANCH   4  17
TORSDOF 5
ENDMDL
MODEL 6
REMARK VINA RESULT:      -5.7      4.370      6.653
REMARK  5 active torsions:
REMARK  status: ('A' for Active; 'I' for Inactive)
REMARK    1  A    between atoms: N_2  and  C_4 
REMARK    2  A    between atoms: C_4  and  C_5 
REMARK    3  A    between atoms: C_5  and  C_6 
REMARK    4  A    between atoms: C_6  and  N_7 
REMARK       I    between atoms: N_7  and  C_8 
REMARK       I    between atoms: C_8  and  N_10 
REMARK    5  A    between atoms: N_10  and  C_11 
ROOT
HETATM    1  N   UNL     1     -43.068 -50.888  12.727  1.00  0.00    -0.342 N 
HETATM    2  C   UNL     1     -42.674 -49.568  12.651  1.00  0.00     0.321 C 
HETATM    3  O   UNL     1     -42.687 -48.827  13.623  1.00  0.00    -0.247 OA
HETATM    4  N   UNL     1     -42.225 -49.267  11.391  1.00  0.00    -0.294 N 
HETATM    5  H   UNL     1     -43.617 -51.208  11.930  1.00  0.00     0.164 HD
HETATM    6  H   UNL     1     -42.000 -50.057  10.807  1.00  0.00     0.172 HD
ENDROOT
BRANCH   1   7
HETATM    7  C   UNL     1     -43.538 -51.411  13.997  1.00  0.00     0.135 C 
BRANCH   7   8
HETATM    8  C   UNL     1     -44.516 -52.603  13.849  1.00  0.00     0.002 C 
HETATM    9  C   UNL     1     -45.567 -52.644  14.980  1.00  0.00     0.013 C 
HETATM   10  C   UNL     1     -46.849 -51.994  14.471  1.00  0.00     0.001 C 
HETATM   11  C   UNL     1     -46.569 -51.528  13.057  1.00  0.00     0.001 C 
HETATM   12  C   UNL     1     -45.390 -52.371  12.589  1.00  0.00     0.013 C 
BRANCH   8  13
HETATM   13  C   UNL     1     -43.724 -53.942  13.703  1.00  0.00     0.282 C 
BRANCH  13  14
HETATM   14  N   UNL     1     -42.347 -54.007  14.263  1.00  0.00     0.080 N 
HETATM   15  C   UNL     1     -42.190 -55.042  15.291  1.00  0.00     0.309 C 
HETATM   16  C   UNL     1     -41.396 -54.299  13.178  1.00  0.00     0.309 C 
ENDBRANCH  13  14
ENDBRANCH   8  13
ENDBRANCH   7   8
ENDBRANCH   1   7
BRANCH   4  17
HETATM   17  C   UNL     1     -41.773 -47.999  11.000  1.00  0.00     0.123 A 
HETATM   18  C   UNL     1     -42.723 -47.027  10.717  1.00  0.00     0.051 A 
HETATM   19  C   UNL     1     -42.298 -45.772  10.287  1.00  0.00     0.022 A 
HETATM   20  C   UNL     1     -40.943 -45.537  10.190  1.00  0.00     0.107 A 
HETATM   21  N   UNL     1     -40.034 -46.476  10.499  1.00  0.00    -0.310 N 
HETATM   22  N   UNL     1     -40.459 -47.717  10.904  1.00  0.00    -0.286 N 
ATOM     23  HN  UNL     1     -39.037 -46.269  10.435  1.00  0.00     0.186 HD
ATOM     24  HN  UNL     1     -39.771 -48.435  11.134  1.00  0.00     0.188 HD
ENDBRANCH   4  17
TORSDOF 5
ENDMDL
MODEL 7
REMARK VINA RESULT:      -5.7      2.632      5.832
REMARK  5 active torsions:
REMARK  status: ('A' for Active; 'I' for Inactive)
REMARK    1  A    between atoms: N_2  and  C_4 
REMARK    2  A    between atoms: C_4  and  C_5 
REMARK    3  A    between atoms: C_5  and  C_6 
REMARK    4  A    between atoms: C_6  and  N_7 
REMARK       I    between atoms: N_7  and  C_8 
REMARK       I    between atoms: C_8  and  N_10 
REMARK    5  A    between atoms: N_10  and  C_11 
ROOT
HETATM    1  N   UNL     1     -41.509 -48.592  11.276  1.00  0.00    -0.342 N 
HETATM    2  C   UNL     1     -41.611 -49.742  12.032  1.00  0.00     0.321 C 
HETATM    3  O   UNL     1     -42.446 -49.870  12.914  1.00  0.00    -0.247 OA
HETATM    4  N   UNL     1     -40.714 -50.687  11.601  1.00  0.00    -0.294 N 
HETATM    5  H   UNL     1     -40.552 -48.298  11.087  1.00  0.00     0.164 HD
HETATM    6  H   UNL     1     -40.322 -50.532  10.687  1.00  0.00     0.172 HD
ENDROOT
BRANCH   1   7
HETATM    7  C   UNL     1     -42.407 -47.487  11.552  1.00  0.00     0.135 C 
BRANCH   7   8
HETATM    8  C   UNL     1     -42.059 -46.198  10.766  1.00  0.00     0.002 C 
HETATM    9  C   UNL     1     -42.403 -44.917  11.556  1.00  0.00     0.013 C 
HETATM   10  C   UNL     1     -41.136 -44.413  12.237  1.00  0.00     0.001 C 
HETATM   11  C   UNL     1     -40.038 -45.400  11.896  1.00  0.00     0.001 C 
HETATM   12  C   UNL     1     -40.516 -46.102  10.633  1.00  0.00     0.013 C 
BRANCH   8  13
HETATM   13  C   UNL     1     -42.710 -46.234   9.346  1.00  0.00     0.282 C 
BRANCH  13  14
HETATM   14  N   UNL     1     -43.696 -47.308   9.054  1.00  0.00     0.080 N 
HETATM   15  C   UNL     1     -45.088 -46.847   9.117  1.00  0.00     0.309 C 
HETATM   16  C   UNL     1     -43.454 -47.833   7.701  1.00  0.00     0.309 C 
ENDBRANCH  13  14
ENDBRANCH   8  13
ENDBRANCH   7   8
ENDBRANCH   1   7
BRANCH   4  17
HETATM   17  C   UNL     1     -40.568 -51.953  12.184  1.00  0.00     0.123 A 
HETATM   18  C   UNL     1     -39.967 -52.032  13.432  1.00  0.00     0.051 A 
HETATM   19  C   UNL     1     -39.774 -53.284  14.012  1.00  0.00     0.022 A 
HETATM   20  C   UNL     1     -40.218 -54.396  13.331  1.00  0.00     0.107 A 
HETATM   21  N   UNL     1     -40.829 -54.304  12.138  1.00  0.00    -0.310 N 
HETATM   22  N   UNL     1     -40.999 -53.069  11.562  1.00  0.00    -0.286 N 
ATOM     23  HN  UNL     1     -41.163 -55.143  11.664  1.00  0.00     0.186 HD
ATOM     24  HN  UNL     1     -41.456 -52.996  10.654  1.00  0.00     0.188 HD
ENDBRANCH   4  17
TORSDOF 5
ENDMDL
MODEL 8
REMARK VINA RESULT:      -5.6      5.512      8.686
REMARK  5 active torsions:
REMARK  status: ('A' for Active; 'I' for Inactive)
REMARK    1  A    between atoms: N_2  and  C_4 
REMARK    2  A    between atoms: C_4  and  C_5 
REMARK    3  A    between atoms: C_5  and  C_6 
REMARK    4  A    between atoms: C_6  and  N_7 
REMARK       I    between atoms: N_7  and  C_8 
REMARK       I    between atoms: C_8  and  N_10 
REMARK    5  A    between atoms: N_10  and  C_11 
ROOT
HETATM    1  N   UNL     1     -42.665 -52.243  13.960  1.00  0.00    -0.342 N 
HETATM    2  C   UNL     1     -41.715 -52.052  12.977  1.00  0.00     0.321 C 
HETATM    3  O   UNL     1     -41.832 -52.524  11.856  1.00  0.00    -0.247 OA
HETATM    4  N   UNL     1     -40.710 -51.232  13.426  1.00  0.00    -0.294 N 
HETATM    5  H   UNL     1     -42.280 -52.415  14.888  1.00  0.00     0.164 HD
HETATM    6  H   UNL     1     -40.921 -50.696  14.253  1.00  0.00     0.172 HD
ENDROOT
BRANCH   1   7
HETATM    7  C   UNL     1     -43.832 -53.051  13.662  1.00  0.00     0.135 C 
BRANCH   7   8
HETATM    8  C   UNL     1     -44.055 -54.208  14.670  1.00  0.00     0.002 C 
HETATM    9  C   UNL     1     -44.587 -53.706  16.030  1.00  0.00     0.013 C 
HETATM   10  C   UNL     1     -46.102 -53.877  16.049  1.00  0.00     0.001 C 
HETATM   11  C   UNL     1     -46.493 -54.441  14.699  1.00  0.00     0.001 C 
HETATM   12  C   UNL     1     -45.225 -55.088  14.158  1.00  0.00     0.013 C 
BRANCH   8  13
HETATM   13  C   UNL     1     -42.761 -55.072  14.801  1.00  0.00     0.282 C 
BRANCH  13  14
HETATM   14  N   UNL     1     -42.011 -55.022  16.083  1.00  0.00     0.080 N 
HETATM   15  C   UNL     1     -41.911 -56.328  16.746  1.00  0.00     0.309 C 
HETATM   16  C   UNL     1     -40.644 -54.539  15.827  1.00  0.00     0.309 C 
ENDBRANCH  13  14
ENDBRANCH   8  13
ENDBRANCH   7   8
ENDBRANCH   1   7
BRANCH   4  17
HETATM   17  C   UNL     1     -39.594 -50.867  12.661  1.00  0.00     0.123 A 
HETATM   18  C   UNL     1     -38.334 -51.100  13.193  1.00  0.00     0.051 A 
HETATM   19  C   UNL     1     -37.211 -50.708  12.469  1.00  0.00     0.022 A 
HETATM   20  C   UNL     1     -37.398 -50.129  11.232  1.00  0.00     0.107 A 
HETATM   21  N   UNL     1     -38.623 -49.940  10.714  1.00  0.00    -0.310 N 
HETATM   22  N   UNL     1     -39.727 -50.311  11.440  1.00  0.00    -0.286 N 
ATOM     23  HN  UNL     1     -38.732 -49.525   9.788  1.00  0.00     0.186 HD
ATOM     24  HN  UNL     1     -40.659 -50.163  11.052  1.00  0.00     0.188 HD
ENDBRANCH   4  17
TORSDOF 5
ENDMDL
MODEL 9
REMARK VINA RESULT:      -5.6      4.648      5.826
REMARK  5 active torsions:
REMARK  status: ('A' for Active; 'I' for Inactive)
REMARK    1  A    between atoms: N_2  and  C_4 
REMARK    2  A    between atoms: C_4  and  C_5 
REMARK    3  A    between atoms: C_5  and  C_6 
REMARK    4  A    between atoms: C_6  and  N_7 
REMARK       I    between atoms: N_7  and  C_8 
REMARK       I    between atoms: C_8  and  N_10 
REMARK    5  A    between atoms: N_10  and  C_11 
ROOT
HETATM    1  N   UNL     1     -42.909 -50.310  12.228  1.00  0.00    -0.342 N 
HETATM    2  C   UNL     1     -43.600 -51.061  13.157  1.00  0.00     0.321 C 
HETATM    3  O   UNL     1     -43.588 -50.796  14.350  1.00  0.00    -0.247 OA
HETATM    4  N   UNL     1     -44.319 -52.053  12.540  1.00  0.00    -0.294 N 
HETATM    5  H   UNL     1     -42.449 -50.859  11.504  1.00  0.00     0.164 HD
HETATM    6  H   UNL     1     -44.457 -51.941  11.549  1.00  0.00     0.172 HD
ENDROOT
BRANCH   1   7
HETATM    7  C   UNL     1     -42.118 -49.182  12.684  1.00  0.00     0.135 C 
BRANCH   7   8
HETATM    8  C   UNL     1     -41.081 -48.693  11.641  1.00  0.00     0.002 C 
HETATM    9  C   UNL     1     -40.001 -47.786  12.268  1.00  0.00     0.013 C 
HETATM   10  C   UNL     1     -38.769 -48.635  12.564  1.00  0.00     0.001 C 
HETATM   11  C   UNL     1     -39.111 -50.053  12.156  1.00  0.00     0.001 C 
HETATM   12  C   UNL     1     -40.254 -49.914  11.160  1.00  0.00     0.013 C 
BRANCH   8  13
HETATM   13  C   UNL     1     -41.804 -48.032  10.424  1.00  0.00     0.282 C 
BRANCH  13  14
HETATM   14  N   UNL     1     -42.859 -47.022  10.700  1.00  0.00     0.080 N 
HETATM   15  C   UNL     1     -42.488 -45.668  10.274  1.00  0.00     0.309 C 
HETATM   16  C   UNL     1     -44.090 -47.399   9.985  1.00  0.00     0.309 C 
ENDBRANCH  13  14
ENDBRANCH   8  13
ENDBRANCH   7   8
ENDBRANCH   1   7
BRANCH   4  17
HETATM   17  C   UNL     1     -45.110 -52.989  13.222  1.00  0.00     0.123 A 
HETATM   18  C   UNL     1     -44.673 -54.306  13.261  1.00  0.00     0.051 A 
HETATM   19  C   UNL     1     -45.462 -55.261  13.897  1.00  0.00     0.022 A 
HETATM   20  C   UNL     1     -46.636 -54.851  14.490  1.00  0.00     0.107 A 
HETATM   21  N   UNL     1     -47.031 -53.567  14.473  1.00  0.00    -0.310 N 
HETATM   22  N   UNL     1     -46.259 -52.633  13.829  1.00  0.00    -0.286 N 
ATOM     23  HN  UNL     1     -47.897 -53.288  14.936  1.00  0.00     0.186 HD
ATOM     24  HN  UNL     1     -46.559 -51.658  13.808  1.00  0.00     0.188 HD
ENDBRANCH   4  17
TORSDOF 5
ENDMDL
