MODEL 1
REMARK VINA RESULT:      -5.9      0.000      0.000
REMARK  5 active torsions:
REMARK  status: ('A' for Active; 'I' for Inactive)
REMARK    1  A    between atoms: N_4  and  C_5 
REMARK    2  A    between atoms: C_5  and  C_6 
REMARK    3  A    between atoms: C_6  and  N_7 
REMARK       I    between atoms: N_7  and  C_8 
REMARK    4  A    between atoms: C_8  and  C_10 
REMARK    5  A    between atoms: C_10  and  N_11 
ROOT
HETATM    1  N   UNL     1     -41.722 -48.487   9.813  1.00  0.00    -0.358 N 
HETATM    2  C   UNL     1     -42.676 -47.493   9.772  1.00  0.00     0.237 C 
HETATM    3  O   UNL     1     -42.942 -46.776  10.735  1.00  0.00    -0.272 OA
HETATM    4  H   UNL     1     -41.612 -49.095   9.007  1.00  0.00     0.162 HD
ENDROOT
BRANCH   1   5
HETATM    5  C   UNL     1     -40.928 -48.756  11.001  1.00  0.00     0.152 C 
BRANCH   5   6
HETATM    6  C   UNL     1     -41.466 -49.923  11.856  1.00  0.00     0.292 C 
BRANCH   6   7
HETATM    7  N   UNL     1     -40.451 -50.532  12.740  1.00  0.00     0.095 N 
HETATM    8  C   UNL     1     -39.073 -50.338  12.246  1.00  0.00     0.303 C 
HETATM    9  C   UNL     1     -38.031 -51.012  13.164  1.00  0.00     0.146 C 
HETATM   10  C   UNL     1     -37.898 -50.316  14.519  1.00  0.00     0.041 C 
HETATM   11  O   UNL     1     -38.308 -52.414  13.317  1.00  0.00    -0.378 OA
HETATM   12  C   UNL     1     -39.645 -52.665  13.778  1.00  0.00     0.146 C 
HETATM   13  C   UNL     1     -40.693 -51.989  12.867  1.00  0.00     0.303 C 
HETATM   14  C   UNL     1     -39.840 -54.177  13.801  1.00  0.00     0.041 C 
ENDBRANCH   6   7
ENDBRANCH   5   6
ENDBRANCH   1   5
BRANCH   2  15
HETATM   15  C   UNL     1     -43.366 -47.324   8.441  1.00  0.00     0.250 C 
BRANCH  15  16
HETATM   16  N   UNL     1     -44.804 -47.305   8.589  1.00  0.00    -0.295 N 
HETATM   17  C   UNL     1     -45.643 -48.385   8.570  1.00  0.00     0.112 A 
HETATM   18  C   UNL     1     -46.894 -47.901   8.864  1.00  0.00     0.037 A 
HETATM   19  C   UNL     1     -46.707 -46.517   9.045  1.00  0.00     0.108 A 
HETATM   20  N   UNL     1     -45.433 -46.150   8.875  1.00  0.00    -0.310 N 
ATOM     21  HN  UNL     1     -45.033 -45.215   8.946  1.00  0.00     0.186 HD
ENDBRANCH  15  16
ENDBRANCH   2  15
TORSDOF 5
ENDMDL
MODEL 2
REMARK VINA RESULT:      -5.8      3.796      4.961
REMARK  5 active torsions:
REMARK  status: ('A' for Active; 'I' for Inactive)
REMARK    1  A    between atoms: N_4  and  C_5 
REMARK    2  A    between atoms: C_5  and  C_6 
REMARK    3  A    between atoms: C_6  and  N_7 
REMARK       I    between atoms: N_7  and  C_8 
REMARK    4  A    between atoms: C_8  and  C_10 
REMARK    5  A    between atoms: C_10  and  N_11 
ROOT
HETATM    1  N   UNL     1     -42.409 -49.984  12.159  1.00  0.00    -0.358 N 
HETATM    2  C   UNL     1     -41.631 -49.141  11.394  1.00  0.00     0.237 C 
HETATM    3  O   UNL     1     -40.554 -49.478  10.907  1.00  0.00    -0.272 OA
HETATM    4  H   UNL     1     -43.247 -49.615  12.599  1.00  0.00     0.162 HD
ENDROOT
BRANCH   1   5
HETATM    5  C   UNL     1     -42.027 -51.359  12.436  1.00  0.00     0.152 C 
BRANCH   5   6
HETATM    6  C   UNL     1     -42.280 -51.792  13.896  1.00  0.00     0.292 C 
BRANCH   6   7
HETATM    7  N   UNL     1     -43.549 -52.522  14.090  1.00  0.00     0.095 N 
HETATM    8  C   UNL     1     -44.083 -53.084  12.833  1.00  0.00     0.303 C 
HETATM    9  C   UNL     1     -45.426 -53.812  13.052  1.00  0.00     0.146 C 
HETATM   10  C   UNL     1     -45.275 -55.109  13.847  1.00  0.00     0.041 C 
HETATM   11  O   UNL     1     -46.396 -52.936  13.651  1.00  0.00    -0.378 OA
HETATM   12  C   UNL     1     -45.923 -52.343  14.871  1.00  0.00     0.146 C 
HETATM   13  C   UNL     1     -44.576 -51.617  14.661  1.00  0.00     0.303 C 
HETATM   14  C   UNL     1     -46.996 -51.369  15.346  1.00  0.00     0.041 C 
ENDBRANCH   6   7
ENDBRANCH   5   6
ENDBRANCH   1   5
BRANCH   2  15
HETATM   15  C   UNL     1     -42.209 -47.766  11.170  1.00  0.00     0.250 C 
BRANCH  15  16
HETATM   16  N   UNL     1     -43.097 -47.744  10.031  1.00  0.00    -0.295 N 
HETATM   17  C   UNL     1     -44.426 -47.416  10.033  1.00  0.00     0.112 A 
HETATM   18  C   UNL     1     -44.822 -47.422   8.718  1.00  0.00     0.037 A 
HETATM   19  C   UNL     1     -43.662 -47.764   7.998  1.00  0.00     0.108 A 
HETATM   20  N   UNL     1     -42.609 -47.963   8.795  1.00  0.00    -0.310 N 
ATOM     21  HN  UNL     1     -41.658 -48.222   8.530  1.00  0.00     0.186 HD
ENDBRANCH  15  16
ENDBRANCH   2  15
TORSDOF 5
ENDMDL
MODEL 3
REMARK VINA RESULT:      -5.7      3.637      5.312
REMARK  5 active torsions:
REMARK  status: ('A' for Active; 'I' for Inactive)
REMARK    1  A    between atoms: N_4  and  C_5 
REMARK    2  A    between atoms: C_5  and  C_6 
REMARK    3  A    between atoms: C_6  and  N_7 
REMARK       I    between atoms: N_7  and  C_8 
REMARK    4  A    between atoms: C_8  and  C_10 
REMARK    5  A    between atoms: C_10  and  N_11 
ROOT
HETATM    1  N   UNL     1     -41.983 -49.543  11.433  1.00  0.00    -0.358 N 
HETATM    2  C   UNL     1     -41.188 -48.448  11.172  1.00  0.00     0.237 C 
HETATM    3  O   UNL     1     -40.028 -48.350  11.567  1.00  0.00    -0.272 OA
HETATM    4  H   UNL     1     -42.958 -49.521  11.147  1.00  0.00     0.162 HD
ENDROOT
BRANCH   1   5
HETATM    5  C   UNL     1     -41.506 -50.691  12.186  1.00  0.00     0.152 C 
BRANCH   5   6
HETATM    6  C   UNL     1     -42.173 -50.850  13.568  1.00  0.00     0.292 C 
BRANCH   6   7
HETATM    7  N   UNL     1     -43.260 -51.849  13.594  1.00  0.00     0.095 N 
HETATM    8  C   UNL     1     -42.956 -53.046  12.785  1.00  0.00     0.303 C 
HETATM    9  C   UNL     1     -44.118 -54.062  12.797  1.00  0.00     0.146 C 
HETATM   10  C   UNL     1     -44.303 -54.735  14.157  1.00  0.00     0.041 C 
HETATM   11  O   UNL     1     -45.339 -53.455  12.340  1.00  0.00    -0.378 OA
HETATM   12  C   UNL     1     -45.676 -52.271  13.080  1.00  0.00     0.146 C 
HETATM   13  C   UNL     1     -44.515 -51.252  13.077  1.00  0.00     0.303 C 
HETATM   14  C   UNL     1     -46.923 -51.675  12.436  1.00  0.00     0.041 C 
ENDBRANCH   6   7
ENDBRANCH   5   6
ENDBRANCH   1   5
BRANCH   2  15
HETATM   15  C   UNL     1     -41.835 -47.373  10.335  1.00  0.00     0.250 C 
BRANCH  15  16
HETATM   16  N   UNL     1     -41.205 -46.089  10.543  1.00  0.00    -0.295 N 
HETATM   17  C   UNL     1     -41.708 -45.037  11.258  1.00  0.00     0.112 A 
HETATM   18  C   UNL     1     -40.720 -44.083  11.279  1.00  0.00     0.037 A 
HETATM   19  C   UNL     1     -39.659 -44.654  10.551  1.00  0.00     0.108 A 
HETATM   20  N   UNL     1     -39.953 -45.876  10.098  1.00  0.00    -0.310 N 
ATOM     21  HN  UNL     1     -39.365 -46.501   9.545  1.00  0.00     0.186 HD
ENDBRANCH  15  16
ENDBRANCH   2  15
TORSDOF 5
ENDMDL
MODEL 4
REMARK VINA RESULT:      -5.6      1.196      2.129
REMARK  5 active torsions:
REMARK  status: ('A' for Active; 'I' for Inactive)
REMARK    1  A    between atoms: N_4  and  C_5 
REMARK    2  A    between atoms: C_5  and  C_6 
REMARK    3  A    between atoms: C_6  and  N_7 
REMARK       I    between atoms: N_7  and  C_8 
REMARK    4  A    between atoms: C_8  and  C_10 
REMARK    5  A    between atoms: C_10  and  N_11 
ROOT
HETATM    1  N   UNL     1     -42.694 -48.224  10.276  1.00  0.00    -0.358 N 
HETATM    2  C   UNL     1     -42.788 -46.999   9.653  1.00  0.00     0.237 C 
HETATM    3  O   UNL     1     -42.286 -45.973  10.107  1.00  0.00    -0.272 OA
HETATM    4  H   UNL     1     -43.203 -49.013   9.888  1.00  0.00     0.162 HD
ENDROOT
BRANCH   1   5
HETATM    5  C   UNL     1     -41.969 -48.411  11.522  1.00  0.00     0.152 C 
BRANCH   5   6
HETATM    6  C   UNL     1     -42.123 -49.823  12.126  1.00  0.00     0.292 C 
BRANCH   6   7
HETATM    7  N   UNL     1     -40.839 -50.477  12.448  1.00  0.00     0.095 N 
HETATM    8  C   UNL     1     -40.448 -50.303  13.861  1.00  0.00     0.303 C 
HETATM    9  C   UNL     1     -39.087 -50.963  14.169  1.00  0.00     0.146 C 
HETATM   10  C   UNL     1     -39.146 -52.491  14.125  1.00  0.00     0.041 C 
HETATM   11  O   UNL     1     -38.058 -50.451  13.306  1.00  0.00    -0.378 OA
HETATM   12  C   UNL     1     -38.392 -50.576  11.915  1.00  0.00     0.146 C 
HETATM   13  C   UNL     1     -39.756 -49.922  11.601  1.00  0.00     0.303 C 
HETATM   14  C   UNL     1     -37.275 -49.910  11.119  1.00  0.00     0.041 C 
ENDBRANCH   6   7
ENDBRANCH   5   6
ENDBRANCH   1   5
BRANCH   2  15
HETATM   15  C   UNL     1     -43.538 -47.003   8.343  1.00  0.00     0.250 C 
BRANCH  15  16
HETATM   16  N   UNL     1     -44.856 -47.576   8.490  1.00  0.00    -0.295 N 
HETATM   17  C   UNL     1     -45.837 -47.166   9.351  1.00  0.00     0.112 A 
HETATM   18  C   UNL     1     -46.944 -47.922   9.056  1.00  0.00     0.037 A 
HETATM   19  C   UNL     1     -46.533 -48.760   8.002  1.00  0.00     0.108 A 
HETATM   20  N   UNL     1     -45.259 -48.553   7.656  1.00  0.00    -0.310 N 
ATOM     21  HN  UNL     1     -44.719 -49.026   6.931  1.00  0.00     0.186 HD
ENDBRANCH  15  16
ENDBRANCH   2  15
TORSDOF 5
ENDMDL
MODEL 5
REMARK VINA RESULT:      -5.5      3.349      4.509
REMARK  5 active torsions:
REMARK  status: ('A' for Active; 'I' for Inactive)
REMARK    1  A    between atoms: N_4  and  C_5 
REMARK    2  A    between atoms: C_5  and  C_6 
REMARK    3  A    between atoms: C_6  and  N_7 
REMARK       I    between atoms: N_7  and  C_8 
REMARK    4  A    between atoms: C_8  and  C_10 
REMARK    5  A    between atoms: C_10  and  N_11 
ROOT
HETATM    1  N   UNL     1     -42.399 -49.986  11.948  1.00  0.00    -0.358 N 
HETATM    2  C   UNL     1     -41.416 -49.262  11.309  1.00  0.00     0.237 C 
HETATM    3  O   UNL     1     -40.319 -49.733  11.015  1.00  0.00    -0.272 OA
HETATM    4  H   UNL     1     -43.250 -49.511  12.235  1.00  0.00     0.162 HD
ENDROOT
BRANCH   1   5
HETATM    5  C   UNL     1     -42.228 -51.383  12.311  1.00  0.00     0.152 C 
BRANCH   5   6
HETATM    6  C   UNL     1     -42.448 -51.667  13.813  1.00  0.00     0.292 C 
BRANCH   6   7
HETATM    7  N   UNL     1     -43.082 -52.972  14.086  1.00  0.00     0.095 N 
HETATM    8  C   UNL     1     -44.415 -52.841  14.707  1.00  0.00     0.303 C 
HETATM    9  C   UNL     1     -45.045 -54.216  15.017  1.00  0.00     0.146 C 
HETATM   10  C   UNL     1     -45.446 -54.981  13.755  1.00  0.00     0.041 C 
HETATM   11  O   UNL     1     -44.184 -55.001  15.858  1.00  0.00    -0.378 OA
HETATM   12  C   UNL     1     -42.863 -55.147  15.311  1.00  0.00     0.146 C 
HETATM   13  C   UNL     1     -42.228 -53.774  14.994  1.00  0.00     0.303 C 
HETATM   14  C   UNL     1     -42.030 -55.906  16.338  1.00  0.00     0.041 C 
ENDBRANCH   6   7
ENDBRANCH   5   6
ENDBRANCH   1   5
BRANCH   2  15
HETATM   15  C   UNL     1     -41.787 -47.841  10.966  1.00  0.00     0.250 C 
BRANCH  15  16
HETATM   16  N   UNL     1     -42.842 -47.794   9.980  1.00  0.00    -0.295 N 
HETATM   17  C   UNL     1     -44.130 -47.377  10.177  1.00  0.00     0.112 A 
HETATM   18  C   UNL     1     -44.731 -47.395   8.942  1.00  0.00     0.037 A 
HETATM   19  C   UNL     1     -43.724 -47.836   8.063  1.00  0.00     0.108 A 
HETATM   20  N   UNL     1     -42.571 -48.082   8.693  1.00  0.00    -0.310 N 
ATOM     21  HN  UNL     1     -41.693 -48.412   8.293  1.00  0.00     0.186 HD
ENDBRANCH  15  16
ENDBRANCH   2  15
TORSDOF 5
ENDMDL
MODEL 6
REMARK VINA RESULT:      -5.5      4.142      6.120
REMARK  5 active torsions:
REMARK  status: ('A' for Active; 'I' for Inactive)
REMARK    1  A    between atoms: N_4  and  C_5 
REMARK    2  A    between atoms: C_5  and  C_6 
REMARK    3  A    between atoms: C_6  and  N_7 
REMARK       I    between atoms: N_7  and  C_8 
REMARK    4  A    between atoms: C_8  and  C_10 
REMARK    5  A    between atoms: C_10  and  N_11 
ROOT
HETATM    1  N   UNL     1     -43.230 -54.102  13.653  1.00  0.00    -0.358 N 
HETATM    2  C   UNL     1     -44.118 -54.867  14.378  1.00  0.00     0.237 C 
HETATM    3  O   UNL     1     -43.791 -55.517  15.369  1.00  0.00    -0.272 OA
HETATM    4  H   UNL     1     -43.550 -53.657  12.797  1.00  0.00     0.162 HD
ENDROOT
BRANCH   1   5
HETATM    5  C   UNL     1     -41.828 -53.981  14.015  1.00  0.00     0.152 C 
BRANCH   5   6
HETATM    6  C   UNL     1     -40.871 -53.970  12.804  1.00  0.00     0.292 C 
BRANCH   6   7
HETATM    7  N   UNL     1     -40.161 -52.689  12.617  1.00  0.00     0.095 N 
HETATM    8  C   UNL     1     -39.584 -52.166  13.872  1.00  0.00     0.303 C 
HETATM    9  C   UNL     1     -38.878 -50.810  13.661  1.00  0.00     0.146 C 
HETATM   10  C   UNL     1     -37.593 -50.932  12.841  1.00  0.00     0.041 C 
HETATM   11  O   UNL     1     -39.777 -49.843  13.092  1.00  0.00    -0.378 OA
HETATM   12  C   UNL     1     -40.385 -50.305  11.875  1.00  0.00     0.146 C 
HETATM   13  C   UNL     1     -41.089 -51.665  12.078  1.00  0.00     0.303 C 
HETATM   14  C   UNL     1     -41.381 -49.239  11.434  1.00  0.00     0.041 C 
ENDBRANCH   6   7
ENDBRANCH   5   6
ENDBRANCH   1   5
BRANCH   2  15
HETATM   15  C   UNL     1     -45.543 -54.835  13.884  1.00  0.00     0.250 C 
BRANCH  15  16
HETATM   16  N   UNL     1     -46.068 -53.489  13.871  1.00  0.00    -0.295 N 
HETATM   17  C   UNL     1     -46.330 -52.701  14.958  1.00  0.00     0.112 A 
HETATM   18  C   UNL     1     -46.701 -51.476  14.460  1.00  0.00     0.037 A 
HETATM   19  C   UNL     1     -46.631 -51.624  13.062  1.00  0.00     0.108 A 
HETATM   20  N   UNL     1     -46.248 -52.851  12.699  1.00  0.00    -0.310 N 
ATOM     21  HN  UNL     1     -46.121 -53.218  11.755  1.00  0.00     0.186 HD
ENDBRANCH  15  16
ENDBRANCH   2  15
TORSDOF 5
ENDMDL
MODEL 7
REMARK VINA RESULT:      -5.4      3.591      5.009
REMARK  5 active torsions:
REMARK  status: ('A' for Active; 'I' for Inactive)
REMARK    1  A    between atoms: N_4  and  C_5 
REMARK    2  A    between atoms: C_5  and  C_6 
REMARK    3  A    between atoms: C_6  and  N_7 
REMARK       I    between atoms: N_7  and  C_8 
REMARK    4  A    between atoms: C_8  and  C_10 
REMARK    5  A    between atoms: C_10  and  N_11 
ROOT
HETATM    1  N   UNL     1     -41.712 -50.124  11.476  1.00  0.00    -0.358 N 
HETATM    2  C   UNL     1     -41.053 -48.951  11.176  1.00  0.00     0.237 C 
HETATM    3  O   UNL     1     -39.895 -48.725  11.518  1.00  0.00    -0.272 OA
HETATM    4  H   UNL     1     -42.695 -50.211  11.233  1.00  0.00     0.162 HD
ENDROOT
BRANCH   1   5
HETATM    5  C   UNL     1     -41.079 -51.208  12.208  1.00  0.00     0.152 C 
BRANCH   5   6
HETATM    6  C   UNL     1     -41.860 -52.539  12.149  1.00  0.00     0.292 C 
BRANCH   6   7
HETATM    7  N   UNL     1     -43.129 -52.519  12.904  1.00  0.00     0.095 N 
HETATM    8  C   UNL     1     -42.953 -52.096  14.307  1.00  0.00     0.303 C 
HETATM    9  C   UNL     1     -44.284 -52.117  15.088  1.00  0.00     0.146 C 
HETATM   10  C   UNL     1     -45.255 -51.027  14.632  1.00  0.00     0.041 C 
HETATM   11  O   UNL     1     -44.892 -53.418  15.038  1.00  0.00    -0.378 OA
HETATM   12  C   UNL     1     -45.071 -53.891  13.693  1.00  0.00     0.146 C 
HETATM   13  C   UNL     1     -43.743 -53.868  12.905  1.00  0.00     0.303 C 
HETATM   14  C   UNL     1     -45.625 -55.309  13.782  1.00  0.00     0.041 C 
ENDBRANCH   6   7
ENDBRANCH   5   6
ENDBRANCH   1   5
BRANCH   2  15
HETATM   15  C   UNL     1     -41.851 -47.959  10.366  1.00  0.00     0.250 C 
BRANCH  15  16
HETATM   16  N   UNL     1     -41.411 -46.604  10.608  1.00  0.00    -0.295 N 
HETATM   17  C   UNL     1     -42.067 -45.646  11.331  1.00  0.00     0.112 A 
HETATM   18  C   UNL     1     -41.223 -44.564  11.386  1.00  0.00     0.037 A 
HETATM   19  C   UNL     1     -40.082 -44.967  10.666  1.00  0.00     0.108 A 
HETATM   20  N   UNL     1     -40.194 -46.209  10.188  1.00  0.00    -0.310 N 
ATOM     21  HN  UNL     1     -39.517 -46.735   9.635  1.00  0.00     0.186 HD
ENDBRANCH  15  16
ENDBRANCH   2  15
TORSDOF 5
ENDMDL
MODEL 8
REMARK VINA RESULT:      -5.4      1.873      2.754
REMARK  5 active torsions:
REMARK  status: ('A' for Active; 'I' for Inactive)
REMARK    1  A    between atoms: N_4  and  C_5 
REMARK    2  A    between atoms: C_5  and  C_6 
REMARK    3  A    between atoms: C_6  and  N_7 
REMARK       I    between atoms: N_7  and  C_8 
REMARK    4  A    between atoms: C_8  and  C_10 
REMARK    5  A    between atoms: C_10  and  N_11 
ROOT
HETATM    1  N   UNL     1     -41.452 -46.228  10.145  1.00  0.00    -0.358 N 
HETATM    2  C   UNL     1     -42.788 -46.558  10.072  1.00  0.00     0.237 C 
HETATM    3  O   UNL     1     -43.442 -46.931  11.044  1.00  0.00    -0.272 OA
HETATM    4  H   UNL     1     -40.954 -46.007   9.287  1.00  0.00     0.162 HD
ENDROOT
BRANCH   1   5
HETATM    5  C   UNL     1     -40.705 -46.272  11.390  1.00  0.00     0.152 C 
BRANCH   5   6
HETATM    6  C   UNL     1     -39.691 -47.434  11.467  1.00  0.00     0.292 C 
BRANCH   6   7
HETATM    7  N   UNL     1     -40.191 -48.614  12.200  1.00  0.00     0.095 N 
HETATM    8  C   UNL     1     -40.814 -49.617  11.314  1.00  0.00     0.303 C 
HETATM    9  C   UNL     1     -41.361 -50.825  12.104  1.00  0.00     0.146 C 
HETATM   10  C   UNL     1     -40.253 -51.692  12.702  1.00  0.00     0.041 C 
HETATM   11  O   UNL     1     -42.300 -50.403  13.107  1.00  0.00    -0.378 OA
HETATM   12  C   UNL     1     -41.754 -49.410  13.990  1.00  0.00     0.146 C 
HETATM   13  C   UNL     1     -41.200 -48.200  13.205  1.00  0.00     0.303 C 
HETATM   14  C   UNL     1     -42.872 -48.980  14.933  1.00  0.00     0.041 C 
ENDBRANCH   6   7
ENDBRANCH   5   6
ENDBRANCH   1   5
BRANCH   2  15
HETATM   15  C   UNL     1     -43.412 -46.406   8.707  1.00  0.00     0.250 C 
BRANCH  15  16
HETATM   16  N   UNL     1     -44.742 -46.968   8.667  1.00  0.00    -0.295 N 
HETATM   17  C   UNL     1     -45.102 -48.184   8.155  1.00  0.00     0.112 A 
HETATM   18  C   UNL     1     -46.437 -48.338   8.441  1.00  0.00     0.037 A 
HETATM   19  C   UNL     1     -46.792 -47.161   9.127  1.00  0.00     0.108 A 
HETATM   20  N   UNL     1     -45.761 -46.322   9.264  1.00  0.00    -0.310 N 
ATOM     21  HN  UNL     1     -45.749 -45.407   9.716  1.00  0.00     0.186 HD
ENDBRANCH  15  16
ENDBRANCH   2  15
TORSDOF 5
ENDMDL
MODEL 9
REMARK VINA RESULT:      -5.3      3.672      5.732
REMARK  5 active torsions:
REMARK  status: ('A' for Active; 'I' for Inactive)
REMARK    1  A    between atoms: N_4  and  C_5 
REMARK    2  A    between atoms: C_5  and  C_6 
REMARK    3  A    between atoms: C_6  and  N_7 
REMARK       I    between atoms: N_7  and  C_8 
REMARK    4  A    between atoms: C_8  and  C_10 
REMARK    5  A    between atoms: C_10  and  N_11 
ROOT
HETATM    1  N   UNL     1     -40.395 -51.344  11.782  1.00  0.00    -0.358 N 
HETATM    2  C   UNL     1     -40.741 -50.009  11.772  1.00  0.00     0.237 C 
HETATM    3  O   UNL     1     -41.905 -49.616  11.819  1.00  0.00    -0.272 OA
HETATM    4  H   UNL     1     -39.420 -51.599  11.657  1.00  0.00     0.162 HD
ENDROOT
BRANCH   1   5
HETATM    5  C   UNL     1     -41.385 -52.404  11.874  1.00  0.00     0.152 C 
BRANCH   5   6
HETATM    6  C   UNL     1     -41.497 -53.031  13.280  1.00  0.00     0.292 C 
BRANCH   6   7
HETATM    7  N   UNL     1     -42.886 -53.273  13.716  1.00  0.00     0.095 N 
HETATM    8  C   UNL     1     -43.800 -53.546  12.588  1.00  0.00     0.303 C 
HETATM    9  C   UNL     1     -45.253 -53.761  13.062  1.00  0.00     0.146 C 
HETATM   10  C   UNL     1     -45.436 -55.066  13.837  1.00  0.00     0.041 C 
HETATM   11  O   UNL     1     -45.724 -52.631  13.815  1.00  0.00    -0.378 OA
HETATM   12  C   UNL     1     -44.862 -52.305  14.917  1.00  0.00     0.146 C 
HETATM   13  C   UNL     1     -43.404 -52.094  14.451  1.00  0.00     0.303 C 
HETATM   14  C   UNL     1     -45.413 -51.041  15.565  1.00  0.00     0.041 C 
ENDBRANCH   6   7
ENDBRANCH   5   6
ENDBRANCH   1   5
BRANCH   2  15
HETATM   15  C   UNL     1     -39.580 -49.048  11.722  1.00  0.00     0.250 C 
BRANCH  15  16
HETATM   16  N   UNL     1     -40.030 -47.679  11.619  1.00  0.00    -0.295 N 
HETATM   17  C   UNL     1     -39.801 -46.671  12.516  1.00  0.00     0.112 A 
HETATM   18  C   UNL     1     -40.313 -45.531  11.947  1.00  0.00     0.037 A 
HETATM   19  C   UNL     1     -40.829 -45.952  10.707  1.00  0.00     0.108 A 
HETATM   20  N   UNL     1     -40.661 -47.262  10.505  1.00  0.00    -0.310 N 
ATOM     21  HN  UNL     1     -40.944 -47.817   9.696  1.00  0.00     0.186 HD
ENDBRANCH  15  16
ENDBRANCH   2  15
TORSDOF 5
ENDMDL
