MODEL 1
REMARK VINA RESULT:      -5.6      0.000      0.000
REMARK  4 active torsions:
REMARK  status: ('A' for Active; 'I' for Inactive)
REMARK       I    between atoms: C_2  and  N_3 
REMARK       I    between atoms: C_2  and  N_7 
REMARK    1  A    between atoms: N_3  and  C_4 
REMARK    2  A    between atoms: N_7  and  C_8 
REMARK    3  A    between atoms: C_11  and  N_12 
REMARK       I    between atoms: N_12  and  C_13 
REMARK    4  A    between atoms: C_13  and  C_15 
ROOT
HETATM    1  C   UNL     1     -40.238 -50.596  11.819  1.00  0.00     0.051 A 
HETATM    2  C   UNL     1     -39.097 -50.337  12.571  1.00  0.00     0.035 A 
HETATM    3  C   UNL     1     -38.702 -51.230  13.575  1.00  0.00     0.051 A 
HETATM    4  C   UNL     1     -39.447 -52.381  13.798  1.00  0.00     0.107 A 
HETATM    5  N   UNL     1     -40.546 -52.654  13.077  1.00  0.00    -0.350 N 
ATOM      6  HN  UNL     1     -41.086 -53.502  13.246  1.00  0.00     0.166 HD
HETATM    7  C   UNL     1     -40.918 -51.771  12.120  1.00  0.00     0.119 A 
ENDROOT
BRANCH   1   8
HETATM    8  N   UNL     1     -40.732 -49.758  10.795  1.00  0.00    -0.308 N 
HETATM    9  C   UNL     1     -41.726 -48.808  10.909  1.00  0.00     0.321 C 
HETATM   10  O   UNL     1     -42.370 -48.558  11.921  1.00  0.00    -0.247 OA
HETATM   11  N   UNL     1     -41.944 -48.146   9.711  1.00  0.00    -0.338 N 
HETATM   12  H   UNL     1     -41.186 -48.133   9.045  1.00  0.00     0.164 HD
HETATM   13  H   UNL     1     -40.373 -49.920   9.865  1.00  0.00     0.170 HD
BRANCH  11  14
HETATM   14  C   UNL     1     -42.890 -47.073   9.639  1.00  0.00     0.086 A 
HETATM   15  C   UNL     1     -44.289 -47.320   9.145  1.00  0.00     0.027 A 
HETATM   16  C   UNL     1     -43.334 -46.510   8.318  1.00  0.00     0.027 A 
ENDBRANCH  11  14
ENDBRANCH   1   8
BRANCH   4  17
HETATM   17  N   UNL     1     -39.009 -53.254  14.803  1.00  0.00    -0.313 N 
HETATM   18  C   UNL     1     -38.924 -54.622  14.680  1.00  0.00     0.227 C 
HETATM   19  O   UNL     1     -39.207 -55.301  13.704  1.00  0.00    -0.273 OA
HETATM   20  H   UNL     1     -38.746 -52.838  15.680  1.00  0.00     0.170 HD
BRANCH  18  21
HETATM   21  C   UNL     1     -38.425 -55.356  15.887  1.00  0.00     0.078 A 
HETATM   22  C   UNL     1     -39.415 -56.092  16.762  1.00  0.00     0.015 A 
HETATM   23  C   UNL     1     -38.608 -54.961  17.332  1.00  0.00     0.015 A 
ENDBRANCH  18  21
ENDBRANCH   4  17
TORSDOF 4
ENDMDL
MODEL 2
REMARK VINA RESULT:      -5.5      4.540      8.612
REMARK  4 active torsions:
REMARK  status: ('A' for Active; 'I' for Inactive)
REMARK       I    between atoms: C_2  and  N_3 
REMARK       I    between atoms: C_2  and  N_7 
REMARK    1  A    between atoms: N_3  and  C_4 
REMARK    2  A    between atoms: N_7  and  C_8 
REMARK    3  A    between atoms: C_11  and  N_12 
REMARK       I    between atoms: N_12  and  C_13 
REMARK    4  A    between atoms: C_13  and  C_15 
ROOT
HETATM    1  C   UNL     1     -40.571 -47.454  12.771  1.00  0.00     0.051 A 
HETATM    2  C   UNL     1     -41.840 -47.512  13.337  1.00  0.00     0.035 A 
HETATM    3  C   UNL     1     -42.964 -47.691  12.521  1.00  0.00     0.051 A 
HETATM    4  C   UNL     1     -42.797 -47.828  11.149  1.00  0.00     0.107 A 
HETATM    5  N   UNL     1     -41.580 -47.783  10.584  1.00  0.00    -0.350 N 
ATOM      6  HN  UNL     1     -41.466 -47.886   9.576  1.00  0.00     0.166 HD
HETATM    7  C   UNL     1     -40.508 -47.597  11.389  1.00  0.00     0.119 A 
ENDROOT
BRANCH   1   8
HETATM    8  N   UNL     1     -39.375 -47.264  13.499  1.00  0.00    -0.308 N 
HETATM    9  C   UNL     1     -38.721 -48.197  14.275  1.00  0.00     0.321 C 
HETATM   10  O   UNL     1     -39.093 -49.346  14.488  1.00  0.00    -0.247 OA
HETATM   11  N   UNL     1     -37.559 -47.682  14.828  1.00  0.00    -0.338 N 
HETATM   12  H   UNL     1     -37.131 -46.898  14.359  1.00  0.00     0.164 HD
HETATM   13  H   UNL     1     -38.999 -46.327  13.513  1.00  0.00     0.170 HD
BRANCH  11  14
HETATM   14  C   UNL     1     -36.698 -48.517  15.613  1.00  0.00     0.086 A 
HETATM   15  C   UNL     1     -36.804 -48.527  17.113  1.00  0.00     0.027 A 
HETATM   16  C   UNL     1     -35.595 -47.933  16.451  1.00  0.00     0.027 A 
ENDBRANCH  11  14
ENDBRANCH   1   8
BRANCH   4  17
HETATM   17  N   UNL     1     -43.947 -48.018  10.370  1.00  0.00    -0.313 N 
HETATM   18  C   UNL     1     -44.242 -47.330   9.215  1.00  0.00     0.227 C 
HETATM   19  O   UNL     1     -43.577 -46.458   8.678  1.00  0.00    -0.273 OA
HETATM   20  H   UNL     1     -44.604 -48.707  10.695  1.00  0.00     0.170 HD
BRANCH  18  21
HETATM   21  C   UNL     1     -45.529 -47.701   8.546  1.00  0.00     0.078 A 
HETATM   22  C   UNL     1     -46.817 -47.067   9.024  1.00  0.00     0.015 A 
HETATM   23  C   UNL     1     -46.637 -48.556   9.114  1.00  0.00     0.015 A 
ENDBRANCH  18  21
ENDBRANCH   4  17
TORSDOF 4
ENDMDL
MODEL 3
REMARK VINA RESULT:      -5.5      1.171      8.475
REMARK  4 active torsions:
REMARK  status: ('A' for Active; 'I' for Inactive)
REMARK       I    between atoms: C_2  and  N_3 
REMARK       I    between atoms: C_2  and  N_7 
REMARK    1  A    between atoms: N_3  and  C_4 
REMARK    2  A    between atoms: N_7  and  C_8 
REMARK    3  A    between atoms: C_11  and  N_12 
REMARK       I    between atoms: N_12  and  C_13 
REMARK    4  A    between atoms: C_13  and  C_15 
ROOT
HETATM    1  C   UNL     1     -40.361 -51.187  13.339  1.00  0.00     0.051 A 
HETATM    2  C   UNL     1     -39.561 -50.545  12.400  1.00  0.00     0.035 A 
HETATM    3  C   UNL     1     -40.146 -49.745  11.411  1.00  0.00     0.051 A 
HETATM    4  C   UNL     1     -41.526 -49.585  11.389  1.00  0.00     0.107 A 
HETATM    5  N   UNL     1     -42.315 -50.189  12.291  1.00  0.00    -0.350 N 
ATOM      6  HN  UNL     1     -43.327 -50.064  12.269  1.00  0.00     0.166 HD
HETATM    7  C   UNL     1     -41.730 -50.968  13.232  1.00  0.00     0.119 A 
ENDROOT
BRANCH   1   8
HETATM    8  N   UNL     1     -39.877 -52.025  14.368  1.00  0.00    -0.308 N 
HETATM    9  C   UNL     1     -39.582 -53.369  14.271  1.00  0.00     0.321 C 
HETATM   10  O   UNL     1     -39.725 -54.068  13.275  1.00  0.00    -0.247 OA
HETATM   11  N   UNL     1     -39.102 -53.877  15.468  1.00  0.00    -0.338 N 
HETATM   12  H   UNL     1     -38.683 -53.224  16.113  1.00  0.00     0.164 HD
HETATM   13  H   UNL     1     -39.810 -51.618  15.289  1.00  0.00     0.170 HD
BRANCH  11  14
HETATM   14  C   UNL     1     -38.672 -55.241  15.556  1.00  0.00     0.086 A 
HETATM   15  C   UNL     1     -39.139 -56.118  16.684  1.00  0.00     0.027 A 
HETATM   16  C   UNL     1     -37.703 -55.689  16.613  1.00  0.00     0.027 A 
ENDBRANCH  11  14
ENDBRANCH   1   8
BRANCH   4  17
HETATM   17  N   UNL     1     -42.069 -48.765  10.389  1.00  0.00    -0.313 N 
HETATM   18  C   UNL     1     -42.867 -47.667  10.616  1.00  0.00     0.227 C 
HETATM   19  O   UNL     1     -43.236 -47.224  11.693  1.00  0.00    -0.273 OA
HETATM   20  H   UNL     1     -41.858 -49.012   9.438  1.00  0.00     0.170 HD
BRANCH  18  21
HETATM   21  C   UNL     1     -43.333 -46.937   9.394  1.00  0.00     0.078 A 
HETATM   22  C   UNL     1     -44.745 -47.157   8.899  1.00  0.00     0.015 A 
HETATM   23  C   UNL     1     -43.580 -47.521   8.024  1.00  0.00     0.015 A 
ENDBRANCH  18  21
ENDBRANCH   4  17
TORSDOF 4
ENDMDL
MODEL 4
REMARK VINA RESULT:      -5.4      3.147      3.682
REMARK  4 active torsions:
REMARK  status: ('A' for Active; 'I' for Inactive)
REMARK       I    between atoms: C_2  and  N_3 
REMARK       I    between atoms: C_2  and  N_7 
REMARK    1  A    between atoms: N_3  and  C_4 
REMARK    2  A    between atoms: N_7  and  C_8 
REMARK    3  A    between atoms: C_11  and  N_12 
REMARK       I    between atoms: N_12  and  C_13 
REMARK    4  A    between atoms: C_13  and  C_15 
ROOT
HETATM    1  C   UNL     1     -39.659 -49.691  11.729  1.00  0.00     0.051 A 
HETATM    2  C   UNL     1     -39.669 -50.920  12.380  1.00  0.00     0.035 A 
HETATM    3  C   UNL     1     -38.734 -51.186  13.388  1.00  0.00     0.051 A 
HETATM    4  C   UNL     1     -37.813 -50.208  13.742  1.00  0.00     0.107 A 
HETATM    5  N   UNL     1     -37.792 -49.013  13.131  1.00  0.00    -0.350 N 
ATOM      6  HN  UNL     1     -37.114 -48.300  13.398  1.00  0.00     0.166 HD
HETATM    7  C   UNL     1     -38.697 -48.780  12.151  1.00  0.00     0.119 A 
ENDROOT
BRANCH   1   8
HETATM    8  N   UNL     1     -40.546 -49.325  10.692  1.00  0.00    -0.308 N 
HETATM    9  C   UNL     1     -41.660 -48.520  10.802  1.00  0.00     0.321 C 
HETATM   10  O   UNL     1     -42.084 -48.013  11.833  1.00  0.00    -0.247 OA
HETATM   11  N   UNL     1     -42.290 -48.345   9.579  1.00  0.00    -0.338 N 
HETATM   12  H   UNL     1     -41.731 -48.473   8.749  1.00  0.00     0.164 HD
HETATM   13  H   UNL     1     -40.392 -49.756   9.792  1.00  0.00     0.170 HD
BRANCH  11  14
HETATM   14  C   UNL     1     -43.429 -47.484   9.468  1.00  0.00     0.086 A 
HETATM   15  C   UNL     1     -44.383 -47.624   8.314  1.00  0.00     0.027 A 
HETATM   16  C   UNL     1     -43.501 -46.414   8.415  1.00  0.00     0.027 A 
ENDBRANCH  11  14
ENDBRANCH   1   8
BRANCH   4  17
HETATM   17  N   UNL     1     -36.904 -50.512  14.765  1.00  0.00    -0.313 N 
HETATM   18  C   UNL     1     -36.556 -49.663  15.790  1.00  0.00     0.227 C 
HETATM   19  O   UNL     1     -36.962 -48.528  15.987  1.00  0.00    -0.273 OA
HETATM   20  H   UNL     1     -36.474 -51.421  14.732  1.00  0.00     0.170 HD
BRANCH  18  21
HETATM   21  C   UNL     1     -35.563 -50.201  16.774  1.00  0.00     0.078 A 
HETATM   22  C   UNL     1     -36.052 -51.064  17.916  1.00  0.00     0.015 A 
HETATM   23  C   UNL     1     -35.367 -49.759  18.204  1.00  0.00     0.015 A 
ENDBRANCH  18  21
ENDBRANCH   4  17
TORSDOF 4
ENDMDL
MODEL 5
REMARK VINA RESULT:      -5.3      4.113      6.006
REMARK  4 active torsions:
REMARK  status: ('A' for Active; 'I' for Inactive)
REMARK       I    between atoms: C_2  and  N_3 
REMARK       I    between atoms: C_2  and  N_7 
REMARK    1  A    between atoms: N_3  and  C_4 
REMARK    2  A    between atoms: N_7  and  C_8 
REMARK    3  A    between atoms: C_11  and  N_12 
REMARK       I    between atoms: N_12  and  C_13 
REMARK    4  A    between atoms: C_13  and  C_15 
ROOT
HETATM    1  C   UNL     1     -40.947 -45.739  10.787  1.00  0.00     0.051 A 
HETATM    2  C   UNL     1     -42.153 -46.341  10.446  1.00  0.00     0.035 A 
HETATM    3  C   UNL     1     -42.284 -47.733  10.510  1.00  0.00     0.051 A 
HETATM    4  C   UNL     1     -41.208 -48.502  10.934  1.00  0.00     0.107 A 
HETATM    5  N   UNL     1     -40.038 -47.940  11.275  1.00  0.00    -0.350 N 
ATOM      6  HN  UNL     1     -39.253 -48.512  11.587  1.00  0.00     0.166 HD
HETATM    7  C   UNL     1     -39.928 -46.593  11.194  1.00  0.00     0.119 A 
ENDROOT
BRANCH   1   8
HETATM    8  N   UNL     1     -40.703 -44.348  10.744  1.00  0.00    -0.308 N 
HETATM    9  C   UNL     1     -41.087 -43.411  11.681  1.00  0.00     0.321 C 
HETATM   10  O   UNL     1     -41.737 -43.632  12.696  1.00  0.00    -0.247 OA
HETATM   11  N   UNL     1     -40.661 -42.138  11.339  1.00  0.00    -0.338 N 
HETATM   12  H   UNL     1     -39.865 -42.066  10.722  1.00  0.00     0.164 HD
HETATM   13  H   UNL     1     -40.268 -43.990   9.907  1.00  0.00     0.170 HD
BRANCH  11  14
HETATM   14  C   UNL     1     -40.900 -41.033  12.219  1.00  0.00     0.086 A 
HETATM   15  C   UNL     1     -40.381 -39.662  11.883  1.00  0.00     0.027 A 
HETATM   16  C   UNL     1     -39.791 -40.426  13.032  1.00  0.00     0.027 A 
ENDBRANCH  11  14
ENDBRANCH   1   8
BRANCH   4  17
HETATM   17  N   UNL     1     -41.386 -49.891  10.996  1.00  0.00    -0.313 N 
HETATM   18  C   UNL     1     -41.000 -50.691  12.047  1.00  0.00     0.227 C 
HETATM   19  O   UNL     1     -40.448 -50.347  13.081  1.00  0.00    -0.273 OA
HETATM   20  H   UNL     1     -41.826 -50.327  10.202  1.00  0.00     0.170 HD
BRANCH  18  21
HETATM   21  C   UNL     1     -41.294 -52.152  11.896  1.00  0.00     0.078 A 
HETATM   22  C   UNL     1     -42.629 -52.687  12.364  1.00  0.00     0.015 A 
HETATM   23  C   UNL     1     -41.361 -53.185  12.995  1.00  0.00     0.015 A 
ENDBRANCH  18  21
ENDBRANCH   4  17
TORSDOF 4
ENDMDL
MODEL 6
REMARK VINA RESULT:      -5.2      3.171      4.176
REMARK  4 active torsions:
REMARK  status: ('A' for Active; 'I' for Inactive)
REMARK       I    between atoms: C_2  and  N_3 
REMARK       I    between atoms: C_2  and  N_7 
REMARK    1  A    between atoms: N_3  and  C_4 
REMARK    2  A    between atoms: N_7  and  C_8 
REMARK    3  A    between atoms: C_11  and  N_12 
REMARK       I    between atoms: N_12  and  C_13 
REMARK    4  A    between atoms: C_13  and  C_15 
ROOT
HETATM    1  C   UNL     1     -40.508 -47.423  11.252  1.00  0.00     0.051 A 
HETATM    2  C   UNL     1     -39.493 -47.879  12.086  1.00  0.00     0.035 A 
HETATM    3  C   UNL     1     -39.401 -49.241  12.398  1.00  0.00     0.051 A 
HETATM    4  C   UNL     1     -40.319 -50.130  11.853  1.00  0.00     0.107 A 
HETATM    5  N   UNL     1     -41.300 -49.712  11.039  1.00  0.00    -0.350 N 
ATOM      6  HN  UNL     1     -41.968 -50.372  10.642  1.00  0.00     0.166 HD
HETATM    7  C   UNL     1     -41.379 -48.389  10.760  1.00  0.00     0.119 A 
ENDROOT
BRANCH   1   8
HETATM    8  N   UNL     1     -40.699 -46.072  10.885  1.00  0.00    -0.308 N 
HETATM    9  C   UNL     1     -41.249 -45.073  11.661  1.00  0.00     0.321 C 
HETATM   10  O   UNL     1     -41.694 -45.205  12.795  1.00  0.00    -0.247 OA
HETATM   11  N   UNL     1     -41.263 -43.857  10.998  1.00  0.00    -0.338 N 
HETATM   12  H   UNL     1     -40.594 -43.728  10.253  1.00  0.00     0.164 HD
HETATM   13  H   UNL     1     -40.481 -45.828   9.930  1.00  0.00     0.170 HD
BRANCH  11  14
HETATM   14  C   UNL     1     -41.731 -42.676  11.660  1.00  0.00     0.086 A 
HETATM   15  C   UNL     1     -41.935 -41.399  10.893  1.00  0.00     0.027 A 
HETATM   16  C   UNL     1     -40.825 -41.501  11.898  1.00  0.00     0.027 A 
ENDBRANCH  11  14
ENDBRANCH   1   8
BRANCH   4  17
HETATM   17  N   UNL     1     -40.182 -51.487  12.182  1.00  0.00    -0.313 N 
HETATM   18  C   UNL     1     -41.223 -52.380  12.295  1.00  0.00     0.227 C 
HETATM   19  O   UNL     1     -42.414 -52.160  12.137  1.00  0.00    -0.273 OA
HETATM   20  H   UNL     1     -39.248 -51.819  12.352  1.00  0.00     0.170 HD
BRANCH  18  21
HETATM   21  C   UNL     1     -40.841 -53.783  12.655  1.00  0.00     0.078 A 
HETATM   22  C   UNL     1     -41.230 -54.327  14.011  1.00  0.00     0.015 A 
HETATM   23  C   UNL     1     -39.780 -54.214  13.639  1.00  0.00     0.015 A 
ENDBRANCH  18  21
ENDBRANCH   4  17
TORSDOF 4
ENDMDL
MODEL 7
REMARK VINA RESULT:      -5.2      3.547      9.145
REMARK  4 active torsions:
REMARK  status: ('A' for Active; 'I' for Inactive)
REMARK       I    between atoms: C_2  and  N_3 
REMARK       I    between atoms: C_2  and  N_7 
REMARK    1  A    between atoms: N_3  and  C_4 
REMARK    2  A    between atoms: N_7  and  C_8 
REMARK    3  A    between atoms: C_11  and  N_12 
REMARK       I    between atoms: N_12  and  C_13 
REMARK    4  A    between atoms: C_13  and  C_15 
ROOT
HETATM    1  C   UNL     1     -42.075 -48.215  11.428  1.00  0.00     0.051 A 
HETATM    2  C   UNL     1     -41.225 -47.331  10.773  1.00  0.00     0.035 A 
HETATM    3  C   UNL     1     -41.406 -45.949  10.917  1.00  0.00     0.051 A 
HETATM    4  C   UNL     1     -42.426 -45.475  11.731  1.00  0.00     0.107 A 
HETATM    5  N   UNL     1     -43.252 -46.311  12.378  1.00  0.00    -0.350 N 
ATOM      6  HN  UNL     1     -43.997 -45.954  12.975  1.00  0.00     0.166 HD
HETATM    7  C   UNL     1     -43.068 -47.643  12.216  1.00  0.00     0.119 A 
ENDROOT
BRANCH   1   8
HETATM    8  N   UNL     1     -41.990 -49.623  11.342  1.00  0.00    -0.308 N 
HETATM    9  C   UNL     1     -41.178 -50.451  12.090  1.00  0.00     0.321 C 
HETATM   10  O   UNL     1     -40.368 -50.092  12.936  1.00  0.00    -0.247 OA
HETATM   11  N   UNL     1     -41.367 -51.785  11.765  1.00  0.00    -0.338 N 
HETATM   12  H   UNL     1     -42.251 -52.039  11.350  1.00  0.00     0.164 HD
HETATM   13  H   UNL     1     -42.523 -50.064  10.607  1.00  0.00     0.170 HD
BRANCH  11  14
HETATM   14  C   UNL     1     -40.667 -52.810  12.479  1.00  0.00     0.086 A 
HETATM   15  C   UNL     1     -41.326 -54.132  12.760  1.00  0.00     0.027 A 
HETATM   16  C   UNL     1     -41.043 -53.180  13.886  1.00  0.00     0.027 A 
ENDBRANCH  11  14
ENDBRANCH   1   8
BRANCH   4  17
HETATM   17  N   UNL     1     -42.564 -44.085  11.856  1.00  0.00    -0.313 N 
HETATM   18  C   UNL     1     -43.136 -43.260  10.915  1.00  0.00     0.227 C 
HETATM   19  O   UNL     1     -43.611 -43.579   9.836  1.00  0.00    -0.273 OA
HETATM   20  H   UNL     1     -42.206 -43.669  12.699  1.00  0.00     0.170 HD
BRANCH  18  21
HETATM   21  C   UNL     1     -43.177 -41.804  11.263  1.00  0.00     0.078 A 
HETATM   22  C   UNL     1     -41.934 -40.965  11.068  1.00  0.00     0.015 A 
HETATM   23  C   UNL     1     -42.517 -41.131  12.442  1.00  0.00     0.015 A 
ENDBRANCH  18  21
ENDBRANCH   4  17
TORSDOF 4
ENDMDL
MODEL 8
REMARK VINA RESULT:      -5.2      3.106      4.185
REMARK  4 active torsions:
REMARK  status: ('A' for Active; 'I' for Inactive)
REMARK       I    between atoms: C_2  and  N_3 
REMARK       I    between atoms: C_2  and  N_7 
REMARK    1  A    between atoms: N_3  and  C_4 
REMARK    2  A    between atoms: N_7  and  C_8 
REMARK    3  A    between atoms: C_11  and  N_12 
REMARK       I    between atoms: N_12  and  C_13 
REMARK    4  A    between atoms: C_13  and  C_15 
ROOT
HETATM    1  C   UNL     1     -42.656 -47.725  11.868  1.00  0.00     0.051 A 
HETATM    2  C   UNL     1     -43.123 -48.317  13.036  1.00  0.00     0.035 A 
HETATM    3  C   UNL     1     -42.848 -49.665  13.297  1.00  0.00     0.051 A 
HETATM    4  C   UNL     1     -42.092 -50.396  12.390  1.00  0.00     0.107 A 
HETATM    5  N   UNL     1     -41.625 -49.841  11.260  1.00  0.00    -0.350 N 
ATOM      6  HN  UNL     1     -41.069 -50.385  10.601  1.00  0.00     0.166 HD
HETATM    7  C   UNL     1     -41.913 -48.540  11.021  1.00  0.00     0.119 A 
ENDROOT
BRANCH   1   8
HETATM    8  N   UNL     1     -42.887 -46.380  11.501  1.00  0.00    -0.308 N 
HETATM    9  C   UNL     1     -42.387 -45.255  12.123  1.00  0.00     0.321 C 
HETATM   10  O   UNL     1     -41.679 -45.239  13.124  1.00  0.00    -0.247 OA
HETATM   11  N   UNL     1     -42.792 -44.093  11.486  1.00  0.00    -0.338 N 
HETATM   12  H   UNL     1     -43.054 -44.166  10.514  1.00  0.00     0.164 HD
HETATM   13  H   UNL     1     -43.546 -46.222  10.753  1.00  0.00     0.170 HD
BRANCH  11  14
HETATM   14  C   UNL     1     -42.322 -42.817  11.937  1.00  0.00     0.086 A 
HETATM   15  C   UNL     1     -42.194 -41.667  10.977  1.00  0.00     0.027 A 
HETATM   16  C   UNL     1     -40.963 -42.304  11.551  1.00  0.00     0.027 A 
ENDBRANCH  11  14
ENDBRANCH   1   8
BRANCH   4  17
HETATM   17  N   UNL     1     -41.830 -51.739  12.696  1.00  0.00    -0.313 N 
HETATM   18  C   UNL     1     -40.580 -52.313  12.721  1.00  0.00     0.227 C 
HETATM   19  O   UNL     1     -39.508 -51.775  12.487  1.00  0.00    -0.273 OA
HETATM   20  H   UNL     1     -42.624 -52.319  12.905  1.00  0.00     0.170 HD
BRANCH  18  21
HETATM   21  C   UNL     1     -40.537 -53.767  13.078  1.00  0.00     0.078 A 
HETATM   22  C   UNL     1     -40.862 -54.188  14.494  1.00  0.00     0.015 A 
HETATM   23  C   UNL     1     -39.501 -54.467  13.923  1.00  0.00     0.015 A 
ENDBRANCH  18  21
ENDBRANCH   4  17
TORSDOF 4
ENDMDL
MODEL 9
REMARK VINA RESULT:      -5.1      4.570      9.559
REMARK  4 active torsions:
REMARK  status: ('A' for Active; 'I' for Inactive)
REMARK       I    between atoms: C_2  and  N_3 
REMARK       I    between atoms: C_2  and  N_7 
REMARK    1  A    between atoms: N_3  and  C_4 
REMARK    2  A    between atoms: N_7  and  C_8 
REMARK    3  A    between atoms: C_11  and  N_12 
REMARK       I    between atoms: N_12  and  C_13 
REMARK    4  A    between atoms: C_13  and  C_15 
ROOT
HETATM    1  C   UNL     1     -41.006 -46.619  10.819  1.00  0.00     0.051 A 
HETATM    2  C   UNL     1     -42.167 -45.867  10.964  1.00  0.00     0.035 A 
HETATM    3  C   UNL     1     -42.086 -44.478  11.122  1.00  0.00     0.051 A 
HETATM    4  C   UNL     1     -40.842 -43.860  11.115  1.00  0.00     0.107 A 
HETATM    5  N   UNL     1     -39.711 -44.567  10.968  1.00  0.00    -0.350 N 
ATOM      6  HN  UNL     1     -38.801 -44.106  10.961  1.00  0.00     0.166 HD
HETATM    7  C   UNL     1     -39.810 -45.911  10.828  1.00  0.00     0.119 A 
ENDROOT
BRANCH   1   8
HETATM    8  N   UNL     1     -40.973 -48.023  10.666  1.00  0.00    -0.308 N 
HETATM    9  C   UNL     1     -40.663 -48.954  11.636  1.00  0.00     0.321 C 
HETATM   10  O   UNL     1     -40.330 -48.710  12.790  1.00  0.00    -0.247 OA
HETATM   11  N   UNL     1     -40.753 -50.250  11.152  1.00  0.00    -0.338 N 
HETATM   12  H   UNL     1     -41.348 -50.404  10.351  1.00  0.00     0.164 HD
HETATM   13  H   UNL     1     -41.119 -48.380   9.734  1.00  0.00     0.170 HD
BRANCH  11  14
HETATM   14  C   UNL     1     -40.536 -51.366  12.023  1.00  0.00     0.086 A 
HETATM   15  C   UNL     1     -41.243 -52.671  11.783  1.00  0.00     0.027 A 
HETATM   16  C   UNL     1     -41.600 -51.833  12.976  1.00  0.00     0.027 A 
ENDBRANCH  11  14
ENDBRANCH   1   8
BRANCH   4  17
HETATM   17  N   UNL     1     -40.808 -42.467  11.264  1.00  0.00    -0.313 N 
HETATM   18  C   UNL     1     -40.171 -41.797  12.283  1.00  0.00     0.227 C 
HETATM   19  O   UNL     1     -39.543 -42.279  13.213  1.00  0.00    -0.273 OA
HETATM   20  H   UNL     1     -41.296 -41.926  10.570  1.00  0.00     0.170 HD
BRANCH  18  21
HETATM   21  C   UNL     1     -40.265 -40.303  12.240  1.00  0.00     0.078 A 
HETATM   22  C   UNL     1     -41.431 -39.618  12.919  1.00  0.00     0.015 A 
HETATM   23  C   UNL     1     -41.238 -39.475  11.436  1.00  0.00     0.015 A 
ENDBRANCH  18  21
ENDBRANCH   4  17
TORSDOF 4
ENDMDL
