MODEL 1
REMARK VINA RESULT:      -5.5      0.000      0.000
REMARK  6 active torsions:
REMARK  status: ('A' for Active; 'I' for Inactive)
REMARK    1  A    between atoms: C_2  and  N_3 
REMARK    2  A    between atoms: C_2  and  C_12 
REMARK    3  A    between atoms: N_3  and  C_4 
REMARK    4  A    between atoms: C_4  and  C_5 
REMARK    5  A    between atoms: C_5  and  N_6 
REMARK       I    between atoms: C_12  and  N_14 
REMARK    6  A    between atoms: N_14  and  C_15 
ROOT
HETATM    1  C   UNL     1     -42.748 -47.748  12.963  1.00  0.00     0.053 C 
HETATM    2  C   UNL     1     -41.967 -48.307  11.775  1.00  0.00     0.307 C 
ENDROOT
BRANCH   2   3
HETATM    3  N   UNL     1     -42.226 -49.760  11.635  1.00  0.00     0.098 N 
HETATM    4  H   UNL     1     -41.882 -50.026  10.704  1.00  0.00     0.317 HD
BRANCH   3   5
HETATM    5  C   UNL     1     -41.482 -50.582  12.615  1.00  0.00     0.292 C 
BRANCH   5   6
HETATM    6  C   UNL     1     -41.285 -52.038  12.199  1.00  0.00     0.178 C 
BRANCH   6   7
HETATM    7  N   UNL     1     -42.329 -52.900  12.717  1.00  0.00    -0.302 N 
HETATM    8  C   UNL     1     -42.275 -53.677  13.837  1.00  0.00     0.111 A 
HETATM    9  C   UNL     1     -43.464 -54.366  13.878  1.00  0.00     0.037 A 
HETATM   10  C   UNL     1     -44.168 -53.934  12.739  1.00  0.00     0.108 A 
HETATM   11  N   UNL     1     -43.478 -53.042  12.026  1.00  0.00    -0.310 N 
ATOM     12  HN  UNL     1     -43.755 -52.577  11.162  1.00  0.00     0.186 HD
ENDBRANCH   6   7
ENDBRANCH   5   6
ENDBRANCH   3   5
ENDBRANCH   2   3
BRANCH   2  13
HETATM   13  C   UNL     1     -42.423 -47.543  10.519  1.00  0.00     0.251 C 
HETATM   14  O   UNL     1     -41.736 -46.652  10.022  1.00  0.00    -0.271 OA
HETATM   15  N   UNL     1     -43.635 -47.968  10.009  1.00  0.00    -0.351 N 
HETATM   16  H   UNL     1     -44.156 -48.661  10.529  1.00  0.00     0.163 HD
BRANCH  15  17
HETATM   17  C   UNL     1     -44.286 -47.366   8.838  1.00  0.00     0.022 C 
HETATM   18  C   UNL     1     -43.572 -47.796   7.547  1.00  0.00     0.037 C 
HETATM   19  C   UNL     1     -45.741 -47.867   8.773  1.00  0.00     0.037 C 
HETATM   20  C   UNL     1     -44.312 -45.834   8.955  1.00  0.00     0.037 C 
ENDBRANCH  15  17
ENDBRANCH   2  13
TORSDOF 6
ENDMDL
MODEL 2
REMARK VINA RESULT:      -5.4      1.525      1.920
REMARK  6 active torsions:
REMARK  status: ('A' for Active; 'I' for Inactive)
REMARK    1  A    between atoms: C_2  and  N_3 
REMARK    2  A    between atoms: C_2  and  C_12 
REMARK    3  A    between atoms: N_3  and  C_4 
REMARK    4  A    between atoms: C_4  and  C_5 
REMARK    5  A    between atoms: C_5  and  N_6 
REMARK       I    between atoms: C_12  and  N_14 
REMARK    6  A    between atoms: N_14  and  C_15 
ROOT
HETATM    1  C   UNL     1     -39.092 -49.571  12.245  1.00  0.00     0.053 C 
HETATM    2  C   UNL     1     -40.035 -49.769  11.060  1.00  0.00     0.307 C 
ENDROOT
BRANCH   2   3
HETATM    3  N   UNL     1     -40.689 -51.097  11.148  1.00  0.00     0.098 N 
HETATM    4  H   UNL     1     -40.130 -51.733  10.566  1.00  0.00     0.317 HD
BRANCH   3   5
HETATM    5  C   UNL     1     -40.684 -51.659  12.517  1.00  0.00     0.292 C 
BRANCH   5   6
HETATM    6  C   UNL     1     -40.929 -53.165  12.584  1.00  0.00     0.178 C 
BRANCH   6   7
HETATM    7  N   UNL     1     -42.312 -53.481  12.879  1.00  0.00    -0.302 N 
HETATM    8  C   UNL     1     -42.783 -54.214  13.929  1.00  0.00     0.111 A 
HETATM    9  C   UNL     1     -44.143 -54.305  13.748  1.00  0.00     0.037 A 
HETATM   10  C   UNL     1     -44.395 -53.591  12.562  1.00  0.00     0.108 A 
HETATM   11  N   UNL     1     -43.281 -53.089  12.027  1.00  0.00    -0.310 N 
ATOM     12  HN  UNL     1     -43.185 -52.539  11.174  1.00  0.00     0.186 HD
ENDBRANCH   6   7
ENDBRANCH   5   6
ENDBRANCH   3   5
ENDBRANCH   2   3
BRANCH   2  13
HETATM   13  C   UNL     1     -41.079 -48.638  11.104  1.00  0.00     0.251 C 
HETATM   14  O   UNL     1     -41.282 -47.988  12.127  1.00  0.00    -0.271 OA
HETATM   15  N   UNL     1     -41.725 -48.420   9.901  1.00  0.00    -0.351 N 
HETATM   16  H   UNL     1     -41.537 -49.053   9.136  1.00  0.00     0.163 HD
BRANCH  15  17
HETATM   17  C   UNL     1     -42.783 -47.418   9.712  1.00  0.00     0.022 C 
HETATM   18  C   UNL     1     -43.347 -47.498   8.285  1.00  0.00     0.037 C 
HETATM   19  C   UNL     1     -43.926 -47.718  10.699  1.00  0.00     0.037 C 
HETATM   20  C   UNL     1     -42.255 -46.005  10.006  1.00  0.00     0.037 C 
ENDBRANCH  15  17
ENDBRANCH   2  13
TORSDOF 6
ENDMDL
MODEL 3
REMARK VINA RESULT:      -5.4      2.620      6.083
REMARK  6 active torsions:
REMARK  status: ('A' for Active; 'I' for Inactive)
REMARK    1  A    between atoms: C_2  and  N_3 
REMARK    2  A    between atoms: C_2  and  C_12 
REMARK    3  A    between atoms: N_3  and  C_4 
REMARK    4  A    between atoms: C_4  and  C_5 
REMARK    5  A    between atoms: C_5  and  N_6 
REMARK       I    between atoms: C_12  and  N_14 
REMARK    6  A    between atoms: N_14  and  C_15 
ROOT
HETATM    1  C   UNL     1     -41.396 -50.401  13.629  1.00  0.00     0.053 C 
HETATM    2  C   UNL     1     -42.752 -49.757  13.349  1.00  0.00     0.307 C 
ENDROOT
BRANCH   2   3
HETATM    3  N   UNL     1     -42.861 -49.409  11.911  1.00  0.00     0.098 N 
HETATM    4  H   UNL     1     -43.402 -48.537  11.866  1.00  0.00     0.317 HD
BRANCH   3   5
HETATM    5  C   UNL     1     -41.553 -49.133  11.278  1.00  0.00     0.292 C 
BRANCH   5   6
HETATM    6  C   UNL     1     -41.416 -47.729  10.694  1.00  0.00     0.178 C 
BRANCH   6   7
HETATM    7  N   UNL     1     -42.501 -47.406   9.788  1.00  0.00    -0.302 N 
HETATM    8  C   UNL     1     -43.423 -46.410   9.930  1.00  0.00     0.111 A 
HETATM    9  C   UNL     1     -44.287 -46.540   8.869  1.00  0.00     0.037 A 
HETATM   10  C   UNL     1     -43.800 -47.643   8.143  1.00  0.00     0.108 A 
HETATM   11  N   UNL     1     -42.713 -48.176   8.702  1.00  0.00    -0.310 N 
ATOM     12  HN  UNL     1     -42.169 -48.977   8.382  1.00  0.00     0.186 HD
ENDBRANCH   6   7
ENDBRANCH   5   6
ENDBRANCH   3   5
ENDBRANCH   2   3
BRANCH   2  13
HETATM   13  C   UNL     1     -43.839 -50.769  13.754  1.00  0.00     0.251 C 
HETATM   14  O   UNL     1     -43.782 -51.384  14.817  1.00  0.00    -0.271 OA
HETATM   15  N   UNL     1     -44.866 -50.891  12.837  1.00  0.00    -0.351 N 
HETATM   16  H   UNL     1     -44.787 -50.393  11.961  1.00  0.00     0.163 HD
BRANCH  15  17
HETATM   17  C   UNL     1     -45.995 -51.818  12.992  1.00  0.00     0.022 C 
HETATM   18  C   UNL     1     -46.792 -51.486  14.262  1.00  0.00     0.037 C 
HETATM   19  C   UNL     1     -46.931 -51.660  11.780  1.00  0.00     0.037 C 
HETATM   20  C   UNL     1     -45.503 -53.274  13.029  1.00  0.00     0.037 C 
ENDBRANCH  15  17
ENDBRANCH   2  13
TORSDOF 6
ENDMDL
MODEL 4
REMARK VINA RESULT:      -5.4      2.791      6.142
REMARK  6 active torsions:
REMARK  status: ('A' for Active; 'I' for Inactive)
REMARK    1  A    between atoms: C_2  and  N_3 
REMARK    2  A    between atoms: C_2  and  C_12 
REMARK    3  A    between atoms: N_3  and  C_4 
REMARK    4  A    between atoms: C_4  and  C_5 
REMARK    5  A    between atoms: C_5  and  N_6 
REMARK       I    between atoms: C_12  and  N_14 
REMARK    6  A    between atoms: N_14  and  C_15 
ROOT
HETATM    1  C   UNL     1     -42.063 -54.175  13.450  1.00  0.00     0.053 C 
HETATM    2  C   UNL     1     -42.612 -52.811  13.036  1.00  0.00     0.307 C 
ENDROOT
BRANCH   2   3
HETATM    3  N   UNL     1     -42.125 -52.457  11.681  1.00  0.00     0.098 N 
HETATM    4  H   UNL     1     -42.827 -51.824  11.279  1.00  0.00     0.317 HD
BRANCH   3   5
HETATM    5  C   UNL     1     -40.844 -51.718  11.697  1.00  0.00     0.292 C 
BRANCH   5   6
HETATM    6  C   UNL     1     -40.887 -50.396  12.461  1.00  0.00     0.178 C 
BRANCH   6   7
HETATM    7  N   UNL     1     -41.609 -49.369  11.735  1.00  0.00    -0.302 N 
HETATM    8  C   UNL     1     -42.772 -48.762  12.108  1.00  0.00     0.111 A 
HETATM    9  C   UNL     1     -43.108 -47.919  11.075  1.00  0.00     0.037 A 
HETATM   10  C   UNL     1     -42.083 -48.090  10.126  1.00  0.00     0.108 A 
HETATM   11  N   UNL     1     -41.168 -48.975  10.523  1.00  0.00    -0.310 N 
ATOM     12  HN  UNL     1     -40.332 -49.282  10.027  1.00  0.00     0.186 HD
ENDBRANCH   6   7
ENDBRANCH   5   6
ENDBRANCH   3   5
ENDBRANCH   2   3
BRANCH   2  13
HETATM   13  C   UNL     1     -44.149 -52.904  13.061  1.00  0.00     0.251 C 
HETATM   14  O   UNL     1     -44.773 -53.508  12.191  1.00  0.00    -0.271 OA
HETATM   15  N   UNL     1     -44.734 -52.278  14.146  1.00  0.00    -0.351 N 
HETATM   16  H   UNL     1     -44.140 -51.749  14.770  1.00  0.00     0.163 HD
BRANCH  15  17
HETATM   17  C   UNL     1     -46.185 -52.205  14.363  1.00  0.00     0.022 C 
HETATM   18  C   UNL     1     -46.752 -53.599  14.671  1.00  0.00     0.037 C 
HETATM   19  C   UNL     1     -46.456 -51.296  15.576  1.00  0.00     0.037 C 
HETATM   20  C   UNL     1     -46.890 -51.594  13.142  1.00  0.00     0.037 C 
ENDBRANCH  15  17
ENDBRANCH   2  13
TORSDOF 6
ENDMDL
MODEL 5
REMARK VINA RESULT:      -5.3      3.903      5.424
REMARK  6 active torsions:
REMARK  status: ('A' for Active; 'I' for Inactive)
REMARK    1  A    between atoms: C_2  and  N_3 
REMARK    2  A    between atoms: C_2  and  C_12 
REMARK    3  A    between atoms: N_3  and  C_4 
REMARK    4  A    between atoms: C_4  and  C_5 
REMARK    5  A    between atoms: C_5  and  N_6 
REMARK       I    between atoms: C_12  and  N_14 
REMARK    6  A    between atoms: N_14  and  C_15 
ROOT
HETATM    1  C   UNL     1     -40.801 -53.761  12.891  1.00  0.00     0.053 C 
HETATM    2  C   UNL     1     -41.139 -52.637  11.914  1.00  0.00     0.307 C 
ENDROOT
BRANCH   2   3
HETATM    3  N   UNL     1     -42.608 -52.440  11.855  1.00  0.00     0.098 N 
HETATM    4  H   UNL     1     -42.904 -52.761  10.924  1.00  0.00     0.317 HD
BRANCH   3   5
HETATM    5  C   UNL     1     -43.345 -53.259  12.842  1.00  0.00     0.292 C 
BRANCH   5   6
HETATM    6  C   UNL     1     -44.809 -53.510  12.488  1.00  0.00     0.178 C 
BRANCH   6   7
HETATM    7  N   UNL     1     -45.715 -52.875  13.426  1.00  0.00    -0.302 N 
HETATM    8  C   UNL     1     -45.799 -51.544  13.716  1.00  0.00     0.111 A 
HETATM    9  C   UNL     1     -46.743 -51.432  14.709  1.00  0.00     0.037 A 
HETATM   10  C   UNL     1     -47.171 -52.751  14.947  1.00  0.00     0.108 A 
HETATM   11  N   UNL     1     -46.545 -53.634  14.169  1.00  0.00    -0.310 N 
ATOM     12  HN  UNL     1     -46.665 -54.647  14.143  1.00  0.00     0.186 HD
ENDBRANCH   6   7
ENDBRANCH   5   6
ENDBRANCH   3   5
ENDBRANCH   2   3
BRANCH   2  13
HETATM   13  C   UNL     1     -40.433 -51.362  12.412  1.00  0.00     0.251 C 
HETATM   14  O   UNL     1     -40.899 -50.683  13.325  1.00  0.00    -0.271 OA
HETATM   15  N   UNL     1     -39.245 -51.085  11.763  1.00  0.00    -0.351 N 
HETATM   16  H   UNL     1     -38.982 -51.666  10.979  1.00  0.00     0.163 HD
BRANCH  15  17
HETATM   17  C   UNL     1     -38.416 -49.905  12.044  1.00  0.00     0.022 C 
HETATM   18  C   UNL     1     -37.836 -49.983  13.465  1.00  0.00     0.037 C 
HETATM   19  C   UNL     1     -37.243 -49.880  11.046  1.00  0.00     0.037 C 
HETATM   20  C   UNL     1     -39.227 -48.612  11.861  1.00  0.00     0.037 C 
ENDBRANCH  15  17
ENDBRANCH   2  13
TORSDOF 6
ENDMDL
MODEL 6
REMARK VINA RESULT:      -5.3      3.626      6.080
REMARK  6 active torsions:
REMARK  status: ('A' for Active; 'I' for Inactive)
REMARK    1  A    between atoms: C_2  and  N_3 
REMARK    2  A    between atoms: C_2  and  C_12 
REMARK    3  A    between atoms: N_3  and  C_4 
REMARK    4  A    between atoms: C_4  and  C_5 
REMARK    5  A    between atoms: C_5  and  N_6 
REMARK       I    between atoms: C_12  and  N_14 
REMARK    6  A    between atoms: N_14  and  C_15 
ROOT
HETATM    1  C   UNL     1     -41.417 -53.731  12.893  1.00  0.00     0.053 C 
HETATM    2  C   UNL     1     -42.230 -52.439  12.930  1.00  0.00     0.307 C 
ENDROOT
BRANCH   2   3
HETATM    3  N   UNL     1     -41.858 -51.573  11.785  1.00  0.00     0.098 N 
HETATM    4  H   UNL     1     -42.560 -51.744  11.055  1.00  0.00     0.317 HD
BRANCH   3   5
HETATM    5  C   UNL     1     -41.917 -50.129  12.103  1.00  0.00     0.292 C 
BRANCH   5   6
HETATM    6  C   UNL     1     -40.831 -49.289  11.434  1.00  0.00     0.178 C 
BRANCH   6   7
HETATM    7  N   UNL     1     -39.498 -49.731  11.794  1.00  0.00    -0.302 N 
HETATM    8  C   UNL     1     -38.998 -49.896  13.053  1.00  0.00     0.111 A 
HETATM    9  C   UNL     1     -37.680 -50.254  12.893  1.00  0.00     0.037 A 
HETATM   10  C   UNL     1     -37.483 -50.281  11.500  1.00  0.00     0.108 A 
HETATM   11  N   UNL     1     -38.588 -49.960  10.826  1.00  0.00    -0.310 N 
ATOM     12  HN  UNL     1     -38.714 -49.901   9.816  1.00  0.00     0.186 HD
ENDBRANCH   6   7
ENDBRANCH   5   6
ENDBRANCH   3   5
ENDBRANCH   2   3
BRANCH   2  13
HETATM   13  C   UNL     1     -43.719 -52.825  12.867  1.00  0.00     0.251 C 
HETATM   14  O   UNL     1     -44.121 -53.725  12.132  1.00  0.00    -0.271 OA
HETATM   15  N   UNL     1     -44.528 -52.093  13.716  1.00  0.00    -0.351 N 
HETATM   16  H   UNL     1     -44.113 -51.328  14.230  1.00  0.00     0.163 HD
BRANCH  15  17
HETATM   17  C   UNL     1     -45.985 -52.261  13.803  1.00  0.00     0.022 C 
HETATM   18  C   UNL     1     -46.335 -53.696  14.224  1.00  0.00     0.037 C 
HETATM   19  C   UNL     1     -46.526 -51.298  14.876  1.00  0.00     0.037 C 
HETATM   20  C   UNL     1     -46.655 -51.911  12.465  1.00  0.00     0.037 C 
ENDBRANCH  15  17
ENDBRANCH   2  13
TORSDOF 6
ENDMDL
MODEL 7
REMARK VINA RESULT:      -5.2      3.086      4.636
REMARK  6 active torsions:
REMARK  status: ('A' for Active; 'I' for Inactive)
REMARK    1  A    between atoms: C_2  and  N_3 
REMARK    2  A    between atoms: C_2  and  C_12 
REMARK    3  A    between atoms: N_3  and  C_4 
REMARK    4  A    between atoms: C_4  and  C_5 
REMARK    5  A    between atoms: C_5  and  N_6 
REMARK       I    between atoms: C_12  and  N_14 
REMARK    6  A    between atoms: N_14  and  C_15 
ROOT
HETATM    1  C   UNL     1     -44.630 -47.464   9.702  1.00  0.00     0.053 C 
HETATM    2  C   UNL     1     -43.371 -47.383  10.561  1.00  0.00     0.307 C 
ENDROOT
BRANCH   2   3
HETATM    3  N   UNL     1     -42.372 -48.375  10.094  1.00  0.00     0.098 N 
HETATM    4  H   UNL     1     -42.107 -48.090   9.143  1.00  0.00     0.317 HD
BRANCH   3   5
HETATM    5  C   UNL     1     -41.132 -48.377  10.900  1.00  0.00     0.292 C 
BRANCH   5   6
HETATM    6  C   UNL     1     -40.947 -49.617  11.772  1.00  0.00     0.178 C 
BRANCH   6   7
HETATM    7  N   UNL     1     -39.560 -50.035  11.840  1.00  0.00    -0.302 N 
HETATM    8  C   UNL     1     -38.974 -50.786  12.817  1.00  0.00     0.111 A 
HETATM    9  C   UNL     1     -37.641 -50.859  12.489  1.00  0.00     0.037 A 
HETATM   10  C   UNL     1     -37.524 -50.122  11.297  1.00  0.00     0.108 A 
HETATM   11  N   UNL     1     -38.691 -49.615  10.899  1.00  0.00    -0.310 N 
ATOM     12  HN  UNL     1     -38.882 -49.044  10.076  1.00  0.00     0.186 HD
ENDBRANCH   6   7
ENDBRANCH   5   6
ENDBRANCH   3   5
ENDBRANCH   2   3
BRANCH   2  13
HETATM   13  C   UNL     1     -42.819 -45.950  10.442  1.00  0.00     0.251 C 
HETATM   14  O   UNL     1     -42.377 -45.517   9.380  1.00  0.00    -0.271 OA
HETATM   15  N   UNL     1     -42.895 -45.217  11.611  1.00  0.00    -0.351 N 
HETATM   16  H   UNL     1     -43.212 -45.686  12.449  1.00  0.00     0.163 HD
BRANCH  15  17
HETATM   17  C   UNL     1     -42.400 -43.841  11.747  1.00  0.00     0.022 C 
HETATM   18  C   UNL     1     -43.200 -42.891  10.843  1.00  0.00     0.037 C 
HETATM   19  C   UNL     1     -42.593 -43.391  13.208  1.00  0.00     0.037 C 
HETATM   20  C   UNL     1     -40.901 -43.765  11.418  1.00  0.00     0.037 C 
ENDBRANCH  15  17
ENDBRANCH   2  13
TORSDOF 6
ENDMDL
MODEL 8
REMARK VINA RESULT:      -5.1      2.204      3.742
REMARK  6 active torsions:
REMARK  status: ('A' for Active; 'I' for Inactive)
REMARK    1  A    between atoms: C_2  and  N_3 
REMARK    2  A    between atoms: C_2  and  C_12 
REMARK    3  A    between atoms: N_3  and  C_4 
REMARK    4  A    between atoms: C_4  and  C_5 
REMARK    5  A    between atoms: C_5  and  N_6 
REMARK       I    between atoms: C_12  and  N_14 
REMARK    6  A    between atoms: N_14  and  C_15 
ROOT
HETATM    1  C   UNL     1     -40.419 -52.259  13.305  1.00  0.00     0.053 C 
HETATM    2  C   UNL     1     -40.948 -51.715  11.980  1.00  0.00     0.307 C 
ENDROOT
BRANCH   2   3
HETATM    3  N   UNL     1     -42.192 -52.427  11.599  1.00  0.00     0.098 N 
HETATM    4  H   UNL     1     -41.906 -53.201  10.988  1.00  0.00     0.317 HD
BRANCH   3   5
HETATM    5  C   UNL     1     -42.893 -53.032  12.753  1.00  0.00     0.292 C 
BRANCH   5   6
HETATM    6  C   UNL     1     -44.293 -53.557  12.440  1.00  0.00     0.178 C 
BRANCH   6   7
HETATM    7  N   UNL     1     -45.310 -52.914  13.247  1.00  0.00    -0.302 N 
HETATM    8  C   UNL     1     -45.415 -51.584  13.535  1.00  0.00     0.111 A 
HETATM    9  C   UNL     1     -46.487 -51.464  14.388  1.00  0.00     0.037 A 
HETATM   10  C   UNL     1     -46.963 -52.778  14.552  1.00  0.00     0.108 A 
HETATM   11  N   UNL     1     -46.247 -53.665  13.861  1.00  0.00    -0.310 N 
ATOM     12  HN  UNL     1     -46.377 -54.676  13.809  1.00  0.00     0.186 HD
ENDBRANCH   6   7
ENDBRANCH   5   6
ENDBRANCH   3   5
ENDBRANCH   2   3
BRANCH   2  13
HETATM   13  C   UNL     1     -41.212 -50.210  12.168  1.00  0.00     0.251 C 
HETATM   14  O   UNL     1     -40.973 -49.642  13.232  1.00  0.00    -0.271 OA
HETATM   15  N   UNL     1     -41.705 -49.578  11.042  1.00  0.00    -0.351 N 
HETATM   16  H   UNL     1     -41.932 -50.146  10.237  1.00  0.00     0.163 HD
BRANCH  15  17
HETATM   17  C   UNL     1     -42.064 -48.154  10.994  1.00  0.00     0.022 C 
HETATM   18  C   UNL     1     -43.034 -47.807  12.133  1.00  0.00     0.037 C 
HETATM   19  C   UNL     1     -40.783 -47.319  11.181  1.00  0.00     0.037 C 
HETATM   20  C   UNL     1     -42.677 -47.791   9.633  1.00  0.00     0.037 C 
ENDBRANCH  15  17
ENDBRANCH   2  13
TORSDOF 6
ENDMDL
MODEL 9
REMARK VINA RESULT:      -5.1      3.157      6.425
REMARK  6 active torsions:
REMARK  status: ('A' for Active; 'I' for Inactive)
REMARK    1  A    between atoms: C_2  and  N_3 
REMARK    2  A    between atoms: C_2  and  C_12 
REMARK    3  A    between atoms: N_3  and  C_4 
REMARK    4  A    between atoms: C_4  and  C_5 
REMARK    5  A    between atoms: C_5  and  N_6 
REMARK       I    between atoms: C_12  and  N_14 
REMARK    6  A    between atoms: N_14  and  C_15 
ROOT
HETATM    1  C   UNL     1     -41.959 -49.057  14.076  1.00  0.00     0.053 C 
HETATM    2  C   UNL     1     -42.937 -49.405  12.956  1.00  0.00     0.307 C 
ENDROOT
BRANCH   2   3
HETATM    3  N   UNL     1     -42.197 -49.923  11.779  1.00  0.00     0.098 N 
HETATM    4  H   UNL     1     -42.864 -49.924  10.997  1.00  0.00     0.317 HD
BRANCH   3   5
HETATM    5  C   UNL     1     -41.068 -49.057  11.374  1.00  0.00     0.292 C 
BRANCH   5   6
HETATM    6  C   UNL     1     -41.470 -47.841  10.542  1.00  0.00     0.178 C 
BRANCH   6   7
HETATM    7  N   UNL     1     -40.705 -46.661  10.894  1.00  0.00    -0.302 N 
HETATM    8  C   UNL     1     -40.374 -46.239  12.148  1.00  0.00     0.111 A 
HETATM    9  C   UNL     1     -39.714 -45.043  11.984  1.00  0.00     0.037 A 
HETATM   10  C   UNL     1     -39.697 -44.832  10.593  1.00  0.00     0.108 A 
HETATM   11  N   UNL     1     -40.303 -45.814   9.925  1.00  0.00    -0.310 N 
ATOM     12  HN  UNL     1     -40.432 -45.904   8.917  1.00  0.00     0.186 HD
ENDBRANCH   6   7
ENDBRANCH   5   6
ENDBRANCH   3   5
ENDBRANCH   2   3
BRANCH   2  13
HETATM   13  C   UNL     1     -43.911 -50.465  13.502  1.00  0.00     0.251 C 
HETATM   14  O   UNL     1     -43.775 -50.947  14.625  1.00  0.00    -0.271 OA
HETATM   15  N   UNL     1     -44.938 -50.787  12.635  1.00  0.00    -0.351 N 
HETATM   16  H   UNL     1     -44.924 -50.386  11.707  1.00  0.00     0.163 HD
BRANCH  15  17
HETATM   17  C   UNL     1     -45.966 -51.795  12.925  1.00  0.00     0.022 C 
HETATM   18  C   UNL     1     -46.691 -51.461  14.238  1.00  0.00     0.037 C 
HETATM   19  C   UNL     1     -47.003 -51.781  11.786  1.00  0.00     0.037 C 
HETATM   20  C   UNL     1     -45.349 -53.201  12.992  1.00  0.00     0.037 C 
ENDBRANCH  15  17
ENDBRANCH   2  13
TORSDOF 6
ENDMDL
