MODEL 1
REMARK VINA RESULT:      -5.9      0.000      0.000
REMARK  6 active torsions:
REMARK  status: ('A' for Active; 'I' for Inactive)
REMARK    1  A    between atoms: C_7  and  C_8 
REMARK    2  A    between atoms: C_8  and  C_9 
REMARK    3  A    between atoms: C_9  and  N_10 
REMARK       I    between atoms: N_10  and  C_11 
REMARK    4  A    between atoms: C_11  and  C_13 
REMARK    5  A    between atoms: C_13  and  C_14 
REMARK    6  A    between atoms: C_13  and  N_17 
ROOT
HETATM    1  N   UNL     1     -41.943 -50.530  11.738  1.00  0.00    -0.359 N 
HETATM    2  C   UNL     1     -41.512 -51.763  12.199  1.00  0.00     0.251 C 
HETATM    3  O   UNL     1     -40.327 -52.090  12.147  1.00  0.00    -0.271 OA
HETATM    4  H   UNL     1     -42.916 -50.423  11.469  1.00  0.00     0.162 HD
ENDROOT
BRANCH   1   5
HETATM    5  C   UNL     1     -41.025 -49.542  11.194  1.00  0.00     0.130 C 
BRANCH   5   6
HETATM    6  C   UNL     1     -41.481 -48.085  11.376  1.00  0.00     0.096 C 
BRANCH   6   7
HETATM    7  C   UNL     1     -42.255 -47.569  10.200  1.00  0.00     0.084 A 
HETATM    8  N   UNL     1     -42.672 -46.261  10.073  1.00  0.00    -0.350 N 
HETATM    9  C   UNL     1     -42.437 -45.177  10.996  1.00  0.00     0.156 C 
HETATM   10  C   UNL     1     -43.367 -46.155   8.899  1.00  0.00     0.108 A 
HETATM   11  C   UNL     1     -43.339 -47.412   8.351  1.00  0.00     0.106 A 
HETATM   12  N   UNL     1     -42.645 -48.276   9.154  1.00  0.00    -0.354 N 
ATOM     13  HN  UNL     1     -42.466 -49.265   8.981  1.00  0.00     0.166 HD
ENDBRANCH   6   7
ENDBRANCH   5   6
ENDBRANCH   1   5
BRANCH   2  14
HETATM   14  C   UNL     1     -42.648 -52.660  12.789  1.00  0.00     0.318 C 
BRANCH  14  15
HETATM   15  C   UNL     1     -42.226 -53.201  14.141  1.00  0.00     0.028 A 
HETATM   16  C   UNL     1     -41.155 -54.257  14.292  1.00  0.00     0.008 A 
HETATM   17  C   UNL     1     -42.592 -54.615  14.536  1.00  0.00     0.008 A 
ENDBRANCH  14  15
BRANCH  14  18
HETATM   18  N   UNL     1     -43.902 -51.876  12.950  1.00  0.00     0.102 N 
HETATM   19  C   UNL     1     -44.130 -51.360  14.304  1.00  0.00     0.273 C 
HETATM   20  C   UNL     1     -45.645 -51.259  14.465  1.00  0.00     0.032 C 
HETATM   21  C   UNL     1     -46.216 -51.755  13.150  1.00  0.00     0.032 C 
HETATM   22  C   UNL     1     -45.107 -52.624  12.586  1.00  0.00     0.273 C 
ENDBRANCH  14  18
ENDBRANCH   2  14
TORSDOF 6
ENDMDL
MODEL 2
REMARK VINA RESULT:      -5.8      2.403      3.761
REMARK  6 active torsions:
REMARK  status: ('A' for Active; 'I' for Inactive)
REMARK    1  A    between atoms: C_7  and  C_8 
REMARK    2  A    between atoms: C_8  and  C_9 
REMARK    3  A    between atoms: C_9  and  N_10 
REMARK       I    between atoms: N_10  and  C_11 
REMARK    4  A    between atoms: C_11  and  C_13 
REMARK    5  A    between atoms: C_13  and  C_14 
REMARK    6  A    between atoms: C_13  and  N_17 
ROOT
HETATM    1  N   UNL     1     -42.461 -50.578  12.179  1.00  0.00    -0.359 N 
HETATM    2  C   UNL     1     -42.239 -51.945  12.189  1.00  0.00     0.251 C 
HETATM    3  O   UNL     1     -41.250 -52.440  11.652  1.00  0.00    -0.271 OA
HETATM    4  H   UNL     1     -43.409 -50.236  12.302  1.00  0.00     0.162 HD
ENDROOT
BRANCH   1   5
HETATM    5  C   UNL     1     -41.529 -49.647  11.562  1.00  0.00     0.130 C 
BRANCH   5   6
HETATM    6  C   UNL     1     -40.408 -49.161  12.494  1.00  0.00     0.096 C 
BRANCH   6   7
HETATM    7  C   UNL     1     -39.067 -49.726  12.132  1.00  0.00     0.084 A 
HETATM    8  N   UNL     1     -38.428 -50.707  12.860  1.00  0.00    -0.350 N 
HETATM    9  C   UNL     1     -38.911 -51.367  14.048  1.00  0.00     0.156 C 
HETATM   10  C   UNL     1     -37.225 -50.958  12.258  1.00  0.00     0.108 A 
HETATM   11  C   UNL     1     -37.182 -50.118  11.175  1.00  0.00     0.106 A 
HETATM   12  N   UNL     1     -38.325 -49.367  11.099  1.00  0.00    -0.354 N 
ATOM     13  HN  UNL     1     -38.556 -48.672  10.389  1.00  0.00     0.166 HD
ENDBRANCH   6   7
ENDBRANCH   5   6
ENDBRANCH   1   5
BRANCH   2  14
HETATM   14  C   UNL     1     -43.334 -52.766  12.945  1.00  0.00     0.318 C 
BRANCH  14  15
HETATM   15  C   UNL     1     -42.772 -53.293  14.250  1.00  0.00     0.028 A 
HETATM   16  C   UNL     1     -41.604 -54.253  14.299  1.00  0.00     0.008 A 
HETATM   17  C   UNL     1     -42.983 -54.742  14.632  1.00  0.00     0.008 A 
ENDBRANCH  14  15
BRANCH  14  18
HETATM   18  N   UNL     1     -44.518 -51.914  13.236  1.00  0.00     0.102 N 
HETATM   19  C   UNL     1     -44.734 -51.634  14.660  1.00  0.00     0.273 C 
HETATM   20  C   UNL     1     -46.237 -51.426  14.823  1.00  0.00     0.032 C 
HETATM   21  C   UNL     1     -46.817 -51.621  13.435  1.00  0.00     0.032 C 
HETATM   22  C   UNL     1     -45.775 -52.470  12.730  1.00  0.00     0.273 C 
ENDBRANCH  14  18
ENDBRANCH   2  14
TORSDOF 6
ENDMDL
MODEL 3
REMARK VINA RESULT:      -5.7      1.468      1.811
REMARK  6 active torsions:
REMARK  status: ('A' for Active; 'I' for Inactive)
REMARK    1  A    between atoms: C_7  and  C_8 
REMARK    2  A    between atoms: C_8  and  C_9 
REMARK    3  A    between atoms: C_9  and  N_10 
REMARK       I    between atoms: N_10  and  C_11 
REMARK    4  A    between atoms: C_11  and  C_13 
REMARK    5  A    between atoms: C_13  and  C_14 
REMARK    6  A    between atoms: C_13  and  N_17 
ROOT
HETATM    1  N   UNL     1     -42.041 -50.675  11.988  1.00  0.00    -0.359 N 
HETATM    2  C   UNL     1     -41.744 -52.008  12.219  1.00  0.00     0.251 C 
HETATM    3  O   UNL     1     -40.637 -52.474  11.957  1.00  0.00    -0.271 OA
HETATM    4  H   UNL     1     -43.013 -50.404  11.875  1.00  0.00     0.162 HD
ENDROOT
BRANCH   1   5
HETATM    5  C   UNL     1     -41.061 -49.744  11.451  1.00  0.00     0.130 C 
BRANCH   5   6
HETATM    6  C   UNL     1     -41.662 -48.594  10.628  1.00  0.00     0.096 C 
BRANCH   6   7
HETATM    7  C   UNL     1     -41.131 -47.251  11.034  1.00  0.00     0.084 A 
HETATM    8  N   UNL     1     -41.723 -46.450  11.986  1.00  0.00    -0.350 N 
HETATM    9  C   UNL     1     -42.905 -46.742  12.760  1.00  0.00     0.156 C 
HETATM   10  C   UNL     1     -40.990 -45.299  12.079  1.00  0.00     0.108 A 
HETATM   11  C   UNL     1     -39.968 -45.449  11.176  1.00  0.00     0.106 A 
HETATM   12  N   UNL     1     -40.058 -46.659  10.542  1.00  0.00    -0.354 N 
ATOM     13  HN  UNL     1     -39.424 -47.028   9.832  1.00  0.00     0.166 HD
ENDBRANCH   6   7
ENDBRANCH   5   6
ENDBRANCH   1   5
BRANCH   2  14
HETATM   14  C   UNL     1     -42.920 -52.827  12.843  1.00  0.00     0.318 C 
BRANCH  14  15
HETATM   15  C   UNL     1     -42.525 -53.324  14.220  1.00  0.00     0.028 A 
HETATM   16  C   UNL     1     -41.424 -54.339  14.430  1.00  0.00     0.008 A 
HETATM   17  C   UNL     1     -42.855 -54.742  14.634  1.00  0.00     0.008 A 
ENDBRANCH  14  15
BRANCH  14  18
HETATM   18  N   UNL     1     -44.139 -51.984  12.963  1.00  0.00     0.102 N 
HETATM   19  C   UNL     1     -44.421 -51.506  14.321  1.00  0.00     0.273 C 
HETATM   20  C   UNL     1     -45.935 -51.329  14.398  1.00  0.00     0.032 C 
HETATM   21  C   UNL     1     -46.452 -51.746  13.034  1.00  0.00     0.032 C 
HETATM   22  C   UNL     1     -45.357 -52.652  12.500  1.00  0.00     0.273 C 
ENDBRANCH  14  18
ENDBRANCH   2  14
TORSDOF 6
ENDMDL
MODEL 4
REMARK VINA RESULT:      -5.4      2.641      3.761
REMARK  6 active torsions:
REMARK  status: ('A' for Active; 'I' for Inactive)
REMARK    1  A    between atoms: C_7  and  C_8 
REMARK    2  A    between atoms: C_8  and  C_9 
REMARK    3  A    between atoms: C_9  and  N_10 
REMARK       I    between atoms: N_10  and  C_11 
REMARK    4  A    between atoms: C_11  and  C_13 
REMARK    5  A    between atoms: C_13  and  C_14 
REMARK    6  A    between atoms: C_13  and  N_17 
ROOT
HETATM    1  N   UNL     1     -41.751 -50.958  11.877  1.00  0.00    -0.359 N 
HETATM    2  C   UNL     1     -41.925 -51.656  13.061  1.00  0.00     0.251 C 
HETATM    3  O   UNL     1     -42.306 -51.097  14.088  1.00  0.00    -0.271 OA
HETATM    4  H   UNL     1     -41.125 -51.338  11.174  1.00  0.00     0.162 HD
ENDROOT
BRANCH   1   5
HETATM    5  C   UNL     1     -42.033 -49.535  11.769  1.00  0.00     0.130 C 
BRANCH   5   6
HETATM    6  C   UNL     1     -40.839 -48.685  11.307  1.00  0.00     0.096 C 
BRANCH   6   7
HETATM    7  C   UNL     1     -39.519 -49.277  11.702  1.00  0.00     0.084 A 
HETATM    8  N   UNL     1     -39.000 -49.207  12.977  1.00  0.00    -0.350 N 
HETATM    9  C   UNL     1     -39.608 -48.598  14.135  1.00  0.00     0.156 C 
HETATM   10  C   UNL     1     -37.779 -49.825  12.968  1.00  0.00     0.108 A 
HETATM   11  C   UNL     1     -37.605 -50.255  11.677  1.00  0.00     0.106 A 
HETATM   12  N   UNL     1     -38.685 -49.921  10.905  1.00  0.00    -0.354 N 
ATOM     13  HN  UNL     1     -38.819 -50.126   9.915  1.00  0.00     0.166 HD
ENDBRANCH   6   7
ENDBRANCH   5   6
ENDBRANCH   1   5
BRANCH   2  14
HETATM   14  C   UNL     1     -41.612 -53.185  12.955  1.00  0.00     0.318 C 
BRANCH  14  15
HETATM   15  C   UNL     1     -40.706 -53.604  14.095  1.00  0.00     0.028 A 
HETATM   16  C   UNL     1     -39.327 -53.016  14.291  1.00  0.00     0.008 A 
HETATM   17  C   UNL     1     -39.471 -54.431  13.812  1.00  0.00     0.008 A 
ENDBRANCH  14  15
BRANCH  14  18
HETATM   18  N   UNL     1     -42.868 -53.980  13.015  1.00  0.00     0.102 N 
HETATM   19  C   UNL     1     -44.048 -53.301  12.471  1.00  0.00     0.273 C 
HETATM   20  C   UNL     1     -45.246 -53.872  13.223  1.00  0.00     0.032 C 
HETATM   21  C   UNL     1     -44.659 -54.871  14.202  1.00  0.00     0.032 C 
HETATM   22  C   UNL     1     -43.225 -54.403  14.371  1.00  0.00     0.273 C 
ENDBRANCH  14  18
ENDBRANCH   2  14
TORSDOF 6
ENDMDL
MODEL 5
REMARK VINA RESULT:      -5.3      1.501      3.121
REMARK  6 active torsions:
REMARK  status: ('A' for Active; 'I' for Inactive)
REMARK    1  A    between atoms: C_7  and  C_8 
REMARK    2  A    between atoms: C_8  and  C_9 
REMARK    3  A    between atoms: C_9  and  N_10 
REMARK       I    between atoms: N_10  and  C_11 
REMARK    4  A    between atoms: C_11  and  C_13 
REMARK    5  A    between atoms: C_13  and  C_14 
REMARK    6  A    between atoms: C_13  and  N_17 
ROOT
HETATM    1  N   UNL     1     -43.148 -49.883  12.608  1.00  0.00    -0.359 N 
HETATM    2  C   UNL     1     -43.463 -50.281  13.896  1.00  0.00     0.251 C 
HETATM    3  O   UNL     1     -43.606 -49.465  14.805  1.00  0.00    -0.271 OA
HETATM    4  H   UNL     1     -42.702 -50.549  11.986  1.00  0.00     0.162 HD
ENDROOT
BRANCH   1   5
HETATM    5  C   UNL     1     -42.995 -48.482  12.246  1.00  0.00     0.130 C 
BRANCH   5   6
HETATM    6  C   UNL     1     -41.960 -48.223  11.140  1.00  0.00     0.096 C 
BRANCH   6   7
HETATM    7  C   UNL     1     -42.563 -47.601   9.915  1.00  0.00     0.084 A 
HETATM    8  N   UNL     1     -42.821 -46.253   9.789  1.00  0.00    -0.350 N 
HETATM    9  C   UNL     1     -42.555 -45.219  10.759  1.00  0.00     0.156 C 
HETATM   10  C   UNL     1     -43.390 -46.049   8.562  1.00  0.00     0.108 A 
HETATM   11  C   UNL     1     -43.450 -47.291   7.982  1.00  0.00     0.106 A 
HETATM   12  N   UNL     1     -42.930 -48.241   8.819  1.00  0.00    -0.354 N 
ATOM     13  HN  UNL     1     -42.845 -49.241   8.635  1.00  0.00     0.166 HD
ENDBRANCH   6   7
ENDBRANCH   5   6
ENDBRANCH   1   5
BRANCH   2  14
HETATM   14  C   UNL     1     -43.630 -51.826  14.066  1.00  0.00     0.318 C 
BRANCH  14  15
HETATM   15  C   UNL     1     -44.510 -52.372  12.959  1.00  0.00     0.028 A 
HETATM   16  C   UNL     1     -45.969 -52.000  12.826  1.00  0.00     0.008 A 
HETATM   17  C   UNL     1     -45.593 -53.379  13.283  1.00  0.00     0.008 A 
ENDBRANCH  14  15
BRANCH  14  18
HETATM   18  N   UNL     1     -42.307 -52.504  14.013  1.00  0.00     0.102 N 
HETATM   19  C   UNL     1     -41.966 -53.077  12.707  1.00  0.00     0.273 C 
HETATM   20  C   UNL     1     -41.045 -54.260  12.995  1.00  0.00     0.032 C 
HETATM   21  C   UNL     1     -40.921 -54.305  14.506  1.00  0.00     0.032 C 
HETATM   22  C   UNL     1     -42.168 -53.588  14.988  1.00  0.00     0.273 C 
ENDBRANCH  14  18
ENDBRANCH   2  14
TORSDOF 6
ENDMDL
MODEL 6
REMARK VINA RESULT:      -5.2      2.746      4.546
REMARK  6 active torsions:
REMARK  status: ('A' for Active; 'I' for Inactive)
REMARK    1  A    between atoms: C_7  and  C_8 
REMARK    2  A    between atoms: C_8  and  C_9 
REMARK    3  A    between atoms: C_9  and  N_10 
REMARK       I    between atoms: N_10  and  C_11 
REMARK    4  A    between atoms: C_11  and  C_13 
REMARK    5  A    between atoms: C_13  and  C_14 
REMARK    6  A    between atoms: C_13  and  N_17 
ROOT
HETATM    1  N   UNL     1     -42.169 -50.497  12.826  1.00  0.00    -0.359 N 
HETATM    2  C   UNL     1     -41.728 -51.789  12.597  1.00  0.00     0.251 C 
HETATM    3  O   UNL     1     -41.261 -52.126  11.510  1.00  0.00    -0.271 OA
HETATM    4  H   UNL     1     -42.847 -50.336  13.564  1.00  0.00     0.162 HD
ENDROOT
BRANCH   1   5
HETATM    5  C   UNL     1     -42.082 -49.457  11.812  1.00  0.00     0.130 C 
BRANCH   5   6
HETATM    6  C   UNL     1     -40.969 -48.425  12.057  1.00  0.00     0.096 C 
BRANCH   6   7
HETATM    7  C   UNL     1     -39.597 -49.027  11.998  1.00  0.00     0.084 A 
HETATM    8  N   UNL     1     -38.648 -48.868  12.984  1.00  0.00    -0.350 N 
HETATM    9  C   UNL     1     -38.790 -48.140  14.223  1.00  0.00     0.156 C 
HETATM   10  C   UNL     1     -37.516 -49.526  12.588  1.00  0.00     0.108 A 
HETATM   11  C   UNL     1     -37.827 -50.071  11.368  1.00  0.00     0.106 A 
HETATM   12  N   UNL     1     -39.113 -49.765  11.015  1.00  0.00    -0.354 N 
ATOM     13  HN  UNL     1     -39.600 -50.050  10.164  1.00  0.00     0.166 HD
ENDBRANCH   6   7
ENDBRANCH   5   6
ENDBRANCH   1   5
BRANCH   2  14
HETATM   14  C   UNL     1     -41.866 -52.741  13.829  1.00  0.00     0.318 C 
BRANCH  14  15
HETATM   15  C   UNL     1     -42.586 -54.010  13.420  1.00  0.00     0.028 A 
HETATM   16  C   UNL     1     -43.989 -53.999  12.857  1.00  0.00     0.008 A 
HETATM   17  C   UNL     1     -43.749 -54.518  14.245  1.00  0.00     0.008 A 
ENDBRANCH  14  15
BRANCH  14  18
HETATM   18  N   UNL     1     -40.526 -53.096  14.368  1.00  0.00     0.102 N 
HETATM   19  C   UNL     1     -39.950 -54.326  13.813  1.00  0.00     0.273 C 
HETATM   20  C   UNL     1     -39.042 -54.892  14.901  1.00  0.00     0.032 C 
HETATM   21  C   UNL     1     -39.167 -53.926  16.064  1.00  0.00     0.032 C 
HETATM   22  C   UNL     1     -40.506 -53.253  15.824  1.00  0.00     0.273 C 
ENDBRANCH  14  18
ENDBRANCH   2  14
TORSDOF 6
ENDMDL
MODEL 7
REMARK VINA RESULT:      -5.2      2.566      4.083
REMARK  6 active torsions:
REMARK  status: ('A' for Active; 'I' for Inactive)
REMARK    1  A    between atoms: C_7  and  C_8 
REMARK    2  A    between atoms: C_8  and  C_9 
REMARK    3  A    between atoms: C_9  and  N_10 
REMARK       I    between atoms: N_10  and  C_11 
REMARK    4  A    between atoms: C_11  and  C_13 
REMARK    5  A    between atoms: C_13  and  C_14 
REMARK    6  A    between atoms: C_13  and  N_17 
ROOT
HETATM    1  N   UNL     1     -41.880 -50.298  11.648  1.00  0.00    -0.359 N 
HETATM    2  C   UNL     1     -42.368 -50.404  12.940  1.00  0.00     0.251 C 
HETATM    3  O   UNL     1     -42.037 -49.612  13.820  1.00  0.00    -0.271 OA
HETATM    4  H   UNL     1     -41.877 -51.123  11.058  1.00  0.00     0.162 HD
ENDROOT
BRANCH   1   5
HETATM    5  C   UNL     1     -40.973 -49.233  11.248  1.00  0.00     0.130 C 
BRANCH   5   6
HETATM    6  C   UNL     1     -39.483 -49.596  11.354  1.00  0.00     0.096 C 
BRANCH   6   7
HETATM    7  C   UNL     1     -38.881 -49.199  12.669  1.00  0.00     0.084 A 
HETATM    8  N   UNL     1     -37.860 -49.891  13.284  1.00  0.00    -0.350 N 
HETATM    9  C   UNL     1     -37.186 -51.069  12.793  1.00  0.00     0.156 C 
HETATM   10  C   UNL     1     -37.583 -49.266  14.468  1.00  0.00     0.108 A 
HETATM   11  C   UNL     1     -38.450 -48.204  14.525  1.00  0.00     0.106 A 
HETATM   12  N   UNL     1     -39.242 -48.165  13.409  1.00  0.00    -0.354 N 
ATOM     13  HN  UNL     1     -39.963 -47.478  13.192  1.00  0.00     0.166 HD
ENDBRANCH   6   7
ENDBRANCH   5   6
ENDBRANCH   1   5
BRANCH   2  14
HETATM   14  C   UNL     1     -43.366 -51.589  13.152  1.00  0.00     0.318 C 
BRANCH  14  15
HETATM   15  C   UNL     1     -42.728 -52.647  14.030  1.00  0.00     0.028 A 
HETATM   16  C   UNL     1     -41.407 -53.296  13.685  1.00  0.00     0.008 A 
HETATM   17  C   UNL     1     -42.677 -54.085  13.562  1.00  0.00     0.008 A 
ENDBRANCH  14  15
BRANCH  14  18
HETATM   18  N   UNL     1     -44.616 -51.109  13.800  1.00  0.00     0.102 N 
HETATM   19  C   UNL     1     -44.659 -51.291  15.255  1.00  0.00     0.273 C 
HETATM   20  C   UNL     1     -46.133 -51.444  15.616  1.00  0.00     0.032 C 
HETATM   21  C   UNL     1     -46.875 -51.353  14.296  1.00  0.00     0.032 C 
HETATM   22  C   UNL     1     -45.826 -51.742  13.271  1.00  0.00     0.273 C 
ENDBRANCH  14  18
ENDBRANCH   2  14
TORSDOF 6
ENDMDL
MODEL 8
REMARK VINA RESULT:      -5.1      4.124      5.711
REMARK  6 active torsions:
REMARK  status: ('A' for Active; 'I' for Inactive)
REMARK    1  A    between atoms: C_7  and  C_8 
REMARK    2  A    between atoms: C_8  and  C_9 
REMARK    3  A    between atoms: C_9  and  N_10 
REMARK       I    between atoms: N_10  and  C_11 
REMARK    4  A    between atoms: C_11  and  C_13 
REMARK    5  A    between atoms: C_13  and  C_14 
REMARK    6  A    between atoms: C_13  and  N_17 
ROOT
HETATM    1  N   UNL     1     -42.951 -53.202  15.425  1.00  0.00    -0.359 N 
HETATM    2  C   UNL     1     -44.317 -53.421  15.492  1.00  0.00     0.251 C 
HETATM    3  O   UNL     1     -44.779 -54.529  15.763  1.00  0.00    -0.271 OA
HETATM    4  H   UNL     1     -42.609 -52.420  14.876  1.00  0.00     0.162 HD
ENDROOT
BRANCH   1   5
HETATM    5  C   UNL     1     -41.984 -54.254  15.697  1.00  0.00     0.130 C 
BRANCH   5   6
HETATM    6  C   UNL     1     -41.036 -54.561  14.527  1.00  0.00     0.096 C 
BRANCH   6   7
HETATM    7  C   UNL     1     -41.011 -53.469  13.499  1.00  0.00     0.084 A 
HETATM    8  N   UNL     1     -40.137 -52.404  13.534  1.00  0.00    -0.350 N 
HETATM    9  C   UNL     1     -39.106 -52.153  14.512  1.00  0.00     0.156 C 
HETATM   10  C   UNL     1     -40.414 -51.599  12.463  1.00  0.00     0.108 A 
HETATM   11  C   UNL     1     -41.451 -52.216  11.809  1.00  0.00     0.106 A 
HETATM   12  N   UNL     1     -41.808 -53.372  12.449  1.00  0.00    -0.354 N 
ATOM     13  HN  UNL     1     -42.540 -54.025  12.172  1.00  0.00     0.166 HD
ENDBRANCH   6   7
ENDBRANCH   5   6
ENDBRANCH   1   5
BRANCH   2  14
HETATM   14  C   UNL     1     -45.185 -52.151  15.212  1.00  0.00     0.318 C 
BRANCH  14  15
HETATM   15  C   UNL     1     -46.118 -52.413  14.047  1.00  0.00     0.028 A 
HETATM   16  C   UNL     1     -45.615 -52.828  12.684  1.00  0.00     0.008 A 
HETATM   17  C   UNL     1     -46.163 -51.446  12.884  1.00  0.00     0.008 A 
ENDBRANCH  14  15
BRANCH  14  18
HETATM   18  N   UNL     1     -45.991 -51.795  16.410  1.00  0.00     0.102 N 
HETATM   19  C   UNL     1     -47.443 -51.855  16.209  1.00  0.00     0.273 C 
HETATM   20  C   UNL     1     -48.043 -50.838  17.176  1.00  0.00     0.032 C 
HETATM   21  C   UNL     1     -46.855 -50.221  17.889  1.00  0.00     0.032 C 
HETATM   22  C   UNL     1     -45.703 -50.456  16.930  1.00  0.00     0.273 C 
ENDBRANCH  14  18
ENDBRANCH   2  14
TORSDOF 6
ENDMDL
MODEL 9
REMARK VINA RESULT:      -5.0      2.311      4.133
REMARK  6 active torsions:
REMARK  status: ('A' for Active; 'I' for Inactive)
REMARK    1  A    between atoms: C_7  and  C_8 
REMARK    2  A    between atoms: C_8  and  C_9 
REMARK    3  A    between atoms: C_9  and  N_10 
REMARK       I    between atoms: N_10  and  C_11 
REMARK    4  A    between atoms: C_11  and  C_13 
REMARK    5  A    between atoms: C_13  and  C_14 
REMARK    6  A    between atoms: C_13  and  N_17 
ROOT
HETATM    1  N   UNL     1     -43.076 -49.756  12.600  1.00  0.00    -0.359 N 
HETATM    2  C   UNL     1     -42.835 -51.110  12.765  1.00  0.00     0.251 C 
HETATM    3  O   UNL     1     -42.037 -51.713  12.048  1.00  0.00    -0.271 OA
HETATM    4  H   UNL     1     -43.952 -49.372  12.939  1.00  0.00     0.162 HD
ENDROOT
BRANCH   1   5
HETATM    5  C   UNL     1     -42.385 -48.963  11.596  1.00  0.00     0.130 C 
BRANCH   5   6
HETATM    6  C   UNL     1     -41.201 -48.146  12.138  1.00  0.00     0.096 C 
BRANCH   6   7
HETATM    7  C   UNL     1     -39.895 -48.876  12.033  1.00  0.00     0.084 A 
HETATM    8  N   UNL     1     -38.815 -48.634  12.854  1.00  0.00    -0.350 N 
HETATM    9  C   UNL     1     -38.739 -47.689  13.941  1.00  0.00     0.156 C 
HETATM   10  C   UNL     1     -37.796 -49.457  12.458  1.00  0.00     0.108 A 
HETATM   11  C   UNL     1     -38.304 -50.178  11.407  1.00  0.00     0.106 A 
HETATM   12  N   UNL     1     -39.601 -49.819  11.156  1.00  0.00    -0.354 N 
ATOM     13  HN  UNL     1     -40.215 -50.203  10.437  1.00  0.00     0.166 HD
ENDBRANCH   6   7
ENDBRANCH   5   6
ENDBRANCH   1   5
BRANCH   2  14
HETATM   14  C   UNL     1     -43.644 -51.768  13.930  1.00  0.00     0.318 C 
BRANCH  14  15
HETATM   15  C   UNL     1     -44.967 -52.289  13.406  1.00  0.00     0.028 A 
HETATM   16  C   UNL     1     -46.015 -51.378  12.807  1.00  0.00     0.008 A 
HETATM   17  C   UNL     1     -46.247 -51.990  14.157  1.00  0.00     0.008 A 
ENDBRANCH  14  15
BRANCH  14  18
HETATM   18  N   UNL     1     -42.879 -52.897  14.524  1.00  0.00     0.102 N 
HETATM   19  C   UNL     1     -43.252 -54.222  14.017  1.00  0.00     0.273 C 
HETATM   20  C   UNL     1     -42.959 -55.203  15.148  1.00  0.00     0.032 C 
HETATM   21  C   UNL     1     -42.431 -54.349  16.285  1.00  0.00     0.032 C 
HETATM   22  C   UNL     1     -42.987 -52.970  15.983  1.00  0.00     0.273 C 
ENDBRANCH  14  18
ENDBRANCH   2  14
TORSDOF 6
ENDMDL
