MODEL 1
REMARK VINA RESULT:      -6.3      0.000      0.000
REMARK  7 active torsions:
REMARK  status: ('A' for Active; 'I' for Inactive)
REMARK    1  A    between atoms: C_2  and  C_3 
REMARK    2  A    between atoms: C_2  and  N_11 
REMARK    3  A    between atoms: C_3  and  N_4 
REMARK    4  A    between atoms: N_11  and  C_12 
REMARK    5  A    between atoms: C_12  and  C_13 
REMARK    6  A    between atoms: C_13  and  C_14 
REMARK       I    between atoms: C_14  and  N_16 
REMARK    7  A    between atoms: N_16  and  C_17 
ROOT
HETATM    1  N   UNL     1     -41.026 -49.898  10.970  1.00  0.00     0.089 N 
HETATM    2  H   UNL     1     -40.250 -49.775  10.316  1.00  0.00     0.316 HD
ENDROOT
BRANCH   1   3
HETATM    3  C   UNL     1     -41.350 -48.570  11.564  1.00  0.00     0.236 C 
HETATM    4  C   UNL     1     -40.174 -48.183  12.470  1.00  0.00     0.044 C 
BRANCH   3   5
HETATM    5  C   UNL     1     -41.612 -47.487  10.494  1.00  0.00     0.183 C 
BRANCH   5   6
HETATM    6  N   UNL     1     -42.847 -47.643   9.750  1.00  0.00    -0.301 N 
HETATM    7  C   UNL     1     -44.103 -47.368  10.208  1.00  0.00     0.118 A 
HETATM    8  C   UNL     1     -44.946 -47.481   9.123  1.00  0.00    -0.028 A 
HETATM    9  C   UNL     1     -46.407 -47.258   9.076  1.00  0.00     0.051 C 
HETATM   10  C   UNL     1     -44.089 -47.842   8.061  1.00  0.00     0.115 A 
HETATM   11  N   UNL     1     -42.813 -47.947   8.439  1.00  0.00    -0.310 N 
ATOM     12  HN  UNL     1     -42.005 -48.199   7.870  1.00  0.00     0.186 HD
ENDBRANCH   5   6
ENDBRANCH   3   5
ENDBRANCH   1   3
BRANCH   1  13
HETATM   13  C   UNL     1     -40.631 -50.868  12.000  1.00  0.00     0.279 C 
BRANCH  13  14
HETATM   14  C   UNL     1     -41.151 -52.277  11.717  1.00  0.00     0.132 C 
BRANCH  14  15
HETATM   15  C   UNL     1     -42.217 -52.619  12.740  1.00  0.00     0.219 C 
HETATM   16  O   UNL     1     -42.012 -53.351  13.703  1.00  0.00    -0.274 OA
HETATM   17  N   UNL     1     -43.445 -52.050  12.482  1.00  0.00    -0.356 N 
HETATM   18  H   UNL     1     -43.472 -51.242  11.871  1.00  0.00     0.162 HD
BRANCH  17  19
HETATM   19  C   UNL     1     -44.560 -52.277  13.381  1.00  0.00     0.084 C 
HETATM   20  C   UNL     1     -45.923 -52.242  12.672  1.00  0.00     0.025 C 
HETATM   21  C   UNL     1     -46.893 -51.546  13.622  1.00  0.00     0.002 C 
HETATM   22  C   UNL     1     -46.116 -51.296  14.906  1.00  0.00     0.002 C 
HETATM   23  C   UNL     1     -44.668 -51.200  14.454  1.00  0.00     0.025 C 
ENDBRANCH  17  19
ENDBRANCH  14  15
ENDBRANCH  13  14
ENDBRANCH   1  13
TORSDOF 7
ENDMDL
MODEL 2
REMARK VINA RESULT:      -6.0      3.073      3.789
REMARK  7 active torsions:
REMARK  status: ('A' for Active; 'I' for Inactive)
REMARK    1  A    between atoms: C_2  and  C_3 
REMARK    2  A    between atoms: C_2  and  N_11 
REMARK    3  A    between atoms: C_3  and  N_4 
REMARK    4  A    between atoms: N_11  and  C_12 
REMARK    5  A    between atoms: C_12  and  C_13 
REMARK    6  A    between atoms: C_13  and  C_14 
REMARK       I    between atoms: C_14  and  N_16 
REMARK    7  A    between atoms: N_16  and  C_17 
ROOT
HETATM    1  N   UNL     1     -39.531 -48.894  11.219  1.00  0.00     0.089 N 
HETATM    2  H   UNL     1     -39.150 -48.223  10.548  1.00  0.00     0.316 HD
ENDROOT
BRANCH   1   3
HETATM    3  C   UNL     1     -41.010 -48.942  11.042  1.00  0.00     0.236 C 
HETATM    4  C   UNL     1     -41.611 -49.366  12.389  1.00  0.00     0.044 C 
BRANCH   3   5
HETATM    5  C   UNL     1     -41.598 -47.595  10.567  1.00  0.00     0.183 C 
BRANCH   5   6
HETATM    6  N   UNL     1     -42.824 -47.695   9.800  1.00  0.00    -0.301 N 
HETATM    7  C   UNL     1     -44.084 -47.439  10.258  1.00  0.00     0.118 A 
HETATM    8  C   UNL     1     -44.914 -47.478   9.159  1.00  0.00    -0.028 A 
HETATM    9  C   UNL     1     -46.372 -47.240   9.107  1.00  0.00     0.051 C 
HETATM   10  C   UNL     1     -44.046 -47.780   8.086  1.00  0.00     0.115 A 
HETATM   11  N   UNL     1     -42.776 -47.919   8.473  1.00  0.00    -0.310 N 
ATOM     12  HN  UNL     1     -41.962 -48.142   7.900  1.00  0.00     0.186 HD
ENDBRANCH   5   6
ENDBRANCH   3   5
ENDBRANCH   1   3
BRANCH   1  13
HETATM   13  C   UNL     1     -39.164 -48.469  12.577  1.00  0.00     0.279 C 
BRANCH  13  14
HETATM   14  C   UNL     1     -37.909 -49.169  13.097  1.00  0.00     0.132 C 
BRANCH  14  15
HETATM   15  C   UNL     1     -38.092 -50.668  12.956  1.00  0.00     0.219 C 
HETATM   16  O   UNL     1     -37.567 -51.327  12.065  1.00  0.00    -0.274 OA
HETATM   17  N   UNL     1     -38.918 -51.223  13.909  1.00  0.00    -0.356 N 
HETATM   18  H   UNL     1     -39.068 -50.703  14.766  1.00  0.00     0.162 HD
BRANCH  17  19
HETATM   19  C   UNL     1     -39.178 -52.650  13.910  1.00  0.00     0.084 C 
HETATM   20  C   UNL     1     -40.469 -53.028  13.168  1.00  0.00     0.025 C 
HETATM   21  C   UNL     1     -41.119 -54.155  13.966  1.00  0.00     0.002 C 
HETATM   22  C   UNL     1     -40.144 -54.494  15.083  1.00  0.00     0.002 C 
HETATM   23  C   UNL     1     -39.379 -53.201  15.317  1.00  0.00     0.025 C 
ENDBRANCH  17  19
ENDBRANCH  14  15
ENDBRANCH  13  14
ENDBRANCH   1  13
TORSDOF 7
ENDMDL
MODEL 3
REMARK VINA RESULT:      -5.8      2.298      3.288
REMARK  7 active torsions:
REMARK  status: ('A' for Active; 'I' for Inactive)
REMARK    1  A    between atoms: C_2  and  C_3 
REMARK    2  A    between atoms: C_2  and  N_11 
REMARK    3  A    between atoms: C_3  and  N_4 
REMARK    4  A    between atoms: N_11  and  C_12 
REMARK    5  A    between atoms: C_12  and  C_13 
REMARK    6  A    between atoms: C_13  and  C_14 
REMARK       I    between atoms: C_14  and  N_16 
REMARK    7  A    between atoms: N_16  and  C_17 
ROOT
HETATM    1  N   UNL     1     -40.563 -50.403  10.869  1.00  0.00     0.089 N 
HETATM    2  H   UNL     1     -39.601 -50.445  10.526  1.00  0.00     0.316 HD
ENDROOT
BRANCH   1   3
HETATM    3  C   UNL     1     -40.929 -48.970  11.057  1.00  0.00     0.236 C 
HETATM    4  C   UNL     1     -42.225 -48.942  11.878  1.00  0.00     0.044 C 
BRANCH   3   5
HETATM    5  C   UNL     1     -39.813 -48.155  11.746  1.00  0.00     0.183 C 
BRANCH   5   6
HETATM    6  N   UNL     1     -39.913 -46.717  11.588  1.00  0.00    -0.301 N 
HETATM    7  C   UNL     1     -39.885 -45.793  12.591  1.00  0.00     0.118 A 
HETATM    8  C   UNL     1     -39.824 -44.558  11.982  1.00  0.00    -0.028 A 
HETATM    9  C   UNL     1     -39.746 -43.228  12.622  1.00  0.00     0.051 C 
HETATM   10  C   UNL     1     -39.833 -44.858  10.602  1.00  0.00     0.115 A 
HETATM   11  N   UNL     1     -39.894 -46.169  10.359  1.00  0.00    -0.310 N 
ATOM     12  HN  UNL     1     -39.920 -46.643   9.455  1.00  0.00     0.186 HD
ENDBRANCH   5   6
ENDBRANCH   3   5
ENDBRANCH   1   3
BRANCH   1  13
HETATM   13  C   UNL     1     -40.651 -51.152  12.130  1.00  0.00     0.279 C 
BRANCH  13  14
HETATM   14  C   UNL     1     -41.103 -52.598  11.929  1.00  0.00     0.132 C 
BRANCH  14  15
HETATM   15  C   UNL     1     -42.271 -52.878  12.855  1.00  0.00     0.219 C 
HETATM   16  O   UNL     1     -42.191 -53.618  13.830  1.00  0.00    -0.274 OA
HETATM   17  N   UNL     1     -43.438 -52.242  12.492  1.00  0.00    -0.356 N 
HETATM   18  H   UNL     1     -43.367 -51.436  11.883  1.00  0.00     0.162 HD
BRANCH  17  19
HETATM   19  C   UNL     1     -44.638 -52.406  13.290  1.00  0.00     0.084 C 
HETATM   20  C   UNL     1     -45.926 -52.392  12.453  1.00  0.00     0.025 C 
HETATM   21  C   UNL     1     -46.969 -51.631  13.266  1.00  0.00     0.002 C 
HETATM   22  C   UNL     1     -46.315 -51.321  14.604  1.00  0.00     0.002 C 
HETATM   23  C   UNL     1     -44.829 -51.269  14.289  1.00  0.00     0.025 C 
ENDBRANCH  17  19
ENDBRANCH  14  15
ENDBRANCH  13  14
ENDBRANCH   1  13
TORSDOF 7
ENDMDL
MODEL 4
REMARK VINA RESULT:      -5.8      1.802      5.517
REMARK  7 active torsions:
REMARK  status: ('A' for Active; 'I' for Inactive)
REMARK    1  A    between atoms: C_2  and  C_3 
REMARK    2  A    between atoms: C_2  and  N_11 
REMARK    3  A    between atoms: C_3  and  N_4 
REMARK    4  A    between atoms: N_11  and  C_12 
REMARK    5  A    between atoms: C_12  and  C_13 
REMARK    6  A    between atoms: C_13  and  C_14 
REMARK       I    between atoms: C_14  and  N_16 
REMARK    7  A    between atoms: N_16  and  C_17 
ROOT
HETATM    1  N   UNL     1     -40.978 -51.538  11.261  1.00  0.00     0.089 N 
HETATM    2  H   UNL     1     -41.419 -50.935  10.564  1.00  0.00     0.316 HD
ENDROOT
BRANCH   1   3
HETATM    3  C   UNL     1     -42.047 -52.120  12.120  1.00  0.00     0.236 C 
HETATM    4  C   UNL     1     -41.383 -53.177  13.013  1.00  0.00     0.044 C 
BRANCH   3   5
HETATM    5  C   UNL     1     -42.779 -51.054  12.965  1.00  0.00     0.183 C 
BRANCH   5   6
HETATM    6  N   UNL     1     -44.140 -51.389  13.335  1.00  0.00    -0.301 N 
HETATM    7  C   UNL     1     -44.716 -51.187  14.556  1.00  0.00     0.118 A 
HETATM    8  C   UNL     1     -46.055 -51.476  14.407  1.00  0.00    -0.028 A 
HETATM    9  C   UNL     1     -47.125 -51.391  15.424  1.00  0.00     0.051 C 
HETATM   10  C   UNL     1     -46.174 -51.856  13.052  1.00  0.00     0.115 A 
HETATM   11  N   UNL     1     -45.011 -51.810  12.399  1.00  0.00    -0.310 N 
ATOM     12  HN  UNL     1     -44.826 -52.040  11.422  1.00  0.00     0.186 HD
ENDBRANCH   5   6
ENDBRANCH   3   5
ENDBRANCH   1   3
BRANCH   1  13
HETATM   13  C   UNL     1     -40.029 -50.739  12.049  1.00  0.00     0.279 C 
BRANCH  13  14
HETATM   14  C   UNL     1     -39.509 -49.520  11.289  1.00  0.00     0.132 C 
BRANCH  14  15
HETATM   15  C   UNL     1     -40.597 -48.464  11.255  1.00  0.00     0.219 C 
HETATM   16  O   UNL     1     -40.745 -47.624  12.136  1.00  0.00    -0.274 OA
HETATM   17  N   UNL     1     -41.421 -48.544  10.153  1.00  0.00    -0.356 N 
HETATM   18  H   UNL     1     -41.076 -49.042   9.340  1.00  0.00     0.162 HD
BRANCH  17  19
HETATM   19  C   UNL     1     -42.501 -47.592   9.976  1.00  0.00     0.084 C 
HETATM   20  C   UNL     1     -43.730 -47.909  10.841  1.00  0.00     0.025 C 
HETATM   21  C   UNL     1     -44.958 -47.592   9.991  1.00  0.00     0.002 C 
HETATM   22  C   UNL     1     -44.428 -46.987   8.700  1.00  0.00     0.002 C 
HETATM   23  C   UNL     1     -43.039 -47.584   8.550  1.00  0.00     0.025 C 
ENDBRANCH  17  19
ENDBRANCH  14  15
ENDBRANCH  13  14
ENDBRANCH   1  13
TORSDOF 7
ENDMDL
MODEL 5
REMARK VINA RESULT:      -5.6      3.400      6.737
REMARK  7 active torsions:
REMARK  status: ('A' for Active; 'I' for Inactive)
REMARK    1  A    between atoms: C_2  and  C_3 
REMARK    2  A    between atoms: C_2  and  N_11 
REMARK    3  A    between atoms: C_3  and  N_4 
REMARK    4  A    between atoms: N_11  and  C_12 
REMARK    5  A    between atoms: C_12  and  C_13 
REMARK    6  A    between atoms: C_13  and  C_14 
REMARK       I    between atoms: C_14  and  N_16 
REMARK    7  A    between atoms: N_16  and  C_17 
ROOT
HETATM    1  N   UNL     1     -44.452 -50.530  13.406  1.00  0.00     0.089 N 
HETATM    2  H   UNL     1     -45.159 -49.822  13.197  1.00  0.00     0.316 HD
ENDROOT
BRANCH   1   3
HETATM    3  C   UNL     1     -45.147 -51.828  13.640  1.00  0.00     0.236 C 
HETATM    4  C   UNL     1     -46.643 -51.587  13.399  1.00  0.00     0.044 C 
BRANCH   3   5
HETATM    5  C   UNL     1     -44.611 -52.961  12.737  1.00  0.00     0.183 C 
BRANCH   5   6
HETATM    6  N   UNL     1     -43.168 -53.101  12.717  1.00  0.00    -0.301 N 
HETATM    7  C   UNL     1     -42.407 -53.737  13.656  1.00  0.00     0.118 A 
HETATM    8  C   UNL     1     -41.127 -53.790  13.149  1.00  0.00    -0.028 A 
HETATM    9  C   UNL     1     -39.928 -54.400  13.762  1.00  0.00     0.051 C 
HETATM   10  C   UNL     1     -41.228 -53.142  11.898  1.00  0.00     0.115 A 
HETATM   11  N   UNL     1     -42.465 -52.717  11.636  1.00  0.00    -0.310 N 
ATOM     12  HN  UNL     1     -42.799 -52.218  10.810  1.00  0.00     0.186 HD
ENDBRANCH   5   6
ENDBRANCH   3   5
ENDBRANCH   1   3
BRANCH   1  13
HETATM   13  C   UNL     1     -43.690 -50.106  14.588  1.00  0.00     0.279 C 
BRANCH  13  14
HETATM   14  C   UNL     1     -42.646 -49.037  14.267  1.00  0.00     0.132 C 
BRANCH  14  15
HETATM   15  C   UNL     1     -41.766 -49.537  13.138  1.00  0.00     0.219 C 
HETATM   16  O   UNL     1     -42.176 -49.716  11.996  1.00  0.00    -0.274 OA
HETATM   17  N   UNL     1     -40.465 -49.793  13.514  1.00  0.00    -0.356 N 
HETATM   18  H   UNL     1     -40.121 -49.353  14.359  1.00  0.00     0.162 HD
BRANCH  17  19
HETATM   19  C   UNL     1     -39.501 -50.266  12.537  1.00  0.00     0.084 C 
HETATM   20  C   UNL     1     -38.413 -51.160  13.149  1.00  0.00     0.025 C 
HETATM   21  C   UNL     1     -37.107 -50.804  12.445  1.00  0.00     0.002 C 
HETATM   22  C   UNL     1     -37.474 -49.803  11.360  1.00  0.00     0.002 C 
HETATM   23  C   UNL     1     -38.727 -49.124  11.888  1.00  0.00     0.025 C 
ENDBRANCH  17  19
ENDBRANCH  14  15
ENDBRANCH  13  14
ENDBRANCH   1  13
TORSDOF 7
ENDMDL
MODEL 6
REMARK VINA RESULT:      -5.4      2.126      5.951
REMARK  7 active torsions:
REMARK  status: ('A' for Active; 'I' for Inactive)
REMARK    1  A    between atoms: C_2  and  C_3 
REMARK    2  A    between atoms: C_2  and  N_11 
REMARK    3  A    between atoms: C_3  and  N_4 
REMARK    4  A    between atoms: N_11  and  C_12 
REMARK    5  A    between atoms: C_12  and  C_13 
REMARK    6  A    between atoms: C_13  and  C_14 
REMARK       I    between atoms: C_14  and  N_16 
REMARK    7  A    between atoms: N_16  and  C_17 
ROOT
HETATM    1  N   UNL     1     -42.270 -53.012  14.781  1.00  0.00     0.089 N 
HETATM    2  H   UNL     1     -41.659 -53.155  15.588  1.00  0.00     0.316 HD
ENDROOT
BRANCH   1   3
HETATM    3  C   UNL     1     -43.127 -54.221  14.623  1.00  0.00     0.236 C 
HETATM    4  C   UNL     1     -42.495 -55.334  15.469  1.00  0.00     0.044 C 
BRANCH   3   5
HETATM    5  C   UNL     1     -44.594 -53.969  15.036  1.00  0.00     0.183 C 
BRANCH   5   6
HETATM    6  N   UNL     1     -45.299 -52.987  14.235  1.00  0.00    -0.301 N 
HETATM    7  C   UNL     1     -45.673 -53.131  12.930  1.00  0.00     0.118 A 
HETATM    8  C   UNL     1     -46.469 -52.047  12.631  1.00  0.00    -0.028 A 
HETATM    9  C   UNL     1     -47.152 -51.740  11.356  1.00  0.00     0.051 C 
HETATM   10  C   UNL     1     -46.497 -51.303  13.832  1.00  0.00     0.115 A 
HETATM   11  N   UNL     1     -45.782 -51.868  14.806  1.00  0.00    -0.310 N 
ATOM     12  HN  UNL     1     -45.635 -51.532  15.758  1.00  0.00     0.186 HD
ENDBRANCH   5   6
ENDBRANCH   3   5
ENDBRANCH   1   3
BRANCH   1  13
HETATM   13  C   UNL     1     -41.438 -52.781  13.592  1.00  0.00     0.279 C 
BRANCH  13  14
HETATM   14  C   UNL     1     -42.235 -52.234  12.409  1.00  0.00     0.132 C 
BRANCH  14  15
HETATM   15  C   UNL     1     -42.504 -50.760  12.640  1.00  0.00     0.219 C 
HETATM   16  O   UNL     1     -43.149 -50.337  13.594  1.00  0.00    -0.274 OA
HETATM   17  N   UNL     1     -41.976 -49.935  11.671  1.00  0.00    -0.356 N 
HETATM   18  H   UNL     1     -41.224 -50.300  11.099  1.00  0.00     0.162 HD
BRANCH  17  19
HETATM   19  C   UNL     1     -42.142 -48.497  11.764  1.00  0.00     0.084 C 
HETATM   20  C   UNL     1     -43.424 -47.993  11.083  1.00  0.00     0.025 C 
HETATM   21  C   UNL     1     -43.069 -46.672  10.406  1.00  0.00     0.002 C 
HETATM   22  C   UNL     1     -41.632 -46.371  10.800  1.00  0.00     0.002 C 
HETATM   23  C   UNL     1     -41.022 -47.738  11.062  1.00  0.00     0.025 C 
ENDBRANCH  17  19
ENDBRANCH  14  15
ENDBRANCH  13  14
ENDBRANCH   1  13
TORSDOF 7
ENDMDL
MODEL 7
REMARK VINA RESULT:      -5.3      2.946      3.741
REMARK  7 active torsions:
REMARK  status: ('A' for Active; 'I' for Inactive)
REMARK    1  A    between atoms: C_2  and  C_3 
REMARK    2  A    between atoms: C_2  and  N_11 
REMARK    3  A    between atoms: C_3  and  N_4 
REMARK    4  A    between atoms: N_11  and  C_12 
REMARK    5  A    between atoms: C_12  and  C_13 
REMARK    6  A    between atoms: C_13  and  C_14 
REMARK       I    between atoms: C_14  and  N_16 
REMARK    7  A    between atoms: N_16  and  C_17 
ROOT
HETATM    1  N   UNL     1     -39.661 -50.620  13.737  1.00  0.00     0.089 N 
HETATM    2  H   UNL     1     -40.605 -50.503  13.363  1.00  0.00     0.316 HD
ENDROOT
BRANCH   1   3
HETATM    3  C   UNL     1     -38.727 -49.796  12.919  1.00  0.00     0.236 C 
HETATM    4  C   UNL     1     -37.559 -50.706  12.516  1.00  0.00     0.044 C 
BRANCH   3   5
HETATM    5  C   UNL     1     -39.409 -49.179  11.678  1.00  0.00     0.183 C 
BRANCH   5   6
HETATM    6  N   UNL     1     -39.692 -47.761  11.773  1.00  0.00    -0.301 N 
HETATM    7  C   UNL     1     -39.436 -46.959  12.847  1.00  0.00     0.118 A 
HETATM    8  C   UNL     1     -39.690 -45.667  12.439  1.00  0.00    -0.028 A 
HETATM    9  C   UNL     1     -39.542 -44.419  13.217  1.00  0.00     0.051 C 
HETATM   10  C   UNL     1     -40.106 -45.809  11.096  1.00  0.00     0.115 A 
HETATM   11  N   UNL     1     -40.115 -47.081  10.691  1.00  0.00    -0.310 N 
ATOM     12  HN  UNL     1     -40.380 -47.450   9.777  1.00  0.00     0.186 HD
ENDBRANCH   5   6
ENDBRANCH   3   5
ENDBRANCH   1   3
BRANCH   1  13
HETATM   13  C   UNL     1     -39.306 -52.046  13.690  1.00  0.00     0.279 C 
BRANCH  13  14
HETATM   14  C   UNL     1     -40.512 -52.963  13.887  1.00  0.00     0.132 C 
BRANCH  14  15
HETATM   15  C   UNL     1     -41.679 -52.414  13.089  1.00  0.00     0.219 C 
HETATM   16  O   UNL     1     -41.581 -52.045  11.923  1.00  0.00    -0.274 OA
HETATM   17  N   UNL     1     -42.859 -52.347  13.797  1.00  0.00    -0.356 N 
HETATM   18  H   UNL     1     -42.949 -52.927  14.622  1.00  0.00     0.162 HD
BRANCH  17  19
HETATM   19  C   UNL     1     -44.066 -51.853  13.162  1.00  0.00     0.084 C 
HETATM   20  C   UNL     1     -44.993 -51.102  14.130  1.00  0.00     0.025 C 
HETATM   21  C   UNL     1     -46.422 -51.482  13.752  1.00  0.00     0.002 C 
HETATM   22  C   UNL     1     -46.310 -52.346  12.505  1.00  0.00     0.002 C 
HETATM   23  C   UNL     1     -44.934 -52.980  12.612  1.00  0.00     0.025 C 
ENDBRANCH  17  19
ENDBRANCH  14  15
ENDBRANCH  13  14
ENDBRANCH   1  13
TORSDOF 7
ENDMDL
MODEL 8
REMARK VINA RESULT:      -5.3      2.474      3.130
REMARK  7 active torsions:
REMARK  status: ('A' for Active; 'I' for Inactive)
REMARK    1  A    between atoms: C_2  and  C_3 
REMARK    2  A    between atoms: C_2  and  N_11 
REMARK    3  A    between atoms: C_3  and  N_4 
REMARK    4  A    between atoms: N_11  and  C_12 
REMARK    5  A    between atoms: C_12  and  C_13 
REMARK    6  A    between atoms: C_13  and  C_14 
REMARK       I    between atoms: C_14  and  N_16 
REMARK    7  A    between atoms: N_16  and  C_17 
ROOT
HETATM    1  N   UNL     1     -39.585 -48.612  13.327  1.00  0.00     0.089 N 
HETATM    2  H   UNL     1     -40.321 -49.295  13.136  1.00  0.00     0.316 HD
ENDROOT
BRANCH   1   3
HETATM    3  C   UNL     1     -40.050 -47.278  12.852  1.00  0.00     0.236 C 
HETATM    4  C   UNL     1     -39.191 -46.224  13.561  1.00  0.00     0.044 C 
BRANCH   3   5
HETATM    5  C   UNL     1     -39.964 -47.130  11.317  1.00  0.00     0.183 C 
BRANCH   5   6
HETATM    6  N   UNL     1     -41.240 -47.106  10.628  1.00  0.00    -0.301 N 
HETATM    7  C   UNL     1     -42.018 -46.006  10.411  1.00  0.00     0.118 A 
HETATM    8  C   UNL     1     -43.033 -46.406   9.570  1.00  0.00    -0.028 A 
HETATM    9  C   UNL     1     -44.129 -45.587   9.008  1.00  0.00     0.051 C 
HETATM   10  C   UNL     1     -42.775 -47.778   9.352  1.00  0.00     0.115 A 
HETATM   11  N   UNL     1     -41.690 -48.208   9.999  1.00  0.00    -0.310 N 
ATOM     12  HN  UNL     1     -41.295 -49.148  10.013  1.00  0.00     0.186 HD
ENDBRANCH   5   6
ENDBRANCH   3   5
ENDBRANCH   1   3
BRANCH   1  13
HETATM   13  C   UNL     1     -38.357 -49.032  12.638  1.00  0.00     0.279 C 
BRANCH  13  14
HETATM   14  C   UNL     1     -38.351 -50.521  12.293  1.00  0.00     0.132 C 
BRANCH  14  15
HETATM   15  C   UNL     1     -39.784 -51.013  12.228  1.00  0.00     0.219 C 
HETATM   16  O   UNL     1     -40.618 -50.552  11.455  1.00  0.00    -0.274 OA
HETATM   17  N   UNL     1     -40.074 -52.014  13.130  1.00  0.00    -0.356 N 
HETATM   18  H   UNL     1     -39.300 -52.545  13.511  1.00  0.00     0.162 HD
BRANCH  17  19
HETATM   19  C   UNL     1     -41.403 -52.594  13.176  1.00  0.00     0.084 C 
HETATM   20  C   UNL     1     -42.277 -52.009  14.296  1.00  0.00     0.025 C 
HETATM   21  C   UNL     1     -43.089 -53.168  14.868  1.00  0.00     0.002 C 
HETATM   22  C   UNL     1     -42.766 -54.375  14.000  1.00  0.00     0.002 C 
HETATM   23  C   UNL     1     -41.372 -54.090  13.468  1.00  0.00     0.025 C 
ENDBRANCH  17  19
ENDBRANCH  14  15
ENDBRANCH  13  14
ENDBRANCH   1  13
TORSDOF 7
ENDMDL
MODEL 9
REMARK VINA RESULT:      -5.2      1.323      1.855
REMARK  7 active torsions:
REMARK  status: ('A' for Active; 'I' for Inactive)
REMARK    1  A    between atoms: C_2  and  C_3 
REMARK    2  A    between atoms: C_2  and  N_11 
REMARK    3  A    between atoms: C_3  and  N_4 
REMARK    4  A    between atoms: N_11  and  C_12 
REMARK    5  A    between atoms: C_12  and  C_13 
REMARK    6  A    between atoms: C_13  and  C_14 
REMARK       I    between atoms: C_14  and  N_16 
REMARK    7  A    between atoms: N_16  and  C_17 
ROOT
HETATM    1  N   UNL     1     -40.595 -49.840  13.523  1.00  0.00     0.089 N 
HETATM    2  H   UNL     1     -41.606 -49.862  13.375  1.00  0.00     0.316 HD
ENDROOT
BRANCH   1   3
HETATM    3  C   UNL     1     -40.109 -48.461  13.231  1.00  0.00     0.236 C 
HETATM    4  C   UNL     1     -38.856 -48.236  14.086  1.00  0.00     0.044 C 
BRANCH   3   5
HETATM    5  C   UNL     1     -39.811 -48.240  11.732  1.00  0.00     0.183 C 
BRANCH   5   6
HETATM    6  N   UNL     1     -40.880 -47.615  10.978  1.00  0.00    -0.301 N 
HETATM    7  C   UNL     1     -41.966 -48.248  10.444  1.00  0.00     0.118 A 
HETATM    8  C   UNL     1     -42.805 -47.258   9.981  1.00  0.00    -0.028 A 
HETATM    9  C   UNL     1     -44.128 -47.410   9.339  1.00  0.00     0.051 C 
HETATM   10  C   UNL     1     -42.117 -46.060  10.278  1.00  0.00     0.115 A 
HETATM   11  N   UNL     1     -40.944 -46.274  10.878  1.00  0.00    -0.310 N 
ATOM     12  HN  UNL     1     -40.258 -45.585  11.187  1.00  0.00     0.186 HD
ENDBRANCH   5   6
ENDBRANCH   3   5
ENDBRANCH   1   3
BRANCH   1  13
HETATM   13  C   UNL     1     -39.964 -50.832  12.643  1.00  0.00     0.279 C 
BRANCH  13  14
HETATM   14  C   UNL     1     -40.976 -51.765  11.980  1.00  0.00     0.132 C 
BRANCH  14  15
HETATM   15  C   UNL     1     -42.037 -52.137  12.997  1.00  0.00     0.219 C 
HETATM   16  O   UNL     1     -41.779 -52.664  14.075  1.00  0.00    -0.274 OA
HETATM   17  N   UNL     1     -43.324 -51.848  12.596  1.00  0.00    -0.356 N 
HETATM   18  H   UNL     1     -43.447 -51.162  11.861  1.00  0.00     0.162 HD
BRANCH  17  19
HETATM   19  C   UNL     1     -44.445 -52.137  13.470  1.00  0.00     0.084 C 
HETATM   20  C   UNL     1     -45.772 -52.299  12.714  1.00  0.00     0.025 C 
HETATM   21  C   UNL     1     -46.851 -51.652  13.579  1.00  0.00     0.002 C 
HETATM   22  C   UNL     1     -46.160 -51.233  14.867  1.00  0.00     0.002 C 
HETATM   23  C   UNL     1     -44.713 -51.009  14.460  1.00  0.00     0.025 C 
ENDBRANCH  17  19
ENDBRANCH  14  15
ENDBRANCH  13  14
ENDBRANCH   1  13
TORSDOF 7
ENDMDL
