MODEL 1
REMARK VINA RESULT:      -5.8      0.000      0.000
REMARK  4 active torsions:
REMARK  status: ('A' for Active; 'I' for Inactive)
REMARK    1  A    between atoms: C_2  and  C_3 
REMARK    2  A    between atoms: C_2  and  N_10 
REMARK    3  A    between atoms: C_3  and  N_4 
REMARK       I    between atoms: N_10  and  C_11 
REMARK    4  A    between atoms: C_11  and  C_13 
ROOT
HETATM    1  N   UNL     1     -42.758 -50.194  12.299  1.00  0.00    -0.355 N 
HETATM    2  C   UNL     1     -43.631 -50.426  13.338  1.00  0.00     0.223 C 
HETATM    3  O   UNL     1     -43.740 -49.677  14.301  1.00  0.00    -0.273 OA
HETATM    4  H   UNL     1     -42.552 -50.969  11.681  1.00  0.00     0.162 HD
ENDROOT
BRANCH   1   5
HETATM    5  C   UNL     1     -41.828 -49.048  12.270  1.00  0.00     0.100 C 
HETATM    6  C   UNL     1     -40.597 -49.420  13.103  1.00  0.00     0.034 C 
BRANCH   5   7
HETATM    7  C   UNL     1     -41.456 -48.636  10.830  1.00  0.00     0.172 C 
BRANCH   7   8
HETATM    8  N   UNL     1     -42.544 -48.023  10.087  1.00  0.00    -0.302 N 
HETATM    9  C   UNL     1     -43.572 -47.280  10.597  1.00  0.00     0.111 A 
HETATM   10  C   UNL     1     -44.384 -46.972   9.530  1.00  0.00     0.037 A 
HETATM   11  C   UNL     1     -43.769 -47.579   8.424  1.00  0.00     0.108 A 
HETATM   12  N   UNL     1     -42.645 -48.221   8.758  1.00  0.00    -0.310 N 
ATOM     13  HN  UNL     1     -42.011 -48.739   8.149  1.00  0.00     0.186 HD
ENDBRANCH   7   8
ENDBRANCH   5   7
ENDBRANCH   1   5
BRANCH   2  14
HETATM   14  C   UNL     1     -44.448 -51.698  13.187  1.00  0.00     0.092 C 
HETATM   15  C   UNL     1     -45.925 -51.487  13.568  1.00  0.00     0.030 C 
HETATM   16  C   UNL     1     -46.538 -52.805  14.044  1.00  0.00     0.141 C 
HETATM   17  S   UNL     1     -45.217 -53.990  14.148  1.00  0.00     0.145 S 
HETATM   18  O   UNL     1     -45.238 -54.620  15.448  1.00  0.00    -0.228 OA
HETATM   19  O   UNL     1     -45.195 -54.750  12.915  1.00  0.00    -0.228 OA
HETATM   20  C   UNL     1     -43.907 -52.801  14.089  1.00  0.00     0.154 C 
ENDBRANCH   2  14
TORSDOF 4
ENDMDL
MODEL 2
REMARK VINA RESULT:      -5.6      2.485      3.999
REMARK  4 active torsions:
REMARK  status: ('A' for Active; 'I' for Inactive)
REMARK    1  A    between atoms: C_2  and  C_3 
REMARK    2  A    between atoms: C_2  and  N_10 
REMARK    3  A    between atoms: C_3  and  N_4 
REMARK       I    between atoms: N_10  and  C_11 
REMARK    4  A    between atoms: C_11  and  C_13 
ROOT
HETATM    1  N   UNL     1     -42.396 -50.559  12.070  1.00  0.00    -0.355 N 
HETATM    2  C   UNL     1     -42.203 -51.920  12.140  1.00  0.00     0.223 C 
HETATM    3  O   UNL     1     -41.162 -52.467  11.798  1.00  0.00    -0.273 OA
HETATM    4  H   UNL     1     -43.348 -50.218  12.132  1.00  0.00     0.162 HD
ENDROOT
BRANCH   1   5
HETATM    5  C   UNL     1     -41.386 -49.630  11.524  1.00  0.00     0.100 C 
HETATM    6  C   UNL     1     -42.121 -48.391  11.002  1.00  0.00     0.034 C 
BRANCH   5   7
HETATM    7  C   UNL     1     -40.302 -49.273  12.563  1.00  0.00     0.172 C 
BRANCH   7   8
HETATM    8  N   UNL     1     -39.026 -49.932  12.341  1.00  0.00    -0.302 N 
HETATM    9  C   UNL     1     -38.281 -50.610  13.264  1.00  0.00     0.111 A 
HETATM   10  C   UNL     1     -37.132 -50.999  12.613  1.00  0.00     0.037 A 
HETATM   11  C   UNL     1     -37.274 -50.502  11.309  1.00  0.00     0.108 A 
HETATM   12  N   UNL     1     -38.428 -49.850  11.137  1.00  0.00    -0.310 N 
ATOM     13  HN  UNL     1     -38.775 -49.397  10.291  1.00  0.00     0.186 HD
ENDBRANCH   7   8
ENDBRANCH   5   7
ENDBRANCH   1   5
BRANCH   2  14
HETATM   14  C   UNL     1     -43.400 -52.687  12.677  1.00  0.00     0.092 C 
HETATM   15  C   UNL     1     -44.083 -51.952  13.845  1.00  0.00     0.030 C 
HETATM   16  C   UNL     1     -44.789 -52.956  14.757  1.00  0.00     0.141 C 
HETATM   17  S   UNL     1     -44.349 -54.581  14.187  1.00  0.00     0.145 S 
HETATM   18  O   UNL     1     -43.867 -55.366  15.300  1.00  0.00    -0.228 OA
HETATM   19  O   UNL     1     -45.397 -55.047  13.301  1.00  0.00    -0.228 OA
HETATM   20  C   UNL     1     -42.979 -54.056  13.197  1.00  0.00     0.154 C 
ENDBRANCH   2  14
TORSDOF 4
ENDMDL
MODEL 3
REMARK VINA RESULT:      -5.5      4.725      7.325
REMARK  4 active torsions:
REMARK  status: ('A' for Active; 'I' for Inactive)
REMARK    1  A    between atoms: C_2  and  C_3 
REMARK    2  A    between atoms: C_2  and  N_10 
REMARK    3  A    between atoms: C_3  and  N_4 
REMARK       I    between atoms: N_10  and  C_11 
REMARK    4  A    between atoms: C_11  and  C_13 
ROOT
HETATM    1  N   UNL     1     -39.516 -48.512  11.279  1.00  0.00    -0.355 N 
HETATM    2  C   UNL     1     -40.856 -48.295  11.051  1.00  0.00     0.223 C 
HETATM    3  O   UNL     1     -41.695 -49.186  11.093  1.00  0.00    -0.273 OA
HETATM    4  H   UNL     1     -38.869 -47.790  10.984  1.00  0.00     0.162 HD
ENDROOT
BRANCH   1   5
HETATM    5  C   UNL     1     -38.951 -49.850  11.545  1.00  0.00     0.100 C 
HETATM    6  C   UNL     1     -37.446 -49.789  11.268  1.00  0.00     0.034 C 
BRANCH   5   7
HETATM    7  C   UNL     1     -39.263 -50.340  12.975  1.00  0.00     0.172 C 
BRANCH   7   8
HETATM    8  N   UNL     1     -39.860 -51.663  13.034  1.00  0.00    -0.302 N 
HETATM    9  C   UNL     1     -39.669 -52.609  14.002  1.00  0.00     0.111 A 
HETATM   10  C   UNL     1     -40.383 -53.715  13.598  1.00  0.00     0.037 A 
HETATM   11  C   UNL     1     -40.961 -53.342  12.375  1.00  0.00     0.108 A 
HETATM   12  N   UNL     1     -40.646 -52.090  12.026  1.00  0.00    -0.310 N 
ATOM     13  HN  UNL     1     -40.934 -51.578  11.192  1.00  0.00     0.186 HD
ENDBRANCH   7   8
ENDBRANCH   5   7
ENDBRANCH   1   5
BRANCH   2  14
HETATM   14  C   UNL     1     -41.203 -46.850  10.735  1.00  0.00     0.092 C 
HETATM   15  C   UNL     1     -39.985 -45.918  10.874  1.00  0.00     0.030 C 
HETATM   16  C   UNL     1     -40.444 -44.498  11.209  1.00  0.00     0.141 C 
HETATM   17  S   UNL     1     -42.197 -44.570  11.497  1.00  0.00     0.145 S 
HETATM   18  O   UNL     1     -42.502 -43.936  12.761  1.00  0.00    -0.228 OA
HETATM   19  O   UNL     1     -42.872 -44.215  10.266  1.00  0.00    -0.228 OA
HETATM   20  C   UNL     1     -42.274 -46.328  11.685  1.00  0.00     0.154 C 
ENDBRANCH   2  14
TORSDOF 4
ENDMDL
MODEL 4
REMARK VINA RESULT:      -5.5      2.678      4.158
REMARK  4 active torsions:
REMARK  status: ('A' for Active; 'I' for Inactive)
REMARK    1  A    between atoms: C_2  and  C_3 
REMARK    2  A    between atoms: C_2  and  N_10 
REMARK    3  A    between atoms: C_3  and  N_4 
REMARK       I    between atoms: N_10  and  C_11 
REMARK    4  A    between atoms: C_11  and  C_13 
ROOT
HETATM    1  N   UNL     1     -42.198 -50.054  12.016  1.00  0.00    -0.355 N 
HETATM    2  C   UNL     1     -42.070 -51.410  12.213  1.00  0.00     0.223 C 
HETATM    3  O   UNL     1     -41.180 -52.080  11.702  1.00  0.00    -0.273 OA
HETATM    4  H   UNL     1     -43.084 -49.628  12.263  1.00  0.00     0.162 HD
ENDROOT
BRANCH   1   5
HETATM    5  C   UNL     1     -41.308 -49.282  11.126  1.00  0.00     0.100 C 
HETATM    6  C   UNL     1     -42.152 -48.207  10.435  1.00  0.00     0.034 C 
BRANCH   5   7
HETATM    7  C   UNL     1     -40.104 -48.683  11.884  1.00  0.00     0.172 C 
BRANCH   7   8
HETATM    8  N   UNL     1     -38.958 -49.571  11.976  1.00  0.00    -0.302 N 
HETATM    9  C   UNL     1     -38.476 -50.178  13.102  1.00  0.00     0.111 A 
HETATM   10  C   UNL     1     -37.348 -50.863  12.712  1.00  0.00     0.037 A 
HETATM   11  C   UNL     1     -37.227 -50.602  11.338  1.00  0.00     0.108 A 
HETATM   12  N   UNL     1     -38.207 -49.814  10.883  1.00  0.00    -0.310 N 
ATOM     13  HN  UNL     1     -38.353 -49.477   9.932  1.00  0.00     0.186 HD
ENDBRANCH   7   8
ENDBRANCH   5   7
ENDBRANCH   1   5
BRANCH   2  14
HETATM   14  C   UNL     1     -43.134 -52.007  13.119  1.00  0.00     0.092 C 
HETATM   15  C   UNL     1     -43.872 -53.181  12.451  1.00  0.00     0.030 C 
HETATM   16  C   UNL     1     -45.280 -53.317  13.031  1.00  0.00     0.141 C 
HETATM   17  S   UNL     1     -45.541 -51.921  14.100  1.00  0.00     0.145 S 
HETATM   18  O   UNL     1     -46.786 -51.275  13.751  1.00  0.00    -0.228 OA
HETATM   19  O   UNL     1     -45.228 -52.325  15.456  1.00  0.00    -0.228 OA
HETATM   20  C   UNL     1     -44.187 -50.966  13.480  1.00  0.00     0.154 C 
ENDBRANCH   2  14
TORSDOF 4
ENDMDL
MODEL 5
REMARK VINA RESULT:      -5.4      6.118      7.676
REMARK  4 active torsions:
REMARK  status: ('A' for Active; 'I' for Inactive)
REMARK    1  A    between atoms: C_2  and  C_3 
REMARK    2  A    between atoms: C_2  and  N_10 
REMARK    3  A    between atoms: C_3  and  N_4 
REMARK       I    between atoms: N_10  and  C_11 
REMARK    4  A    between atoms: C_11  and  C_13 
ROOT
HETATM    1  N   UNL     1     -41.389 -45.749  11.365  1.00  0.00    -0.355 N 
HETATM    2  C   UNL     1     -40.974 -44.537  10.863  1.00  0.00     0.223 C 
HETATM    3  O   UNL     1     -40.085 -44.426  10.029  1.00  0.00    -0.273 OA
HETATM    4  H   UNL     1     -41.940 -45.739  12.216  1.00  0.00     0.162 HD
ENDROOT
BRANCH   1   5
HETATM    5  C   UNL     1     -40.765 -47.033  10.987  1.00  0.00     0.100 C 
HETATM    6  C   UNL     1     -39.699 -47.365  12.037  1.00  0.00     0.034 C 
BRANCH   5   7
HETATM    7  C   UNL     1     -41.805 -48.163  10.832  1.00  0.00     0.172 C 
BRANCH   7   8
HETATM    8  N   UNL     1     -42.871 -47.864   9.891  1.00  0.00    -0.302 N 
HETATM    9  C   UNL     1     -44.159 -47.518  10.191  1.00  0.00     0.111 A 
HETATM   10  C   UNL     1     -44.812 -47.399   8.985  1.00  0.00     0.037 A 
HETATM   11  C   UNL     1     -43.838 -47.700   8.020  1.00  0.00     0.108 A 
HETATM   12  N   UNL     1     -42.652 -47.984   8.567  1.00  0.00    -0.310 N 
ATOM     13  HN  UNL     1     -41.784 -48.233   8.093  1.00  0.00     0.186 HD
ENDBRANCH   7   8
ENDBRANCH   5   7
ENDBRANCH   1   5
BRANCH   2  14
HETATM   14  C   UNL     1     -41.716 -43.343  11.440  1.00  0.00     0.092 C 
HETATM   15  C   UNL     1     -40.758 -42.210  11.854  1.00  0.00     0.030 C 
HETATM   16  C   UNL     1     -41.382 -41.376  12.973  1.00  0.00     0.141 C 
HETATM   17  S   UNL     1     -42.880 -42.197  13.466  1.00  0.00     0.145 S 
HETATM   18  O   UNL     1     -42.882 -42.371  14.901  1.00  0.00    -0.228 OA
HETATM   19  O   UNL     1     -43.985 -41.588  12.754  1.00  0.00    -0.228 OA
HETATM   20  C   UNL     1     -42.501 -43.740  12.685  1.00  0.00     0.154 C 
ENDBRANCH   2  14
TORSDOF 4
ENDMDL
MODEL 6
REMARK VINA RESULT:      -5.2      3.799      6.069
REMARK  4 active torsions:
REMARK  status: ('A' for Active; 'I' for Inactive)
REMARK    1  A    between atoms: C_2  and  C_3 
REMARK    2  A    between atoms: C_2  and  N_10 
REMARK    3  A    between atoms: C_3  and  N_4 
REMARK       I    between atoms: N_10  and  C_11 
REMARK    4  A    between atoms: C_11  and  C_13 
ROOT
HETATM    1  N   UNL     1     -42.669 -52.453  13.225  1.00  0.00    -0.355 N 
HETATM    2  C   UNL     1     -41.760 -51.841  12.391  1.00  0.00     0.223 C 
HETATM    3  O   UNL     1     -41.121 -52.444  11.538  1.00  0.00    -0.273 OA
HETATM    4  H   UNL     1     -42.962 -51.944  14.051  1.00  0.00     0.162 HD
ENDROOT
BRANCH   1   5
HETATM    5  C   UNL     1     -42.922 -53.907  13.209  1.00  0.00     0.100 C 
HETATM    6  C   UNL     1     -42.311 -54.505  14.481  1.00  0.00     0.034 C 
BRANCH   5   7
HETATM    7  C   UNL     1     -44.424 -54.235  13.072  1.00  0.00     0.172 C 
BRANCH   7   8
HETATM    8  N   UNL     1     -45.298 -53.082  13.194  1.00  0.00    -0.302 N 
HETATM    9  C   UNL     1     -45.802 -52.550  14.349  1.00  0.00     0.111 A 
HETATM   10  C   UNL     1     -46.624 -51.516  13.964  1.00  0.00     0.037 A 
HETATM   11  C   UNL     1     -46.558 -51.508  12.562  1.00  0.00     0.108 A 
HETATM   12  N   UNL     1     -45.750 -52.461  12.087  1.00  0.00    -0.310 N 
ATOM     13  HN  UNL     1     -45.527 -52.669  11.114  1.00  0.00     0.186 HD
ENDBRANCH   7   8
ENDBRANCH   5   7
ENDBRANCH   1   5
BRANCH   2  14
HETATM   14  C   UNL     1     -41.616 -50.346  12.626  1.00  0.00     0.092 C 
HETATM   15  C   UNL     1     -42.976 -49.661  12.851  1.00  0.00     0.030 C 
HETATM   16  C   UNL     1     -42.902 -48.193  12.429  1.00  0.00     0.141 C 
HETATM   17  S   UNL     1     -41.318 -47.949  11.661  1.00  0.00     0.145 S 
HETATM   18  O   UNL     1     -41.501 -47.313  10.375  1.00  0.00    -0.228 OA
HETATM   19  O   UNL     1     -40.406 -47.434  12.661  1.00  0.00    -0.228 OA
HETATM   20  C   UNL     1     -40.968 -49.668  11.424  1.00  0.00     0.154 C 
ENDBRANCH   2  14
TORSDOF 4
ENDMDL
MODEL 7
REMARK VINA RESULT:      -5.1      3.648      7.104
REMARK  4 active torsions:
REMARK  status: ('A' for Active; 'I' for Inactive)
REMARK    1  A    between atoms: C_2  and  C_3 
REMARK    2  A    between atoms: C_2  and  N_10 
REMARK    3  A    between atoms: C_3  and  N_4 
REMARK       I    between atoms: N_10  and  C_11 
REMARK    4  A    between atoms: C_11  and  C_13 
ROOT
HETATM    1  N   UNL     1     -43.524 -49.808  12.485  1.00  0.00    -0.355 N 
HETATM    2  C   UNL     1     -42.216 -49.569  12.127  1.00  0.00     0.223 C 
HETATM    3  O   UNL     1     -41.278 -50.246  12.531  1.00  0.00    -0.273 OA
HETATM    4  H   UNL     1     -44.196 -49.069  12.315  1.00  0.00     0.162 HD
ENDROOT
BRANCH   1   5
HETATM    5  C   UNL     1     -43.918 -50.869  13.433  1.00  0.00     0.100 C 
HETATM    6  C   UNL     1     -43.909 -50.267  14.842  1.00  0.00     0.034 C 
BRANCH   5   7
HETATM    7  C   UNL     1     -45.283 -51.493  13.073  1.00  0.00     0.172 C 
BRANCH   7   8
HETATM    8  N   UNL     1     -45.457 -52.856  13.546  1.00  0.00    -0.302 N 
HETATM    9  C   UNL     1     -44.801 -53.970  13.101  1.00  0.00     0.111 A 
HETATM   10  C   UNL     1     -45.341 -55.030  13.793  1.00  0.00     0.037 A 
HETATM   11  C   UNL     1     -46.318 -54.457  14.622  1.00  0.00     0.108 A 
HETATM   12  N   UNL     1     -46.392 -53.130  14.476  1.00  0.00    -0.310 N 
ATOM     13  HN  UNL     1     -47.012 -52.478  14.956  1.00  0.00     0.186 HD
ENDBRANCH   7   8
ENDBRANCH   5   7
ENDBRANCH   1   5
BRANCH   2  14
HETATM   14  C   UNL     1     -42.037 -48.388  11.189  1.00  0.00     0.092 C 
HETATM   15  C   UNL     1     -40.604 -47.827  11.230  1.00  0.00     0.030 C 
HETATM   16  C   UNL     1     -40.608 -46.345  10.852  1.00  0.00     0.141 C 
HETATM   17  S   UNL     1     -42.308 -45.844  10.718  1.00  0.00     0.145 S 
HETATM   18  O   UNL     1     -42.522 -44.654  11.512  1.00  0.00    -0.228 OA
HETATM   19  O   UNL     1     -42.696 -45.930   9.325  1.00  0.00    -0.228 OA
HETATM   20  C   UNL     1     -42.974 -47.247  11.567  1.00  0.00     0.154 C 
ENDBRANCH   2  14
TORSDOF 4
ENDMDL
MODEL 8
REMARK VINA RESULT:      -5.1      3.966      7.188
REMARK  4 active torsions:
REMARK  status: ('A' for Active; 'I' for Inactive)
REMARK    1  A    between atoms: C_2  and  C_3 
REMARK    2  A    between atoms: C_2  and  N_10 
REMARK    3  A    between atoms: C_3  and  N_4 
REMARK       I    between atoms: N_10  and  C_11 
REMARK    4  A    between atoms: C_11  and  C_13 
ROOT
HETATM    1  N   UNL     1     -42.610 -49.854  12.073  1.00  0.00    -0.355 N 
HETATM    2  C   UNL     1     -41.521 -49.015  12.144  1.00  0.00     0.223 C 
HETATM    3  O   UNL     1     -40.603 -49.176  12.938  1.00  0.00    -0.273 OA
HETATM    4  H   UNL     1     -43.427 -49.518  11.576  1.00  0.00     0.162 HD
ENDROOT
BRANCH   1   5
HETATM    5  C   UNL     1     -42.804 -50.999  12.984  1.00  0.00     0.100 C 
HETATM    6  C   UNL     1     -44.281 -51.031  13.391  1.00  0.00     0.034 C 
BRANCH   5   7
HETATM    7  C   UNL     1     -42.344 -52.330  12.352  1.00  0.00     0.172 C 
BRANCH   7   8
HETATM    8  N   UNL     1     -41.166 -52.908  12.975  1.00  0.00    -0.302 N 
HETATM    9  C   UNL     1     -40.866 -54.237  13.092  1.00  0.00     0.111 A 
HETATM   10  C   UNL     1     -39.692 -54.300  13.808  1.00  0.00     0.037 A 
HETATM   11  C   UNL     1     -39.368 -52.962  14.084  1.00  0.00     0.108 A 
HETATM   12  N   UNL     1     -40.264 -52.109  13.577  1.00  0.00    -0.310 N 
ATOM     13  HN  UNL     1     -40.264 -51.090  13.633  1.00  0.00     0.186 HD
ENDBRANCH   7   8
ENDBRANCH   5   7
ENDBRANCH   1   5
BRANCH   2  14
HETATM   14  C   UNL     1     -41.561 -47.865  11.151  1.00  0.00     0.092 C 
HETATM   15  C   UNL     1     -40.235 -47.083  11.117  1.00  0.00     0.030 C 
HETATM   16  C   UNL     1     -40.486 -45.640  10.677  1.00  0.00     0.141 C 
HETATM   17  S   UNL     1     -42.248 -45.421  10.584  1.00  0.00     0.145 S 
HETATM   18  O   UNL     1     -42.625 -44.244  11.335  1.00  0.00    -0.228 OA
HETATM   19  O   UNL     1     -42.658 -45.633   9.211  1.00  0.00    -0.228 OA
HETATM   20  C   UNL     1     -42.656 -46.870  11.514  1.00  0.00     0.154 C 
ENDBRANCH   2  14
TORSDOF 4
ENDMDL
MODEL 9
REMARK VINA RESULT:      -5.1      2.172      2.750
REMARK  4 active torsions:
REMARK  status: ('A' for Active; 'I' for Inactive)
REMARK    1  A    between atoms: C_2  and  C_3 
REMARK    2  A    between atoms: C_2  and  N_10 
REMARK    3  A    between atoms: C_3  and  N_4 
REMARK       I    between atoms: N_10  and  C_11 
REMARK    4  A    between atoms: C_11  and  C_13 
ROOT
HETATM    1  N   UNL     1     -40.964 -51.240  13.386  1.00  0.00    -0.355 N 
HETATM    2  C   UNL     1     -41.269 -52.375  12.669  1.00  0.00     0.223 C 
HETATM    3  O   UNL     1     -40.451 -52.967  11.974  1.00  0.00    -0.273 OA
HETATM    4  H   UNL     1     -41.738 -50.680  13.725  1.00  0.00     0.162 HD
ENDROOT
BRANCH   1   5
HETATM    5  C   UNL     1     -39.637 -50.595  13.347  1.00  0.00     0.100 C 
HETATM    6  C   UNL     1     -38.612 -51.594  13.896  1.00  0.00     0.034 C 
BRANCH   5   7
HETATM    7  C   UNL     1     -39.271 -50.101  11.931  1.00  0.00     0.172 C 
BRANCH   7   8
HETATM    8  N   UNL     1     -40.124 -49.035  11.434  1.00  0.00    -0.302 N 
HETATM    9  C   UNL     1     -40.149 -47.737  11.861  1.00  0.00     0.111 A 
HETATM   10  C   UNL     1     -41.155 -47.123  11.150  1.00  0.00     0.037 A 
HETATM   11  C   UNL     1     -41.681 -48.132  10.329  1.00  0.00     0.108 A 
HETATM   12  N   UNL     1     -41.055 -49.301  10.497  1.00  0.00    -0.310 N 
ATOM     13  HN  UNL     1     -41.239 -50.187  10.026  1.00  0.00     0.186 HD
ENDBRANCH   7   8
ENDBRANCH   5   7
ENDBRANCH   1   5
BRANCH   2  14
HETATM   14  C   UNL     1     -42.712 -52.827  12.809  1.00  0.00     0.092 C 
HETATM   15  C   UNL     1     -43.574 -51.791  13.555  1.00  0.00     0.030 C 
HETATM   16  C   UNL     1     -44.747 -52.484  14.249  1.00  0.00     0.141 C 
HETATM   17  S   UNL     1     -44.504 -54.235  14.065  1.00  0.00     0.145 S 
HETATM   18  O   UNL     1     -44.609 -54.873  15.358  1.00  0.00    -0.228 OA
HETATM   19  O   UNL     1     -45.264 -54.678  12.914  1.00  0.00    -0.228 OA
HETATM   20  C   UNL     1     -42.800 -54.129  13.596  1.00  0.00     0.154 C 
ENDBRANCH   2  14
TORSDOF 4
ENDMDL
