MODEL 1
REMARK VINA RESULT:      -6.0      0.000      0.000
REMARK  4 active torsions:
REMARK  status: ('A' for Active; 'I' for Inactive)
REMARK    1  A    between atoms: O_2  and  C_3 
REMARK    2  A    between atoms: C_5  and  N_6 
REMARK       I    between atoms: N_6  and  C_7 
REMARK       I    between atoms: C_7  and  N_9 
REMARK    3  A    between atoms: N_9  and  C_10 
REMARK    4  A    between atoms: C_10  and  C_12 
ROOT
HETATM    1  N   UNL     1     -43.349 -53.005  11.958  1.00  0.00    -0.295 N 
HETATM    2  C   UNL     1     -44.371 -53.273  12.824  1.00  0.00     0.322 C 
HETATM    3  O   UNL     1     -45.370 -53.864  12.422  1.00  0.00    -0.247 OA
HETATM    4  N   UNL     1     -44.184 -52.907  14.119  1.00  0.00    -0.338 N 
HETATM    5  H   UNL     1     -43.513 -53.377  11.034  1.00  0.00     0.172 HD
HETATM    6  H   UNL     1     -43.291 -52.464  14.316  1.00  0.00     0.164 HD
ENDROOT
BRANCH   1   7
HETATM    7  C   UNL     1     -42.134 -52.351  12.215  1.00  0.00     0.114 A 
HETATM    8  C   UNL     1     -41.111 -53.072  12.784  1.00  0.00     0.104 A 
HETATM    9  C   UNL     1     -39.953 -52.371  13.021  1.00  0.00     0.146 A 
HETATM   10  N   UNL     1     -39.778 -51.078  12.709  1.00  0.00    -0.333 N 
HETATM   11  C   UNL     1     -40.827 -50.476  12.151  1.00  0.00     0.183 A 
ATOM     12  HN  UNL     1     -38.901 -50.589  12.887  1.00  0.00     0.168 HD
HETATM   13  N   UNL     1     -42.013 -51.045  11.904  1.00  0.00    -0.338 N 
ATOM     14  HN  UNL     1     -42.786 -50.517  11.500  1.00  0.00     0.168 HD
BRANCH   9  15
HETATM   15  O   UNL     1     -38.919 -53.066  13.622  1.00  0.00    -0.341 OA
HETATM   16  C   UNL     1     -39.289 -54.393  13.988  1.00  0.00     0.211 C 
ENDBRANCH   9  15
ENDBRANCH   1   7
BRANCH   4  17
HETATM   17  C   UNL     1     -45.027 -53.330  15.217  1.00  0.00     0.086 C 
HETATM   18  C   UNL     1     -44.203 -54.020  16.301  1.00  0.00     0.032 C 
BRANCH  17  19
HETATM   19  C   UNL     1     -45.665 -52.055  15.763  1.00  0.00     0.008 C 
HETATM   20  C   UNL     1     -46.604 -52.215  16.990  1.00  0.00     0.007 C 
HETATM   21  C   UNL     1     -47.532 -51.167  16.346  1.00  0.00     0.001 C 
HETATM   22  C   UNL     1     -46.905 -51.537  14.987  1.00  0.00     0.007 C 
ENDBRANCH  17  19
ENDBRANCH   4  17
TORSDOF 4
ENDMDL
MODEL 2
REMARK VINA RESULT:      -5.7      3.054      4.343
REMARK  4 active torsions:
REMARK  status: ('A' for Active; 'I' for Inactive)
REMARK    1  A    between atoms: O_2  and  C_3 
REMARK    2  A    between atoms: C_5  and  N_6 
REMARK       I    between atoms: N_6  and  C_7 
REMARK       I    between atoms: C_7  and  N_9 
REMARK    3  A    between atoms: N_9  and  C_10 
REMARK    4  A    between atoms: C_10  and  C_12 
ROOT
HETATM    1  N   UNL     1     -40.569 -50.777  11.289  1.00  0.00    -0.295 N 
HETATM    2  C   UNL     1     -41.393 -51.712  11.848  1.00  0.00     0.322 C 
HETATM    3  O   UNL     1     -41.057 -52.893  11.853  1.00  0.00    -0.247 OA
HETATM    4  N   UNL     1     -42.535 -51.252  12.423  1.00  0.00    -0.338 N 
HETATM    5  H   UNL     1     -39.701 -51.170  10.956  1.00  0.00     0.172 HD
HETATM    6  H   UNL     1     -42.663 -50.245  12.380  1.00  0.00     0.164 HD
ENDROOT
BRANCH   1   7
HETATM    7  C   UNL     1     -40.764 -49.391  11.183  1.00  0.00     0.114 A 
HETATM    8  C   UNL     1     -40.030 -48.563  12.001  1.00  0.00     0.104 A 
HETATM    9  C   UNL     1     -40.277 -47.218  11.857  1.00  0.00     0.146 A 
HETATM   10  N   UNL     1     -41.145 -46.702  10.973  1.00  0.00    -0.333 N 
HETATM   11  C   UNL     1     -41.794 -47.590  10.222  1.00  0.00     0.183 A 
ATOM     12  HN  UNL     1     -41.296 -45.698  10.883  1.00  0.00     0.168 HD
HETATM   13  N   UNL     1     -41.663 -48.919  10.296  1.00  0.00    -0.338 N 
ATOM     14  HN  UNL     1     -42.215 -49.545   9.710  1.00  0.00     0.168 HD
BRANCH   9  15
HETATM   15  O   UNL     1     -39.574 -46.366  12.690  1.00  0.00    -0.341 OA
HETATM   16  C   UNL     1     -39.664 -45.003  12.282  1.00  0.00     0.211 C 
ENDBRANCH   9  15
ENDBRANCH   1   7
BRANCH   4  17
HETATM   17  C   UNL     1     -43.394 -52.042  13.278  1.00  0.00     0.086 C 
HETATM   18  C   UNL     1     -42.794 -52.182  14.674  1.00  0.00     0.032 C 
BRANCH  17  19
HETATM   19  C   UNL     1     -44.721 -51.289  13.341  1.00  0.00     0.008 C 
HETATM   20  C   UNL     1     -45.374 -51.142  14.743  1.00  0.00     0.007 C 
HETATM   21  C   UNL     1     -46.738 -51.394  14.072  1.00  0.00     0.001 C 
HETATM   22  C   UNL     1     -45.978 -52.103  12.934  1.00  0.00     0.007 C 
ENDBRANCH  17  19
ENDBRANCH   4  17
TORSDOF 4
ENDMDL
MODEL 3
REMARK VINA RESULT:      -5.4      1.802      2.571
REMARK  4 active torsions:
REMARK  status: ('A' for Active; 'I' for Inactive)
REMARK    1  A    between atoms: O_2  and  C_3 
REMARK    2  A    between atoms: C_5  and  N_6 
REMARK       I    between atoms: N_6  and  C_7 
REMARK       I    between atoms: C_7  and  N_9 
REMARK    3  A    between atoms: N_9  and  C_10 
REMARK    4  A    between atoms: C_10  and  C_12 
ROOT
HETATM    1  N   UNL     1     -41.897 -54.621  14.257  1.00  0.00    -0.295 N 
HETATM    2  C   UNL     1     -43.168 -54.715  14.748  1.00  0.00     0.322 C 
HETATM    3  O   UNL     1     -43.508 -55.719  15.369  1.00  0.00    -0.247 OA
HETATM    4  N   UNL     1     -43.977 -53.639  14.558  1.00  0.00    -0.338 N 
HETATM    5  H   UNL     1     -41.324 -55.413  14.505  1.00  0.00     0.172 HD
HETATM    6  H   UNL     1     -43.549 -52.861  14.063  1.00  0.00     0.164 HD
ENDROOT
BRANCH   1   7
HETATM    7  C   UNL     1     -41.316 -53.569  13.531  1.00  0.00     0.114 A 
HETATM    8  C   UNL     1     -40.271 -52.880  14.101  1.00  0.00     0.104 A 
HETATM    9  C   UNL     1     -39.756 -51.855  13.344  1.00  0.00     0.146 A 
HETATM   10  N   UNL     1     -40.190 -51.532  12.117  1.00  0.00    -0.333 N 
HETATM   11  C   UNL     1     -41.197 -52.270  11.653  1.00  0.00     0.183 A 
ATOM     12  HN  UNL     1     -39.777 -50.773  11.576  1.00  0.00     0.168 HD
HETATM   13  N   UNL     1     -41.801 -53.267  12.310  1.00  0.00    -0.338 N 
ATOM     14  HN  UNL     1     -42.589 -53.774  11.907  1.00  0.00     0.168 HD
BRANCH   9  15
HETATM   15  O   UNL     1     -38.724 -51.125  13.909  1.00  0.00    -0.341 OA
HETATM   16  C   UNL     1     -38.704 -49.770  13.467  1.00  0.00     0.211 C 
ENDBRANCH   9  15
ENDBRANCH   1   7
BRANCH   4  17
HETATM   17  C   UNL     1     -45.251 -53.448  15.217  1.00  0.00     0.086 C 
HETATM   18  C   UNL     1     -45.150 -52.373  16.295  1.00  0.00     0.032 C 
BRANCH  17  19
HETATM   19  C   UNL     1     -46.222 -53.015  14.121  1.00  0.00     0.008 C 
HETATM   20  C   UNL     1     -45.617 -52.767  12.711  1.00  0.00     0.007 C 
HETATM   21  C   UNL     1     -46.556 -51.552  12.584  1.00  0.00     0.001 C 
HETATM   22  C   UNL     1     -46.615 -51.513  14.124  1.00  0.00     0.007 C 
ENDBRANCH  17  19
ENDBRANCH   4  17
TORSDOF 4
ENDMDL
MODEL 4
REMARK VINA RESULT:      -5.3      3.337      4.696
REMARK  4 active torsions:
REMARK  status: ('A' for Active; 'I' for Inactive)
REMARK    1  A    between atoms: O_2  and  C_3 
REMARK    2  A    between atoms: C_5  and  N_6 
REMARK       I    between atoms: N_6  and  C_7 
REMARK       I    between atoms: C_7  and  N_9 
REMARK    3  A    between atoms: N_9  and  C_10 
REMARK    4  A    between atoms: C_10  and  C_12 
ROOT
HETATM    1  N   UNL     1     -41.275 -50.144  11.614  1.00  0.00    -0.295 N 
HETATM    2  C   UNL     1     -41.663 -51.383  12.038  1.00  0.00     0.322 C 
HETATM    3  O   UNL     1     -40.866 -52.318  11.996  1.00  0.00    -0.247 OA
HETATM    4  N   UNL     1     -42.920 -51.489  12.543  1.00  0.00    -0.338 N 
HETATM    5  H   UNL     1     -40.307 -50.113  11.332  1.00  0.00     0.172 HD
HETATM    6  H   UNL     1     -43.453 -50.624  12.555  1.00  0.00     0.164 HD
ENDROOT
BRANCH   1   7
HETATM    7  C   UNL     1     -42.023 -48.957  11.583  1.00  0.00     0.114 A 
HETATM    8  C   UNL     1     -42.216 -48.274  12.762  1.00  0.00     0.104 A 
HETATM    9  C   UNL     1     -42.967 -47.127  12.666  1.00  0.00     0.146 A 
HETATM   10  N   UNL     1     -43.474 -46.653  11.518  1.00  0.00    -0.333 N 
HETATM   11  C   UNL     1     -43.219 -47.383  10.434  1.00  0.00     0.183 A 
ATOM     12  HN  UNL     1     -44.017 -45.791  11.479  1.00  0.00     0.168 HD
HETATM   13  N   UNL     1     -42.531 -48.530  10.410  1.00  0.00    -0.338 N 
ATOM     14  HN  UNL     1     -42.397 -49.057   9.546  1.00  0.00     0.168 HD
BRANCH   9  15
HETATM   15  O   UNL     1     -43.202 -46.439  13.843  1.00  0.00    -0.341 OA
HETATM   16  C   UNL     1     -42.854 -45.060  13.751  1.00  0.00     0.211 C 
ENDBRANCH   9  15
ENDBRANCH   1   7
BRANCH   4  17
HETATM   17  C   UNL     1     -43.415 -52.640  13.268  1.00  0.00     0.086 C 
HETATM   18  C   UNL     1     -42.936 -52.618  14.717  1.00  0.00     0.032 C 
BRANCH  17  19
HETATM   19  C   UNL     1     -44.937 -52.542  13.208  1.00  0.00     0.008 C 
HETATM   20  C   UNL     1     -45.540 -51.117  13.070  1.00  0.00     0.007 C 
HETATM   21  C   UNL     1     -46.642 -51.549  14.056  1.00  0.00     0.001 C 
HETATM   22  C   UNL     1     -45.672 -52.630  14.572  1.00  0.00     0.007 C 
ENDBRANCH  17  19
ENDBRANCH   4  17
TORSDOF 4
ENDMDL
MODEL 5
REMARK VINA RESULT:      -5.3      1.587      2.053
REMARK  4 active torsions:
REMARK  status: ('A' for Active; 'I' for Inactive)
REMARK    1  A    between atoms: O_2  and  C_3 
REMARK    2  A    between atoms: C_5  and  N_6 
REMARK       I    between atoms: N_6  and  C_7 
REMARK       I    between atoms: C_7  and  N_9 
REMARK    3  A    between atoms: N_9  and  C_10 
REMARK    4  A    between atoms: C_10  and  C_12 
ROOT
HETATM    1  N   UNL     1     -42.545 -53.170  12.353  1.00  0.00    -0.295 N 
HETATM    2  C   UNL     1     -43.894 -52.973  12.429  1.00  0.00     0.322 C 
HETATM    3  O   UNL     1     -44.657 -53.929  12.302  1.00  0.00    -0.247 OA
HETATM    4  N   UNL     1     -44.313 -51.710  12.702  1.00  0.00    -0.338 N 
HETATM    5  H   UNL     1     -42.298 -54.141  12.234  1.00  0.00     0.172 HD
HETATM    6  H   UNL     1     -43.569 -51.028  12.824  1.00  0.00     0.164 HD
ENDROOT
BRANCH   1   7
HETATM    7  C   UNL     1     -41.516 -52.223  12.473  1.00  0.00     0.114 A 
HETATM    8  C   UNL     1     -40.959 -52.015  13.713  1.00  0.00     0.104 A 
HETATM    9  C   UNL     1     -39.966 -51.066  13.765  1.00  0.00     0.146 A 
HETATM   10  N   UNL     1     -39.517 -50.386  12.699  1.00  0.00    -0.333 N 
HETATM   11  C   UNL     1     -40.115 -50.672  11.544  1.00  0.00     0.183 A 
ATOM     12  HN  UNL     1     -38.769 -49.697  12.769  1.00  0.00     0.168 HD
HETATM   13  N   UNL     1     -41.113 -51.548  11.378  1.00  0.00    -0.338 N 
ATOM     14  HN  UNL     1     -41.548 -51.698  10.467  1.00  0.00     0.168 HD
BRANCH   9  15
HETATM   15  O   UNL     1     -39.412 -50.816  15.008  1.00  0.00    -0.341 OA
HETATM   16  C   UNL     1     -38.754 -51.956  15.556  1.00  0.00     0.211 C 
ENDBRANCH   9  15
ENDBRANCH   1   7
BRANCH   4  17
HETATM   17  C   UNL     1     -45.667 -51.359  13.072  1.00  0.00     0.086 C 
HETATM   18  C   UNL     1     -46.677 -52.059  12.167  1.00  0.00     0.032 C 
BRANCH  17  19
HETATM   19  C   UNL     1     -45.834 -51.822  14.517  1.00  0.00     0.008 C 
HETATM   20  C   UNL     1     -47.145 -51.402  15.237  1.00  0.00     0.007 C 
HETATM   21  C   UNL     1     -46.304 -51.155  16.504  1.00  0.00     0.001 C 
HETATM   22  C   UNL     1     -45.079 -50.984  15.584  1.00  0.00     0.007 C 
ENDBRANCH  17  19
ENDBRANCH   4  17
TORSDOF 4
ENDMDL
MODEL 6
REMARK VINA RESULT:      -5.2      2.970      3.806
REMARK  4 active torsions:
REMARK  status: ('A' for Active; 'I' for Inactive)
REMARK    1  A    between atoms: O_2  and  C_3 
REMARK    2  A    between atoms: C_5  and  N_6 
REMARK       I    between atoms: N_6  and  C_7 
REMARK       I    between atoms: C_7  and  N_9 
REMARK    3  A    between atoms: N_9  and  C_10 
REMARK    4  A    between atoms: C_10  and  C_12 
ROOT
HETATM    1  N   UNL     1     -43.343 -49.428  13.852  1.00  0.00    -0.295 N 
HETATM    2  C   UNL     1     -44.218 -50.436  14.141  1.00  0.00     0.322 C 
HETATM    3  O   UNL     1     -44.732 -50.494  15.256  1.00  0.00    -0.247 OA
HETATM    4  N   UNL     1     -44.510 -51.298  13.132  1.00  0.00    -0.338 N 
HETATM    5  H   UNL     1     -43.235 -48.774  14.613  1.00  0.00     0.172 HD
HETATM    6  H   UNL     1     -44.042 -51.103  12.251  1.00  0.00     0.164 HD
ENDROOT
BRANCH   1   7
HETATM    7  C   UNL     1     -42.657 -49.183  12.652  1.00  0.00     0.114 A 
HETATM    8  C   UNL     1     -41.411 -49.742  12.485  1.00  0.00     0.104 A 
HETATM    9  C   UNL     1     -40.788 -49.454  11.294  1.00  0.00     0.146 A 
HETATM   10  N   UNL     1     -41.330 -48.707  10.322  1.00  0.00    -0.333 N 
HETATM   11  C   UNL     1     -42.544 -48.223  10.580  1.00  0.00     0.183 A 
ATOM     12  HN  UNL     1     -40.846 -48.522   9.444  1.00  0.00     0.168 HD
HETATM   13  N   UNL     1     -43.233 -48.408  11.712  1.00  0.00    -0.338 N 
ATOM     14  HN  UNL     1     -44.149 -47.983  11.857  1.00  0.00     0.168 HD
BRANCH   9  15
HETATM   15  O   UNL     1     -39.521 -49.979  11.115  1.00  0.00    -0.341 OA
HETATM   16  C   UNL     1     -39.005 -50.586  12.298  1.00  0.00     0.211 C 
ENDBRANCH   9  15
ENDBRANCH   1   7
BRANCH   4  17
HETATM   17  C   UNL     1     -45.592 -52.259  13.166  1.00  0.00     0.086 C 
HETATM   18  C   UNL     1     -46.550 -52.042  11.999  1.00  0.00     0.032 C 
BRANCH  17  19
HETATM   19  C   UNL     1     -44.929 -53.630  13.065  1.00  0.00     0.008 C 
HETATM   20  C   UNL     1     -45.565 -54.776  13.899  1.00  0.00     0.007 C 
HETATM   21  C   UNL     1     -44.137 -55.259  14.219  1.00  0.00     0.001 C 
HETATM   22  C   UNL     1     -43.652 -53.826  13.924  1.00  0.00     0.007 C 
ENDBRANCH  17  19
ENDBRANCH   4  17
TORSDOF 4
ENDMDL
MODEL 7
REMARK VINA RESULT:      -5.2      3.102      4.512
REMARK  4 active torsions:
REMARK  status: ('A' for Active; 'I' for Inactive)
REMARK    1  A    between atoms: O_2  and  C_3 
REMARK    2  A    between atoms: C_5  and  N_6 
REMARK       I    between atoms: N_6  and  C_7 
REMARK       I    between atoms: C_7  and  N_9 
REMARK    3  A    between atoms: N_9  and  C_10 
REMARK    4  A    between atoms: C_10  and  C_12 
ROOT
HETATM    1  N   UNL     1     -42.576 -49.348  14.183  1.00  0.00    -0.295 N 
HETATM    2  C   UNL     1     -43.614 -50.106  14.645  1.00  0.00     0.322 C 
HETATM    3  O   UNL     1     -44.000 -49.968  15.804  1.00  0.00    -0.247 OA
HETATM    4  N   UNL     1     -44.202 -50.945  13.752  1.00  0.00    -0.338 N 
HETATM    5  H   UNL     1     -42.241 -48.686  14.867  1.00  0.00     0.172 HD
HETATM    6  H   UNL     1     -43.804 -50.924  12.817  1.00  0.00     0.164 HD
ENDROOT
BRANCH   1   7
HETATM    7  C   UNL     1     -41.993 -49.350  12.907  1.00  0.00     0.114 A 
HETATM    8  C   UNL     1     -42.502 -48.500  11.953  1.00  0.00     0.104 A 
HETATM    9  C   UNL     1     -41.895 -48.560  10.721  1.00  0.00     0.146 A 
HETATM   10  N   UNL     1     -40.855 -49.356  10.432  1.00  0.00    -0.333 N 
HETATM   11  C   UNL     1     -40.431 -50.131  11.429  1.00  0.00     0.183 A 
ATOM     12  HN  UNL     1     -40.419 -49.368   9.510  1.00  0.00     0.168 HD
HETATM   13  N   UNL     1     -40.964 -50.184  12.656  1.00  0.00    -0.338 N 
ATOM     14  HN  UNL     1     -40.608 -50.823  13.367  1.00  0.00     0.168 HD
BRANCH   9  15
HETATM   15  O   UNL     1     -42.410 -47.737   9.735  1.00  0.00    -0.341 OA
HETATM   16  C   UNL     1     -42.394 -46.360  10.106  1.00  0.00     0.211 C 
ENDBRANCH   9  15
ENDBRANCH   1   7
BRANCH   4  17
HETATM   17  C   UNL     1     -45.458 -51.627  13.976  1.00  0.00     0.086 C 
HETATM   18  C   UNL     1     -46.327 -51.594  12.722  1.00  0.00     0.032 C 
BRANCH  17  19
HETATM   19  C   UNL     1     -45.089 -53.065  14.331  1.00  0.00     0.008 C 
HETATM   20  C   UNL     1     -44.548 -53.953  13.176  1.00  0.00     0.007 C 
HETATM   21  C   UNL     1     -45.373 -55.116  13.759  1.00  0.00     0.001 C 
HETATM   22  C   UNL     1     -46.276 -54.061  14.428  1.00  0.00     0.007 C 
ENDBRANCH  17  19
ENDBRANCH   4  17
TORSDOF 4
ENDMDL
MODEL 8
REMARK VINA RESULT:      -5.2      2.023      5.964
REMARK  4 active torsions:
REMARK  status: ('A' for Active; 'I' for Inactive)
REMARK    1  A    between atoms: O_2  and  C_3 
REMARK    2  A    between atoms: C_5  and  N_6 
REMARK       I    between atoms: N_6  and  C_7 
REMARK       I    between atoms: C_7  and  N_9 
REMARK    3  A    between atoms: N_9  and  C_10 
REMARK    4  A    between atoms: C_10  and  C_12 
ROOT
HETATM    1  N   UNL     1     -42.578 -53.664  12.485  1.00  0.00    -0.295 N 
HETATM    2  C   UNL     1     -41.619 -52.702  12.344  1.00  0.00     0.322 C 
HETATM    3  O   UNL     1     -40.486 -53.019  11.989  1.00  0.00    -0.247 OA
HETATM    4  N   UNL     1     -42.007 -51.418  12.559  1.00  0.00    -0.338 N 
HETATM    5  H   UNL     1     -42.249 -54.583  12.228  1.00  0.00     0.172 HD
HETATM    6  H   UNL     1     -42.986 -51.300  12.807  1.00  0.00     0.164 HD
ENDROOT
BRANCH   1   7
HETATM    7  C   UNL     1     -43.918 -53.513  12.873  1.00  0.00     0.114 A 
HETATM    8  C   UNL     1     -44.344 -54.150  14.016  1.00  0.00     0.104 A 
HETATM    9  C   UNL     1     -45.669 -53.972  14.333  1.00  0.00     0.146 A 
HETATM   10  N   UNL     1     -46.519 -53.215  13.624  1.00  0.00    -0.333 N 
HETATM   11  C   UNL     1     -46.002 -52.632  12.543  1.00  0.00     0.183 A 
ATOM     12  HN  UNL     1     -47.495 -53.093  13.894  1.00  0.00     0.168 HD
HETATM   13  N   UNL     1     -44.740 -52.759  12.117  1.00  0.00    -0.338 N 
ATOM     14  HN  UNL     1     -44.416 -52.308  11.261  1.00  0.00     0.168 HD
BRANCH   9  15
HETATM   15  O   UNL     1     -46.130 -54.629  15.461  1.00  0.00    -0.341 OA
HETATM   16  C   UNL     1     -45.815 -53.936  16.667  1.00  0.00     0.211 C 
ENDBRANCH   9  15
ENDBRANCH   1   7
BRANCH   4  17
HETATM   17  C   UNL     1     -41.217 -50.256  12.214  1.00  0.00     0.086 C 
HETATM   18  C   UNL     1     -42.108 -49.111  11.742  1.00  0.00     0.032 C 
BRANCH  17  19
HETATM   19  C   UNL     1     -40.478 -49.865  13.491  1.00  0.00     0.008 C 
HETATM   20  C   UNL     1     -40.153 -48.357  13.676  1.00  0.00     0.007 C 
HETATM   21  C   UNL     1     -38.787 -48.778  14.249  1.00  0.00     0.001 C 
HETATM   22  C   UNL     1     -38.945 -50.107  13.484  1.00  0.00     0.007 C 
ENDBRANCH  17  19
ENDBRANCH   4  17
TORSDOF 4
ENDMDL
MODEL 9
REMARK VINA RESULT:      -5.1      4.956      7.433
REMARK  4 active torsions:
REMARK  status: ('A' for Active; 'I' for Inactive)
REMARK    1  A    between atoms: O_2  and  C_3 
REMARK    2  A    between atoms: C_5  and  N_6 
REMARK       I    between atoms: N_6  and  C_7 
REMARK       I    between atoms: C_7  and  N_9 
REMARK    3  A    between atoms: N_9  and  C_10 
REMARK    4  A    between atoms: C_10  and  C_12 
ROOT
HETATM    1  N   UNL     1     -41.538 -49.568  10.994  1.00  0.00    -0.295 N 
HETATM    2  C   UNL     1     -40.815 -50.383  11.817  1.00  0.00     0.322 C 
HETATM    3  O   UNL     1     -41.106 -51.574  11.904  1.00  0.00    -0.247 OA
HETATM    4  N   UNL     1     -39.759 -49.819  12.461  1.00  0.00    -0.338 N 
HETATM    5  H   UNL     1     -42.251 -50.065  10.481  1.00  0.00     0.172 HD
HETATM    6  H   UNL     1     -39.612 -48.833  12.262  1.00  0.00     0.164 HD
ENDROOT
BRANCH   1   7
HETATM    7  C   UNL     1     -41.368 -48.196  10.753  1.00  0.00     0.114 A 
HETATM    8  C   UNL     1     -42.434 -47.482  10.255  1.00  0.00     0.104 A 
HETATM    9  C   UNL     1     -42.198 -46.147  10.030  1.00  0.00     0.146 A 
HETATM   10  N   UNL     1     -41.035 -45.533  10.290  1.00  0.00    -0.333 N 
HETATM   11  C   UNL     1     -40.072 -46.312  10.781  1.00  0.00     0.183 A 
ATOM     12  HN  UNL     1     -40.896 -44.537  10.123  1.00  0.00     0.168 HD
HETATM   13  N   UNL     1     -40.174 -47.627  11.010  1.00  0.00    -0.338 N 
ATOM     14  HN  UNL     1     -39.386 -48.171  11.361  1.00  0.00     0.168 HD
BRANCH   9  15
HETATM   15  O   UNL     1     -43.245 -45.414   9.499  1.00  0.00    -0.341 OA
HETATM   16  C   UNL     1     -44.170 -46.222   8.775  1.00  0.00     0.211 C 
ENDBRANCH   9  15
ENDBRANCH   1   7
BRANCH   4  17
HETATM   17  C   UNL     1     -38.736 -50.565  13.162  1.00  0.00     0.086 C 
HETATM   18  C   UNL     1     -37.491 -50.727  12.295  1.00  0.00     0.032 C 
BRANCH  17  19
HETATM   19  C   UNL     1     -38.414 -49.749  14.411  1.00  0.00     0.008 C 
HETATM   20  C   UNL     1     -37.819 -48.332  14.185  1.00  0.00     0.007 C 
HETATM   21  C   UNL     1     -36.880 -48.596  15.377  1.00  0.00     0.001 C 
HETATM   22  C   UNL     1     -37.080 -50.103  15.121  1.00  0.00     0.007 C 
ENDBRANCH  17  19
ENDBRANCH   4  17
TORSDOF 4
ENDMDL
