MODEL 1
REMARK VINA RESULT:      -6.0      0.000      0.000
REMARK  5 active torsions:
REMARK  status: ('A' for Active; 'I' for Inactive)
REMARK    1  A    between atoms: C_2  and  C_3 
REMARK    2  A    between atoms: C_2  and  N_11 
REMARK    3  A    between atoms: C_3  and  N_4 
REMARK    4  A    between atoms: N_11  and  C_12 
REMARK    5  A    between atoms: C_12  and  C_13 
REMARK       I    between atoms: N_16  and  C_19 
ROOT
HETATM    1  N   UNL     1     -40.320 -49.764  10.910  1.00  0.00     0.089 N 
HETATM    2  H   UNL     1     -39.586 -49.093  10.671  1.00  0.00     0.316 HD
ENDROOT
BRANCH   1   3
HETATM    3  C   UNL     1     -41.561 -49.011  11.220  1.00  0.00     0.236 C 
HETATM    4  C   UNL     1     -41.465 -48.593  12.696  1.00  0.00     0.044 C 
BRANCH   3   5
HETATM    5  C   UNL     1     -41.757 -47.777  10.312  1.00  0.00     0.183 C 
BRANCH   5   6
HETATM    6  N   UNL     1     -43.025 -47.759   9.607  1.00  0.00    -0.301 N 
HETATM    7  C   UNL     1     -44.231 -47.357  10.106  1.00  0.00     0.118 A 
HETATM    8  C   UNL     1     -45.133 -47.452   9.070  1.00  0.00    -0.028 A 
HETATM    9  C   UNL     1     -46.577 -47.129   9.078  1.00  0.00     0.051 C 
HETATM   10  C   UNL     1     -44.362 -47.926   7.985  1.00  0.00     0.115 A 
HETATM   11  N   UNL     1     -43.078 -48.109   8.308  1.00  0.00    -0.310 N 
ATOM     12  HN  UNL     1     -42.317 -48.436   7.712  1.00  0.00     0.186 HD
ENDBRANCH   5   6
ENDBRANCH   3   5
ENDBRANCH   1   3
BRANCH   1  13
HETATM   13  C   UNL     1     -39.853 -50.591  12.025  1.00  0.00     0.274 C 
BRANCH  13  14
HETATM   14  C   UNL     1     -38.310 -50.634  12.088  1.00  0.00     0.017 C 
HETATM   15  C   UNL     1     -37.762 -51.491  13.243  1.00  0.00     0.026 C 
HETATM   16  C   UNL     1     -37.986 -50.853  14.613  1.00  0.00     0.126 C 
HETATM   17  N   UNL     1     -37.465 -49.485  14.652  1.00  0.00    -0.352 N 
HETATM   18  C   UNL     1     -37.954 -48.602  13.591  1.00  0.00     0.126 C 
HETATM   19  C   UNL     1     -36.727 -48.917  15.680  1.00  0.00     0.215 C 
HETATM   20  C   UNL     1     -37.732 -49.213  12.209  1.00  0.00     0.026 C 
HETATM   21  O   UNL     1     -36.392 -47.728  15.663  1.00  0.00    -0.274 OA
HETATM   22  C   UNL     1     -36.278 -49.762  16.845  1.00  0.00     0.117 C 
ENDBRANCH  13  14
ENDBRANCH   1  13
TORSDOF 5
ENDMDL
MODEL 2
REMARK VINA RESULT:      -5.9      3.562      4.346
REMARK  5 active torsions:
REMARK  status: ('A' for Active; 'I' for Inactive)
REMARK    1  A    between atoms: C_2  and  C_3 
REMARK    2  A    between atoms: C_2  and  N_11 
REMARK    3  A    between atoms: C_3  and  N_4 
REMARK    4  A    between atoms: N_11  and  C_12 
REMARK    5  A    between atoms: C_12  and  C_13 
REMARK       I    between atoms: N_16  and  C_19 
ROOT
HETATM    1  N   UNL     1     -42.144 -49.939  11.465  1.00  0.00     0.089 N 
HETATM    2  H   UNL     1     -41.534 -50.383  10.774  1.00  0.00     0.316 HD
ENDROOT
BRANCH   1   3
HETATM    3  C   UNL     1     -41.580 -48.608  11.800  1.00  0.00     0.236 C 
HETATM    4  C   UNL     1     -40.155 -48.850  12.318  1.00  0.00     0.044 C 
BRANCH   3   5
HETATM    5  C   UNL     1     -41.569 -47.641  10.595  1.00  0.00     0.183 C 
BRANCH   5   6
HETATM    6  N   UNL     1     -42.796 -47.649   9.821  1.00  0.00    -0.301 N 
HETATM    7  C   UNL     1     -44.043 -47.314  10.264  1.00  0.00     0.118 A 
HETATM    8  C   UNL     1     -44.882 -47.408   9.176  1.00  0.00    -0.028 A 
HETATM    9  C   UNL     1     -46.337 -47.144   9.114  1.00  0.00     0.051 C 
HETATM   10  C   UNL     1     -44.033 -47.810   8.121  1.00  0.00     0.115 A 
HETATM   11  N   UNL     1     -42.762 -47.953   8.510  1.00  0.00    -0.310 N 
ATOM     12  HN  UNL     1     -41.957 -48.227   7.946  1.00  0.00     0.186 HD
ENDBRANCH   5   6
ENDBRANCH   3   5
ENDBRANCH   1   3
BRANCH   1  13
HETATM   13  C   UNL     1     -42.259 -50.825  12.626  1.00  0.00     0.274 C 
BRANCH  13  14
HETATM   14  C   UNL     1     -42.121 -52.309  12.218  1.00  0.00     0.017 C 
HETATM   15  C   UNL     1     -43.185 -53.224  12.851  1.00  0.00     0.026 C 
HETATM   16  C   UNL     1     -42.978 -53.424  14.352  1.00  0.00     0.126 C 
HETATM   17  N   UNL     1     -41.617 -53.883  14.642  1.00  0.00    -0.352 N 
HETATM   18  C   UNL     1     -40.548 -53.052  14.085  1.00  0.00     0.126 C 
HETATM   19  C   UNL     1     -41.262 -54.888  15.530  1.00  0.00     0.215 C 
HETATM   20  C   UNL     1     -40.726 -52.846  12.582  1.00  0.00     0.026 C 
HETATM   21  O   UNL     1     -40.081 -55.159  15.770  1.00  0.00    -0.274 OA
HETATM   22  C   UNL     1     -42.329 -55.713  16.204  1.00  0.00     0.117 C 
ENDBRANCH  13  14
ENDBRANCH   1  13
TORSDOF 5
ENDMDL
MODEL 3
REMARK VINA RESULT:      -5.8      5.073      6.720
REMARK  5 active torsions:
REMARK  status: ('A' for Active; 'I' for Inactive)
REMARK    1  A    between atoms: C_2  and  C_3 
REMARK    2  A    between atoms: C_2  and  N_11 
REMARK    3  A    between atoms: C_3  and  N_4 
REMARK    4  A    between atoms: N_11  and  C_12 
REMARK    5  A    between atoms: C_12  and  C_13 
REMARK       I    between atoms: N_16  and  C_19 
ROOT
HETATM    1  N   UNL     1     -42.335 -52.354  11.828  1.00  0.00     0.089 N 
HETATM    2  H   UNL     1     -41.621 -52.667  11.165  1.00  0.00     0.316 HD
ENDROOT
BRANCH   1   3
HETATM    3  C   UNL     1     -41.905 -51.052  12.397  1.00  0.00     0.236 C 
HETATM    4  C   UNL     1     -41.494 -51.322  13.853  1.00  0.00     0.044 C 
BRANCH   3   5
HETATM    5  C   UNL     1     -40.743 -50.407  11.610  1.00  0.00     0.183 C 
BRANCH   5   6
HETATM    6  N   UNL     1     -40.982 -49.027  11.230  1.00  0.00    -0.301 N 
HETATM    7  C   UNL     1     -40.167 -47.959  11.477  1.00  0.00     0.118 A 
HETATM    8  C   UNL     1     -40.763 -46.869  10.884  1.00  0.00    -0.028 A 
HETATM    9  C   UNL     1     -40.286 -45.469  10.850  1.00  0.00     0.051 C 
HETATM   10  C   UNL     1     -41.940 -47.393  10.304  1.00  0.00     0.115 A 
HETATM   11  N   UNL     1     -42.073 -48.707  10.510  1.00  0.00    -0.310 N 
ATOM     12  HN  UNL     1     -42.824 -49.322  10.195  1.00  0.00     0.186 HD
ENDBRANCH   5   6
ENDBRANCH   3   5
ENDBRANCH   1   3
BRANCH   1  13
HETATM   13  C   UNL     1     -42.521 -53.394  12.842  1.00  0.00     0.274 C 
BRANCH  13  14
HETATM   14  C   UNL     1     -43.965 -53.943  12.828  1.00  0.00     0.017 C 
HETATM   15  C   UNL     1     -45.039 -52.849  12.690  1.00  0.00     0.026 C 
HETATM   16  C   UNL     1     -45.179 -51.992  13.947  1.00  0.00     0.126 C 
HETATM   17  N   UNL     1     -45.393 -52.823  15.134  1.00  0.00    -0.352 N 
HETATM   18  C   UNL     1     -44.399 -53.879  15.342  1.00  0.00     0.126 C 
HETATM   19  C   UNL     1     -46.309 -52.586  16.148  1.00  0.00     0.215 C 
HETATM   20  C   UNL     1     -44.249 -54.758  14.102  1.00  0.00     0.026 C 
HETATM   21  O   UNL     1     -46.369 -53.301  17.153  1.00  0.00    -0.274 OA
HETATM   22  C   UNL     1     -47.294 -51.451  16.026  1.00  0.00     0.117 C 
ENDBRANCH  13  14
ENDBRANCH   1  13
TORSDOF 5
ENDMDL
MODEL 4
REMARK VINA RESULT:      -5.8      4.236      5.515
REMARK  5 active torsions:
REMARK  status: ('A' for Active; 'I' for Inactive)
REMARK    1  A    between atoms: C_2  and  C_3 
REMARK    2  A    between atoms: C_2  and  N_11 
REMARK    3  A    between atoms: C_3  and  N_4 
REMARK    4  A    between atoms: N_11  and  C_12 
REMARK    5  A    between atoms: C_12  and  C_13 
REMARK       I    between atoms: N_16  and  C_19 
ROOT
HETATM    1  N   UNL     1     -40.902 -49.856  12.052  1.00  0.00     0.089 N 
HETATM    2  H   UNL     1     -40.339 -49.836  12.906  1.00  0.00     0.316 HD
ENDROOT
BRANCH   1   3
HETATM    3  C   UNL     1     -41.715 -48.616  11.999  1.00  0.00     0.236 C 
HETATM    4  C   UNL     1     -41.276 -47.750  13.189  1.00  0.00     0.044 C 
BRANCH   3   5
HETATM    5  C   UNL     1     -41.550 -47.846  10.670  1.00  0.00     0.183 C 
BRANCH   5   6
HETATM    6  N   UNL     1     -42.765 -47.766   9.879  1.00  0.00    -0.301 N 
HETATM    7  C   UNL     1     -44.020 -47.486  10.338  1.00  0.00     0.118 A 
HETATM    8  C   UNL     1     -44.841 -47.454   9.233  1.00  0.00    -0.028 A 
HETATM    9  C   UNL     1     -46.295 -47.187   9.178  1.00  0.00     0.051 C 
HETATM   10  C   UNL     1     -43.974 -47.732   8.152  1.00  0.00     0.115 A 
HETATM   11  N   UNL     1     -42.709 -47.917   8.543  1.00  0.00    -0.310 N 
ATOM     12  HN  UNL     1     -41.894 -48.124   7.965  1.00  0.00     0.186 HD
ENDBRANCH   5   6
ENDBRANCH   3   5
ENDBRANCH   1   3
BRANCH   1  13
HETATM   13  C   UNL     1     -41.711 -51.077  12.054  1.00  0.00     0.274 C 
BRANCH  13  14
HETATM   14  C   UNL     1     -41.977 -51.576  13.492  1.00  0.00     0.017 C 
HETATM   15  C   UNL     1     -42.000 -53.110  13.618  1.00  0.00     0.026 C 
HETATM   16  C   UNL     1     -43.233 -53.740  12.973  1.00  0.00     0.126 C 
HETATM   17  N   UNL     1     -44.465 -53.130  13.478  1.00  0.00    -0.352 N 
HETATM   18  C   UNL     1     -44.524 -51.670  13.376  1.00  0.00     0.126 C 
HETATM   19  C   UNL     1     -45.620 -53.801  13.851  1.00  0.00     0.215 C 
HETATM   20  C   UNL     1     -43.307 -51.015  14.024  1.00  0.00     0.026 C 
HETATM   21  O   UNL     1     -46.642 -53.199  14.195  1.00  0.00    -0.274 OA
HETATM   22  C   UNL     1     -45.642 -55.308  13.882  1.00  0.00     0.117 C 
ENDBRANCH  13  14
ENDBRANCH   1  13
TORSDOF 5
ENDMDL
MODEL 5
REMARK VINA RESULT:      -5.8      3.494      4.126
REMARK  5 active torsions:
REMARK  status: ('A' for Active; 'I' for Inactive)
REMARK    1  A    between atoms: C_2  and  C_3 
REMARK    2  A    between atoms: C_2  and  N_11 
REMARK    3  A    between atoms: C_3  and  N_4 
REMARK    4  A    between atoms: N_11  and  C_12 
REMARK    5  A    between atoms: C_12  and  C_13 
REMARK       I    between atoms: N_16  and  C_19 
ROOT
HETATM    1  N   UNL     1     -41.129 -52.022  11.479  1.00  0.00     0.089 N 
HETATM    2  H   UNL     1     -41.375 -51.826  10.506  1.00  0.00     0.316 HD
ENDROOT
BRANCH   1   3
HETATM    3  C   UNL     1     -42.372 -52.370  12.213  1.00  0.00     0.236 C 
HETATM    4  C   UNL     1     -42.030 -53.565  13.116  1.00  0.00     0.044 C 
BRANCH   3   5
HETATM    5  C   UNL     1     -42.926 -51.193  13.047  1.00  0.00     0.183 C 
BRANCH   5   6
HETATM    6  N   UNL     1     -44.315 -51.349  13.437  1.00  0.00    -0.301 N 
HETATM    7  C   UNL     1     -44.815 -51.320  14.707  1.00  0.00     0.118 A 
HETATM    8  C   UNL     1     -46.181 -51.446  14.591  1.00  0.00    -0.028 A 
HETATM    9  C   UNL     1     -47.194 -51.467  15.669  1.00  0.00     0.051 C 
HETATM   10  C   UNL     1     -46.401 -51.546  13.199  1.00  0.00     0.115 A 
HETATM   11  N   UNL     1     -45.267 -51.482  12.494  1.00  0.00    -0.310 N 
ATOM     12  HN  UNL     1     -45.151 -51.525  11.481  1.00  0.00     0.186 HD
ENDBRANCH   5   6
ENDBRANCH   3   5
ENDBRANCH   1   3
BRANCH   1  13
HETATM   13  C   UNL     1     -40.438 -50.857  12.033  1.00  0.00     0.274 C 
BRANCH  13  14
HETATM   14  C   UNL     1     -39.150 -51.267  12.780  1.00  0.00     0.017 C 
HETATM   15  C   UNL     1     -39.250 -51.121  14.309  1.00  0.00     0.026 C 
HETATM   16  C   UNL     1     -39.272 -49.663  14.766  1.00  0.00     0.126 C 
HETATM   17  N   UNL     1     -38.136 -48.919  14.218  1.00  0.00    -0.352 N 
HETATM   18  C   UNL     1     -37.984 -48.997  12.763  1.00  0.00     0.126 C 
HETATM   19  C   UNL     1     -37.334 -48.021  14.907  1.00  0.00     0.215 C 
HETATM   20  C   UNL     1     -37.948 -50.446  12.282  1.00  0.00     0.026 C 
HETATM   21  O   UNL     1     -36.442 -47.379  14.344  1.00  0.00    -0.274 OA
HETATM   22  C   UNL     1     -37.514 -47.833  16.392  1.00  0.00     0.117 C 
ENDBRANCH  13  14
ENDBRANCH   1  13
TORSDOF 5
ENDMDL
MODEL 6
REMARK VINA RESULT:      -5.8      2.829      3.663
REMARK  5 active torsions:
REMARK  status: ('A' for Active; 'I' for Inactive)
REMARK    1  A    between atoms: C_2  and  C_3 
REMARK    2  A    between atoms: C_2  and  N_11 
REMARK    3  A    between atoms: C_3  and  N_4 
REMARK    4  A    between atoms: N_11  and  C_12 
REMARK    5  A    between atoms: C_12  and  C_13 
REMARK       I    between atoms: N_16  and  C_19 
ROOT
HETATM    1  N   UNL     1     -40.518 -47.283  12.641  1.00  0.00     0.089 N 
HETATM    2  H   UNL     1     -41.068 -47.128  13.490  1.00  0.00     0.316 HD
ENDROOT
BRANCH   1   3
HETATM    3  C   UNL     1     -41.331 -46.862  11.473  1.00  0.00     0.236 C 
HETATM    4  C   UNL     1     -40.554 -45.733  10.780  1.00  0.00     0.044 C 
BRANCH   3   5
HETATM    5  C   UNL     1     -41.614 -48.018  10.489  1.00  0.00     0.183 C 
BRANCH   5   6
HETATM    6  N   UNL     1     -42.843 -47.863   9.733  1.00  0.00    -0.301 N 
HETATM    7  C   UNL     1     -44.068 -47.519  10.229  1.00  0.00     0.118 A 
HETATM    8  C   UNL     1     -44.915 -47.431   9.146  1.00  0.00    -0.028 A 
HETATM    9  C   UNL     1     -46.353 -47.084   9.133  1.00  0.00     0.051 C 
HETATM   10  C   UNL     1     -44.093 -47.743   8.040  1.00  0.00     0.115 A 
HETATM   11  N   UNL     1     -42.831 -48.002   8.394  1.00  0.00    -0.310 N 
ATOM     12  HN  UNL     1     -42.044 -48.247   7.792  1.00  0.00     0.186 HD
ENDBRANCH   5   6
ENDBRANCH   3   5
ENDBRANCH   1   3
BRANCH   1  13
HETATM   13  C   UNL     1     -40.122 -48.692  12.591  1.00  0.00     0.274 C 
BRANCH  13  14
HETATM   14  C   UNL     1     -40.650 -49.470  13.817  1.00  0.00     0.017 C 
HETATM   15  C   UNL     1     -39.577 -50.326  14.514  1.00  0.00     0.026 C 
HETATM   16  C   UNL     1     -39.161 -51.542  13.688  1.00  0.00     0.126 C 
HETATM   17  N   UNL     1     -40.325 -52.338  13.293  1.00  0.00    -0.352 N 
HETATM   18  C   UNL     1     -41.384 -51.594  12.608  1.00  0.00     0.126 C 
HETATM   19  C   UNL     1     -40.426 -53.721  13.334  1.00  0.00     0.215 C 
HETATM   20  C   UNL     1     -41.827 -50.378  13.419  1.00  0.00     0.026 C 
HETATM   21  O   UNL     1     -41.421 -54.315  12.908  1.00  0.00    -0.274 OA
HETATM   22  C   UNL     1     -39.318 -54.542  13.944  1.00  0.00     0.117 C 
ENDBRANCH  13  14
ENDBRANCH   1  13
TORSDOF 5
ENDMDL
MODEL 7
REMARK VINA RESULT:      -5.7      4.371      6.145
REMARK  5 active torsions:
REMARK  status: ('A' for Active; 'I' for Inactive)
REMARK    1  A    between atoms: C_2  and  C_3 
REMARK    2  A    between atoms: C_2  and  N_11 
REMARK    3  A    between atoms: C_3  and  N_4 
REMARK    4  A    between atoms: N_11  and  C_12 
REMARK    5  A    between atoms: C_12  and  C_13 
REMARK       I    between atoms: N_16  and  C_19 
ROOT
HETATM    1  N   UNL     1     -38.894 -51.223  12.770  1.00  0.00     0.089 N 
HETATM    2  H   UNL     1     -38.262 -51.393  13.556  1.00  0.00     0.316 HD
ENDROOT
BRANCH   1   3
HETATM    3  C   UNL     1     -38.715 -49.819  12.322  1.00  0.00     0.236 C 
HETATM    4  C   UNL     1     -37.538 -49.818  11.335  1.00  0.00     0.044 C 
BRANCH   3   5
HETATM    5  C   UNL     1     -39.983 -49.232  11.664  1.00  0.00     0.183 C 
BRANCH   5   6
HETATM    6  N   UNL     1     -40.031 -47.782  11.665  1.00  0.00    -0.301 N 
HETATM    7  C   UNL     1     -39.611 -46.952  12.664  1.00  0.00     0.118 A 
HETATM    8  C   UNL     1     -39.790 -45.666  12.204  1.00  0.00    -0.028 A 
HETATM    9  C   UNL     1     -39.486 -44.394  12.896  1.00  0.00     0.051 C 
HETATM   10  C   UNL     1     -40.327 -45.836  10.908  1.00  0.00     0.115 A 
HETATM   11  N   UNL     1     -40.470 -47.123  10.576  1.00  0.00    -0.310 N 
ATOM     12  HN  UNL     1     -40.828 -47.513   9.704  1.00  0.00     0.186 HD
ENDBRANCH   5   6
ENDBRANCH   3   5
ENDBRANCH   1   3
BRANCH   1  13
HETATM   13  C   UNL     1     -40.262 -51.523  13.196  1.00  0.00     0.274 C 
BRANCH  13  14
HETATM   14  C   UNL     1     -40.860 -52.697  12.388  1.00  0.00     0.017 C 
HETATM   15  C   UNL     1     -42.360 -52.537  12.085  1.00  0.00     0.026 C 
HETATM   16  C   UNL     1     -43.237 -52.701  13.325  1.00  0.00     0.126 C 
HETATM   17  N   UNL     1     -42.948 -53.960  14.015  1.00  0.00    -0.352 N 
HETATM   18  C   UNL     1     -41.540 -54.177  14.352  1.00  0.00     0.126 C 
HETATM   19  C   UNL     1     -43.883 -54.845  14.533  1.00  0.00     0.215 C 
HETATM   20  C   UNL     1     -40.643 -54.030  13.125  1.00  0.00     0.026 C 
HETATM   21  O   UNL     1     -43.548 -55.850  15.168  1.00  0.00    -0.274 OA
HETATM   22  C   UNL     1     -45.354 -54.616  14.294  1.00  0.00     0.117 C 
ENDBRANCH  13  14
ENDBRANCH   1  13
TORSDOF 5
ENDMDL
MODEL 8
REMARK VINA RESULT:      -5.4      3.046      6.815
REMARK  5 active torsions:
REMARK  status: ('A' for Active; 'I' for Inactive)
REMARK    1  A    between atoms: C_2  and  C_3 
REMARK    2  A    between atoms: C_2  and  N_11 
REMARK    3  A    between atoms: C_3  and  N_4 
REMARK    4  A    between atoms: N_11  and  C_12 
REMARK    5  A    between atoms: C_12  and  C_13 
REMARK       I    between atoms: N_16  and  C_19 
ROOT
HETATM    1  N   UNL     1     -40.122 -48.881  13.581  1.00  0.00     0.089 N 
HETATM    2  H   UNL     1     -40.026 -48.965  14.596  1.00  0.00     0.316 HD
ENDROOT
BRANCH   1   3
HETATM    3  C   UNL     1     -38.798 -49.146  12.963  1.00  0.00     0.236 C 
HETATM    4  C   UNL     1     -37.754 -48.433  13.836  1.00  0.00     0.044 C 
BRANCH   3   5
HETATM    5  C   UNL     1     -38.480 -50.653  12.847  1.00  0.00     0.183 C 
BRANCH   5   6
HETATM    6  N   UNL     1     -39.654 -51.495  12.710  1.00  0.00    -0.301 N 
HETATM    7  C   UNL     1     -40.160 -52.349  13.648  1.00  0.00     0.118 A 
HETATM    8  C   UNL     1     -41.308 -52.885  13.108  1.00  0.00    -0.028 A 
HETATM    9  C   UNL     1     -42.238 -53.861  13.716  1.00  0.00     0.051 C 
HETATM   10  C   UNL     1     -41.402 -52.283  11.833  1.00  0.00     0.115 A 
HETATM   11  N   UNL     1     -40.399 -51.433  11.591  1.00  0.00    -0.310 N 
ATOM     12  HN  UNL     1     -40.236 -50.871  10.755  1.00  0.00     0.186 HD
ENDBRANCH   5   6
ENDBRANCH   3   5
ENDBRANCH   1   3
BRANCH   1  13
HETATM   13  C   UNL     1     -40.649 -47.551  13.269  1.00  0.00     0.274 C 
BRANCH  13  14
HETATM   14  C   UNL     1     -42.173 -47.592  13.021  1.00  0.00     0.017 C 
HETATM   15  C   UNL     1     -42.602 -48.649  11.987  1.00  0.00     0.026 C 
HETATM   16  C   UNL     1     -42.192 -48.284  10.561  1.00  0.00     0.126 C 
HETATM   17  N   UNL     1     -42.662 -46.943  10.202  1.00  0.00    -0.352 N 
HETATM   18  C   UNL     1     -42.278 -45.880  11.133  1.00  0.00     0.126 C 
HETATM   19  C   UNL     1     -43.250 -46.574   9.001  1.00  0.00     0.215 C 
HETATM   20  C   UNL     1     -42.687 -46.216  12.565  1.00  0.00     0.026 C 
HETATM   21  O   UNL     1     -43.547 -45.401   8.754  1.00  0.00    -0.274 OA
HETATM   22  C   UNL     1     -43.579 -47.622   7.968  1.00  0.00     0.117 C 
ENDBRANCH  13  14
ENDBRANCH   1  13
TORSDOF 5
ENDMDL
MODEL 9
REMARK VINA RESULT:      -5.4      3.762      4.614
REMARK  5 active torsions:
REMARK  status: ('A' for Active; 'I' for Inactive)
REMARK    1  A    between atoms: C_2  and  C_3 
REMARK    2  A    between atoms: C_2  and  N_11 
REMARK    3  A    between atoms: C_3  and  N_4 
REMARK    4  A    between atoms: N_11  and  C_12 
REMARK    5  A    between atoms: C_12  and  C_13 
REMARK       I    between atoms: N_16  and  C_19 
ROOT
HETATM    1  N   UNL     1     -40.577 -52.026  11.757  1.00  0.00     0.089 N 
HETATM    2  H   UNL     1     -40.676 -51.374  10.975  1.00  0.00     0.316 HD
ENDROOT
BRANCH   1   3
HETATM    3  C   UNL     1     -41.933 -52.383  12.244  1.00  0.00     0.236 C 
HETATM    4  C   UNL     1     -41.761 -53.581  13.190  1.00  0.00     0.044 C 
BRANCH   3   5
HETATM    5  C   UNL     1     -42.641 -51.213  12.962  1.00  0.00     0.183 C 
BRANCH   5   6
HETATM    6  N   UNL     1     -44.029 -51.476  13.292  1.00  0.00    -0.301 N 
HETATM    7  C   UNL     1     -44.679 -51.118  14.439  1.00  0.00     0.118 A 
HETATM    8  C   UNL     1     -45.988 -51.517  14.286  1.00  0.00    -0.028 A 
HETATM    9  C   UNL     1     -47.110 -51.361  15.237  1.00  0.00     0.051 C 
HETATM   10  C   UNL     1     -46.020 -52.111  13.005  1.00  0.00     0.115 A 
HETATM   11  N   UNL     1     -44.830 -52.083  12.396  1.00  0.00    -0.310 N 
ATOM     12  HN  UNL     1     -44.587 -52.437  11.470  1.00  0.00     0.186 HD
ENDBRANCH   5   6
ENDBRANCH   3   5
ENDBRANCH   1   3
BRANCH   1  13
HETATM   13  C   UNL     1     -39.741 -51.400  12.784  1.00  0.00     0.274 C 
BRANCH  13  14
HETATM   14  C   UNL     1     -38.741 -50.399  12.165  1.00  0.00     0.017 C 
HETATM   15  C   UNL     1     -37.953 -49.588  13.209  1.00  0.00     0.026 C 
HETATM   16  C   UNL     1     -38.817 -48.560  13.938  1.00  0.00     0.126 C 
HETATM   17  N   UNL     1     -39.522 -47.694  12.990  1.00  0.00    -0.352 N 
HETATM   18  C   UNL     1     -40.309 -48.395  11.973  1.00  0.00     0.126 C 
HETATM   19  C   UNL     1     -39.663 -46.317  13.085  1.00  0.00     0.215 C 
HETATM   20  C   UNL     1     -39.464 -49.421  11.222  1.00  0.00     0.026 C 
HETATM   21  O   UNL     1     -40.341 -45.674  12.278  1.00  0.00    -0.274 OA
HETATM   22  C   UNL     1     -38.948 -45.557  14.174  1.00  0.00     0.117 C 
ENDBRANCH  13  14
ENDBRANCH   1  13
TORSDOF 5
ENDMDL
