MODEL 1
REMARK VINA RESULT:      -6.5      0.000      0.000
REMARK  5 active torsions:
REMARK  status: ('A' for Active; 'I' for Inactive)
REMARK    1  A    between atoms: C_2  and  O_3 
REMARK    2  A    between atoms: O_3  and  C_4 
REMARK    3  A    between atoms: C_10  and  N_11 
REMARK       I    between atoms: N_11  and  C_12 
REMARK       I    between atoms: C_12  and  N_14 
REMARK    4  A    between atoms: N_14  and  C_15 
REMARK    5  A    between atoms: N_18  and  S_21 
ROOT
HETATM    1  N   UNL     1     -41.942 -49.253  11.031  1.00  0.00    -0.305 N 
HETATM    2  C   UNL     1     -42.043 -49.805  12.288  1.00  0.00     0.321 C 
HETATM    3  O   UNL     1     -41.858 -49.206  13.344  1.00  0.00    -0.247 OA
HETATM    4  N   UNL     1     -42.433 -51.128  12.231  1.00  0.00    -0.338 N 
HETATM    5  H   UNL     1     -42.628 -49.586  10.364  1.00  0.00     0.171 HD
HETATM    6  H   UNL     1     -41.919 -51.630  11.519  1.00  0.00     0.164 HD
ENDROOT
BRANCH   1   7
HETATM    7  C   UNL     1     -41.500 -47.922  10.827  1.00  0.00     0.087 A 
HETATM    8  C   UNL     1     -42.320 -46.974  10.208  1.00  0.00     0.169 A 
HETATM    9  N   UNL     1     -41.932 -45.696   9.957  1.00  0.00    -0.345 N 
HETATM   10  C   UNL     1     -40.697 -45.335  10.358  1.00  0.00     0.090 A 
ATOM     11  HN  UNL     1     -42.550 -45.037   9.485  1.00  0.00     0.167 HD
HETATM   12  C   UNL     1     -39.823 -46.192  11.002  1.00  0.00     0.019 A 
HETATM   13  C   UNL     1     -40.233 -47.504  11.235  1.00  0.00     0.035 A 
BRANCH   8  14
HETATM   14  O   UNL     1     -43.618 -47.346   9.881  1.00  0.00    -0.334 OA
BRANCH  14  15
HETATM   15  C   UNL     1     -43.941 -46.933   8.545  1.00  0.00     0.173 C 
HETATM   16  C   UNL     1     -43.438 -47.968   7.558  1.00  0.00     0.034 C 
ENDBRANCH  14  15
ENDBRANCH   8  14
ENDBRANCH   1   7
BRANCH   4  17
HETATM   17  C   UNL     1     -42.705 -51.857  13.478  1.00  0.00     0.089 C 
HETATM   18  C   UNL     1     -42.491 -53.369  13.304  1.00  0.00     0.045 C 
HETATM   19  C   UNL     1     -43.612 -54.051  12.518  1.00  0.00     0.137 C 
HETATM   20  N   UNL     1     -44.957 -53.696  13.038  1.00  0.00    -0.311 N 
HETATM   21  C   UNL     1     -45.159 -52.224  13.082  1.00  0.00     0.137 C 
HETATM   22  C   UNL     1     -44.126 -51.589  13.998  1.00  0.00     0.045 C 
BRANCH  20  23
HETATM   23  S   UNL     1     -45.570 -54.577  14.360  1.00  0.00     0.224 S 
HETATM   24  O   UNL     1     -46.026 -55.862  13.881  1.00  0.00    -0.206 OA
HETATM   25  O   UNL     1     -44.626 -54.474  15.453  1.00  0.00    -0.206 OA
HETATM   26  C   UNL     1     -46.991 -53.608  14.811  1.00  0.00     0.186 C 
ENDBRANCH  20  23
ENDBRANCH   4  17
TORSDOF 5
ENDMDL
MODEL 2
REMARK VINA RESULT:      -6.5      3.166      7.920
REMARK  5 active torsions:
REMARK  status: ('A' for Active; 'I' for Inactive)
REMARK    1  A    between atoms: C_2  and  O_3 
REMARK    2  A    between atoms: O_3  and  C_4 
REMARK    3  A    between atoms: C_10  and  N_11 
REMARK       I    between atoms: N_11  and  C_12 
REMARK       I    between atoms: C_12  and  N_14 
REMARK    4  A    between atoms: N_14  and  C_15 
REMARK    5  A    between atoms: N_18  and  S_21 
ROOT
HETATM    1  N   UNL     1     -43.148 -51.913  12.513  1.00  0.00    -0.305 N 
HETATM    2  C   UNL     1     -43.360 -50.618  12.931  1.00  0.00     0.321 C 
HETATM    3  O   UNL     1     -44.006 -50.288  13.921  1.00  0.00    -0.247 OA
HETATM    4  N   UNL     1     -42.707 -49.711  12.121  1.00  0.00    -0.338 N 
HETATM    5  H   UNL     1     -42.225 -52.091  12.135  1.00  0.00     0.171 HD
HETATM    6  H   UNL     1     -42.837 -49.934  11.143  1.00  0.00     0.164 HD
ENDROOT
BRANCH   1   7
HETATM    7  C   UNL     1     -43.763 -53.018  13.150  1.00  0.00     0.087 A 
HETATM    8  C   UNL     1     -45.057 -53.423  12.810  1.00  0.00     0.169 A 
HETATM    9  N   UNL     1     -45.704 -54.453  13.416  1.00  0.00    -0.345 N 
HETATM   10  C   UNL     1     -45.036 -55.125  14.374  1.00  0.00     0.090 A 
ATOM     11  HN  UNL     1     -46.657 -54.707  13.156  1.00  0.00     0.167 HD
HETATM   12  C   UNL     1     -43.744 -54.820  14.762  1.00  0.00     0.019 A 
HETATM   13  C   UNL     1     -43.103 -53.748  14.141  1.00  0.00     0.035 A 
BRANCH   8  14
HETATM   14  O   UNL     1     -45.692 -52.769  11.763  1.00  0.00    -0.334 OA
BRANCH  14  15
HETATM   15  C   UNL     1     -46.772 -51.960  12.251  1.00  0.00     0.173 C 
HETATM   16  C   UNL     1     -47.579 -51.430  11.082  1.00  0.00     0.034 C 
ENDBRANCH  14  15
ENDBRANCH   8  14
ENDBRANCH   1   7
BRANCH   4  17
HETATM   17  C   UNL     1     -42.721 -48.284  12.474  1.00  0.00     0.089 C 
HETATM   18  C   UNL     1     -43.244 -47.422  11.314  1.00  0.00     0.045 C 
HETATM   19  C   UNL     1     -42.231 -47.257  10.180  1.00  0.00     0.137 C 
HETATM   20  N   UNL     1     -40.896 -46.837  10.678  1.00  0.00    -0.311 N 
HETATM   21  C   UNL     1     -40.381 -47.764  11.718  1.00  0.00     0.137 C 
HETATM   22  C   UNL     1     -41.331 -47.788  12.904  1.00  0.00     0.045 C 
BRANCH  20  23
HETATM   23  S   UNL     1     -40.620 -45.179  10.947  1.00  0.00     0.224 S 
HETATM   24  O   UNL     1     -41.803 -44.448  10.555  1.00  0.00    -0.206 OA
HETATM   25  O   UNL     1     -40.042 -45.022  12.266  1.00  0.00    -0.206 OA
HETATM   26  C   UNL     1     -39.330 -44.833   9.774  1.00  0.00     0.186 C 
ENDBRANCH  20  23
ENDBRANCH   4  17
TORSDOF 5
ENDMDL
MODEL 3
REMARK VINA RESULT:      -6.2      3.101      8.135
REMARK  5 active torsions:
REMARK  status: ('A' for Active; 'I' for Inactive)
REMARK    1  A    between atoms: C_2  and  O_3 
REMARK    2  A    between atoms: O_3  and  C_4 
REMARK    3  A    between atoms: C_10  and  N_11 
REMARK       I    between atoms: N_11  and  C_12 
REMARK       I    between atoms: C_12  and  N_14 
REMARK    4  A    between atoms: N_14  and  C_15 
REMARK    5  A    between atoms: N_18  and  S_21 
ROOT
HETATM    1  N   UNL     1     -44.854 -50.848  12.630  1.00  0.00    -0.305 N 
HETATM    2  C   UNL     1     -43.710 -50.231  13.085  1.00  0.00     0.321 C 
HETATM    3  O   UNL     1     -43.144 -50.476  14.147  1.00  0.00    -0.247 OA
HETATM    4  N   UNL     1     -43.228 -49.319  12.167  1.00  0.00    -0.338 N 
HETATM    5  H   UNL     1     -44.876 -51.022  11.633  1.00  0.00     0.171 HD
HETATM    6  H   UNL     1     -43.974 -48.747  11.794  1.00  0.00     0.164 HD
ENDROOT
BRANCH   1   7
HETATM    7  C   UNL     1     -45.568 -51.783  13.420  1.00  0.00     0.087 A 
HETATM    8  C   UNL     1     -45.392 -53.159  13.250  1.00  0.00     0.169 A 
HETATM    9  N   UNL     1     -46.078 -54.096  13.956  1.00  0.00    -0.345 N 
HETATM   10  C   UNL     1     -46.950 -53.655  14.884  1.00  0.00     0.090 A 
ATOM     11  HN  UNL     1     -45.939 -55.092  13.790  1.00  0.00     0.167 HD
HETATM   12  C   UNL     1     -47.174 -52.316  15.146  1.00  0.00     0.019 A 
HETATM   13  C   UNL     1     -46.474 -51.369  14.399  1.00  0.00     0.035 A 
BRANCH   8  14
HETATM   14  O   UNL     1     -44.427 -53.588  12.348  1.00  0.00    -0.334 OA
BRANCH  14  15
HETATM   15  C   UNL     1     -43.343 -54.231  13.033  1.00  0.00     0.173 C 
HETATM   16  C   UNL     1     -42.054 -53.479  12.762  1.00  0.00     0.034 C 
ENDBRANCH  14  15
ENDBRANCH   8  14
ENDBRANCH   1   7
BRANCH   4  17
HETATM   17  C   UNL     1     -41.950 -48.641  12.423  1.00  0.00     0.089 C 
HETATM   18  C   UNL     1     -42.150 -47.351  13.235  1.00  0.00     0.045 C 
HETATM   19  C   UNL     1     -42.733 -46.203  12.409  1.00  0.00     0.137 C 
HETATM   20  N   UNL     1     -41.995 -45.997  11.136  1.00  0.00    -0.311 N 
HETATM   21  C   UNL     1     -41.926 -47.245  10.333  1.00  0.00     0.137 C 
HETATM   22  C   UNL     1     -41.199 -48.324  11.119  1.00  0.00     0.045 C 
BRANCH  20  23
HETATM   23  S   UNL     1     -40.585 -45.043  11.165  1.00  0.00     0.224 S 
HETATM   24  O   UNL     1     -39.732 -45.521  12.229  1.00  0.00    -0.206 OA
HETATM   25  O   UNL     1     -40.095 -44.915   9.808  1.00  0.00    -0.206 OA
HETATM   26  C   UNL     1     -41.233 -43.455  11.632  1.00  0.00     0.186 C 
ENDBRANCH  20  23
ENDBRANCH   4  17
TORSDOF 5
ENDMDL
MODEL 4
REMARK VINA RESULT:      -5.9      3.254      8.239
REMARK  5 active torsions:
REMARK  status: ('A' for Active; 'I' for Inactive)
REMARK    1  A    between atoms: C_2  and  O_3 
REMARK    2  A    between atoms: O_3  and  C_4 
REMARK    3  A    between atoms: C_10  and  N_11 
REMARK       I    between atoms: N_11  and  C_12 
REMARK       I    between atoms: C_12  and  N_14 
REMARK    4  A    between atoms: N_14  and  C_15 
REMARK    5  A    between atoms: N_18  and  S_21 
ROOT
HETATM    1  N   UNL     1     -44.858 -51.334  12.725  1.00  0.00    -0.305 N 
HETATM    2  C   UNL     1     -43.641 -50.768  13.034  1.00  0.00     0.321 C 
HETATM    3  O   UNL     1     -42.801 -51.254  13.786  1.00  0.00    -0.247 OA
HETATM    4  N   UNL     1     -43.444 -49.586  12.348  1.00  0.00    -0.338 N 
HETATM    5  H   UNL     1     -45.152 -51.211  11.764  1.00  0.00     0.171 HD
HETATM    6  H   UNL     1     -44.272 -49.005  12.374  1.00  0.00     0.164 HD
ENDROOT
BRANCH   1   7
HETATM    7  C   UNL     1     -45.313 -52.523  13.348  1.00  0.00     0.087 A 
HETATM    8  C   UNL     1     -46.247 -52.484  14.387  1.00  0.00     0.169 A 
HETATM    9  N   UNL     1     -46.688 -53.591  15.040  1.00  0.00    -0.345 N 
HETATM   10  C   UNL     1     -46.208 -54.782  14.632  1.00  0.00     0.090 A 
ATOM     11  HN  UNL     1     -47.355 -53.523  15.809  1.00  0.00     0.167 HD
HETATM   12  C   UNL     1     -45.303 -54.926  13.597  1.00  0.00     0.019 A 
HETATM   13  C   UNL     1     -44.849 -53.778  12.950  1.00  0.00     0.035 A 
BRANCH   8  14
HETATM   14  O   UNL     1     -46.790 -51.253  14.733  1.00  0.00    -0.334 OA
BRANCH  14  15
HETATM   15  C   UNL     1     -47.302 -51.284  16.073  1.00  0.00     0.173 C 
HETATM   16  C   UNL     1     -46.299 -50.648  17.015  1.00  0.00     0.034 C 
ENDBRANCH  14  15
ENDBRANCH   8  14
ENDBRANCH   1   7
BRANCH   4  17
HETATM   17  C   UNL     1     -42.154 -48.890  12.459  1.00  0.00     0.089 C 
HETATM   18  C   UNL     1     -42.245 -47.686  13.410  1.00  0.00     0.045 C 
HETATM   19  C   UNL     1     -42.975 -46.489  12.799  1.00  0.00     0.137 C 
HETATM   20  N   UNL     1     -42.458 -46.145  11.450  1.00  0.00    -0.311 N 
HETATM   21  C   UNL     1     -42.496 -47.313  10.533  1.00  0.00     0.137 C 
HETATM   22  C   UNL     1     -41.631 -48.433  11.088  1.00  0.00     0.045 C 
BRANCH  20  23
HETATM   23  S   UNL     1     -41.081 -45.150  11.342  1.00  0.00     0.224 S 
HETATM   24  O   UNL     1     -40.148 -45.549  12.371  1.00  0.00    -0.206 OA
HETATM   25  O   UNL     1     -40.680 -45.076   9.953  1.00  0.00    -0.206 OA
HETATM   26  C   UNL     1     -41.749 -43.560  11.773  1.00  0.00     0.186 C 
ENDBRANCH  20  23
ENDBRANCH   4  17
TORSDOF 5
ENDMDL
MODEL 5
REMARK VINA RESULT:      -5.8      3.203      8.329
REMARK  5 active torsions:
REMARK  status: ('A' for Active; 'I' for Inactive)
REMARK    1  A    between atoms: C_2  and  O_3 
REMARK    2  A    between atoms: O_3  and  C_4 
REMARK    3  A    between atoms: C_10  and  N_11 
REMARK       I    between atoms: N_11  and  C_12 
REMARK       I    between atoms: C_12  and  N_14 
REMARK    4  A    between atoms: N_14  and  C_15 
REMARK    5  A    between atoms: N_18  and  S_21 
ROOT
HETATM    1  N   UNL     1     -42.987 -51.958  12.452  1.00  0.00    -0.305 N 
HETATM    2  C   UNL     1     -43.255 -50.680  12.890  1.00  0.00     0.321 C 
HETATM    3  O   UNL     1     -43.815 -50.393  13.944  1.00  0.00    -0.247 OA
HETATM    4  N   UNL     1     -42.765 -49.732  12.014  1.00  0.00    -0.338 N 
HETATM    5  H   UNL     1     -42.099 -52.067  11.977  1.00  0.00     0.171 HD
HETATM    6  H   UNL     1     -42.982 -49.974  11.056  1.00  0.00     0.164 HD
ENDROOT
BRANCH   1   7
HETATM    7  C   UNL     1     -43.441 -53.103  13.153  1.00  0.00     0.087 A 
HETATM    8  C   UNL     1     -42.621 -53.760  14.075  1.00  0.00     0.169 A 
HETATM    9  N   UNL     1     -42.995 -54.881  14.745  1.00  0.00    -0.345 N 
HETATM   10  C   UNL     1     -44.236 -55.354  14.516  1.00  0.00     0.090 A 
ATOM     11  HN  UNL     1     -42.362 -55.346  15.396  1.00  0.00     0.167 HD
HETATM   12  C   UNL     1     -45.130 -54.759  13.644  1.00  0.00     0.019 A 
HETATM   13  C   UNL     1     -44.722 -53.620  12.952  1.00  0.00     0.035 A 
BRANCH   8  14
HETATM   14  O   UNL     1     -41.379 -53.206  14.357  1.00  0.00    -0.334 OA
BRANCH  14  15
HETATM   15  C   UNL     1     -40.504 -54.189  14.927  1.00  0.00     0.173 C 
HETATM   16  C   UNL     1     -39.364 -54.473  13.967  1.00  0.00     0.034 C 
ENDBRANCH  14  15
ENDBRANCH   8  14
ENDBRANCH   1   7
BRANCH   4  17
HETATM   17  C   UNL     1     -42.854 -48.308  12.365  1.00  0.00     0.089 C 
HETATM   18  C   UNL     1     -43.333 -47.463  11.174  1.00  0.00     0.045 C 
HETATM   19  C   UNL     1     -42.256 -47.258  10.107  1.00  0.00     0.137 C 
HETATM   20  N   UNL     1     -40.972 -46.791  10.690  1.00  0.00    -0.311 N 
HETATM   21  C   UNL     1     -40.491 -47.701  11.761  1.00  0.00     0.137 C 
HETATM   22  C   UNL     1     -41.514 -47.762  12.884  1.00  0.00     0.045 C 
BRANCH  20  23
HETATM   23  S   UNL     1     -40.774 -45.124  10.977  1.00  0.00     0.224 S 
HETATM   24  O   UNL     1     -41.951 -44.435  10.498  1.00  0.00    -0.206 OA
HETATM   25  O   UNL     1     -40.301 -44.949  12.334  1.00  0.00    -0.206 OA
HETATM   26  C   UNL     1     -39.414 -44.732   9.901  1.00  0.00     0.186 C 
ENDBRANCH  20  23
ENDBRANCH   4  17
TORSDOF 5
ENDMDL
MODEL 6
REMARK VINA RESULT:      -5.5      4.307      8.396
REMARK  5 active torsions:
REMARK  status: ('A' for Active; 'I' for Inactive)
REMARK    1  A    between atoms: C_2  and  O_3 
REMARK    2  A    between atoms: O_3  and  C_4 
REMARK    3  A    between atoms: C_10  and  N_11 
REMARK       I    between atoms: N_11  and  C_12 
REMARK       I    between atoms: C_12  and  N_14 
REMARK    4  A    between atoms: N_14  and  C_15 
REMARK    5  A    between atoms: N_18  and  S_21 
ROOT
HETATM    1  N   UNL     1     -41.441 -50.510  13.053  1.00  0.00    -0.305 N 
HETATM    2  C   UNL     1     -40.982 -49.705  12.034  1.00  0.00     0.321 C 
HETATM    3  O   UNL     1     -40.176 -50.040  11.171  1.00  0.00    -0.247 OA
HETATM    4  N   UNL     1     -41.582 -48.461  12.063  1.00  0.00    -0.338 N 
HETATM    5  H   UNL     1     -42.420 -50.387  13.284  1.00  0.00     0.171 HD
HETATM    6  H   UNL     1     -41.608 -48.090  13.003  1.00  0.00     0.164 HD
ENDROOT
BRANCH   1   7
HETATM    7  C   UNL     1     -40.931 -51.814  13.267  1.00  0.00     0.087 A 
HETATM    8  C   UNL     1     -39.803 -52.029  14.065  1.00  0.00     0.169 A 
HETATM    9  N   UNL     1     -39.253 -53.254  14.272  1.00  0.00    -0.345 N 
HETATM   10  C   UNL     1     -39.858 -54.309  13.693  1.00  0.00     0.090 A 
ATOM     11  HN  UNL     1     -38.417 -53.370  14.844  1.00  0.00     0.167 HD
HETATM   12  C   UNL     1     -40.993 -54.204  12.910  1.00  0.00     0.019 A 
HETATM   13  C   UNL     1     -41.532 -52.936  12.693  1.00  0.00     0.035 A 
BRANCH   8  14
HETATM   14  O   UNL     1     -39.248 -50.937  14.719  1.00  0.00    -0.334 OA
BRANCH  14  15
HETATM   15  C   UNL     1     -37.908 -50.701  14.264  1.00  0.00     0.173 C 
HETATM   16  C   UNL     1     -37.791 -49.283  13.741  1.00  0.00     0.034 C 
ENDBRANCH  14  15
ENDBRANCH   8  14
ENDBRANCH   1   7
BRANCH   4  17
HETATM   17  C   UNL     1     -41.305 -47.499  10.987  1.00  0.00     0.089 C 
HETATM   18  C   UNL     1     -39.968 -46.774  11.210  1.00  0.00     0.045 C 
HETATM   19  C   UNL     1     -40.034 -45.712  12.309  1.00  0.00     0.137 C 
HETATM   20  N   UNL     1     -41.187 -44.793  12.132  1.00  0.00    -0.311 N 
HETATM   21  C   UNL     1     -42.471 -45.534  12.033  1.00  0.00     0.137 C 
HETATM   22  C   UNL     1     -42.436 -46.469  10.835  1.00  0.00     0.045 C 
BRANCH  20  23
HETATM   23  S   UNL     1     -41.006 -43.463  11.084  1.00  0.00     0.224 S 
HETATM   24  O   UNL     1     -40.013 -43.797  10.089  1.00  0.00    -0.206 OA
HETATM   25  O   UNL     1     -42.325 -43.000  10.704  1.00  0.00    -0.206 OA
HETATM   26  C   UNL     1     -40.322 -42.236  12.173  1.00  0.00     0.186 C 
ENDBRANCH  20  23
ENDBRANCH   4  17
TORSDOF 5
ENDMDL
MODEL 7
REMARK VINA RESULT:      -5.4      3.572      7.965
REMARK  5 active torsions:
REMARK  status: ('A' for Active; 'I' for Inactive)
REMARK    1  A    between atoms: C_2  and  O_3 
REMARK    2  A    between atoms: O_3  and  C_4 
REMARK    3  A    between atoms: C_10  and  N_11 
REMARK       I    between atoms: N_11  and  C_12 
REMARK       I    between atoms: C_12  and  N_14 
REMARK    4  A    between atoms: N_14  and  C_15 
REMARK    5  A    between atoms: N_18  and  S_21 
ROOT
HETATM    1  N   UNL     1     -40.904 -50.459  13.467  1.00  0.00    -0.305 N 
HETATM    2  C   UNL     1     -40.395 -49.584  12.532  1.00  0.00     0.321 C 
HETATM    3  O   UNL     1     -39.686 -49.896  11.579  1.00  0.00    -0.247 OA
HETATM    4  N   UNL     1     -40.821 -48.291  12.764  1.00  0.00    -0.338 N 
HETATM    5  H   UNL     1     -41.844 -50.247  13.779  1.00  0.00     0.171 HD
HETATM    6  H   UNL     1     -40.749 -48.053  13.744  1.00  0.00     0.164 HD
ENDROOT
BRANCH   1   7
HETATM    7  C   UNL     1     -40.562 -51.833  13.474  1.00  0.00     0.087 A 
HETATM    8  C   UNL     1     -41.350 -52.780  12.812  1.00  0.00     0.169 A 
HETATM    9  N   UNL     1     -41.086 -54.112  12.819  1.00  0.00    -0.345 N 
HETATM   10  C   UNL     1     -39.987 -54.521  13.481  1.00  0.00     0.090 A 
ATOM     11  HN  UNL     1     -41.696 -54.776  12.342  1.00  0.00     0.167 HD
HETATM   12  C   UNL     1     -39.129 -53.661  14.143  1.00  0.00     0.019 A 
HETATM   13  C   UNL     1     -39.426 -52.299  14.139  1.00  0.00     0.035 A 
BRANCH   8  14
HETATM   14  O   UNL     1     -42.430 -52.324  12.066  1.00  0.00    -0.334 OA
BRANCH  14  15
HETATM   15  C   UNL     1     -43.643 -52.965  12.488  1.00  0.00     0.173 C 
HETATM   16  C   UNL     1     -44.522 -51.963  13.211  1.00  0.00     0.034 C 
ENDBRANCH  14  15
ENDBRANCH   8  14
ENDBRANCH   1   7
BRANCH   4  17
HETATM   17  C   UNL     1     -40.473 -47.232  11.806  1.00  0.00     0.089 C 
HETATM   18  C   UNL     1     -40.130 -45.916  12.521  1.00  0.00     0.045 C 
HETATM   19  C   UNL     1     -41.359 -45.187  13.067  1.00  0.00     0.137 C 
HETATM   20  N   UNL     1     -42.428 -45.048  12.045  1.00  0.00    -0.311 N 
HETATM   21  C   UNL     1     -42.806 -46.361  11.462  1.00  0.00     0.137 C 
HETATM   22  C   UNL     1     -41.599 -46.992  10.786  1.00  0.00     0.045 C 
BRANCH  20  23
HETATM   23  S   UNL     1     -42.339 -43.741  10.957  1.00  0.00     0.224 S 
HETATM   24  O   UNL     1     -40.948 -43.492  10.655  1.00  0.00    -0.206 OA
HETATM   25  O   UNL     1     -43.309 -43.959   9.904  1.00  0.00    -0.206 OA
HETATM   26  C   UNL     1     -42.949 -42.401  11.952  1.00  0.00     0.186 C 
ENDBRANCH  20  23
ENDBRANCH   4  17
TORSDOF 5
ENDMDL
MODEL 8
REMARK VINA RESULT:      -5.4      5.505      7.082
REMARK  5 active torsions:
REMARK  status: ('A' for Active; 'I' for Inactive)
REMARK    1  A    between atoms: C_2  and  O_3 
REMARK    2  A    between atoms: O_3  and  C_4 
REMARK    3  A    between atoms: C_10  and  N_11 
REMARK       I    between atoms: N_11  and  C_12 
REMARK       I    between atoms: C_12  and  N_14 
REMARK    4  A    between atoms: N_14  and  C_15 
REMARK    5  A    between atoms: N_18  and  S_21 
ROOT
HETATM    1  N   UNL     1     -41.321 -47.584  12.539  1.00  0.00    -0.305 N 
HETATM    2  C   UNL     1     -39.994 -47.925  12.401  1.00  0.00     0.321 C 
HETATM    3  O   UNL     1     -39.320 -47.761  11.388  1.00  0.00    -0.247 OA
HETATM    4  N   UNL     1     -39.479 -48.441  13.573  1.00  0.00    -0.338 N 
HETATM    5  H   UNL     1     -41.572 -47.216  13.449  1.00  0.00     0.171 HD
HETATM    6  H   UNL     1     -40.112 -49.111  13.988  1.00  0.00     0.164 HD
ENDROOT
BRANCH   1   7
HETATM    7  C   UNL     1     -42.087 -47.088  11.456  1.00  0.00     0.087 A 
HETATM    8  C   UNL     1     -42.323 -45.719  11.302  1.00  0.00     0.169 A 
HETATM    9  N   UNL     1     -43.079 -45.196  10.302  1.00  0.00    -0.345 N 
HETATM   10  C   UNL     1     -43.599 -46.056   9.405  1.00  0.00     0.090 A 
ATOM     11  HN  UNL     1     -43.247 -44.192  10.233  1.00  0.00     0.167 HD
HETATM   12  C   UNL     1     -43.401 -47.424   9.455  1.00  0.00     0.019 A 
HETATM   13  C   UNL     1     -42.636 -47.944  10.499  1.00  0.00     0.035 A 
BRANCH   8  14
HETATM   14  O   UNL     1     -41.707 -44.846  12.190  1.00  0.00    -0.334 OA
BRANCH  14  15
HETATM   15  C   UNL     1     -40.591 -44.194  11.566  1.00  0.00     0.173 C 
HETATM   16  C   UNL     1     -39.390 -44.246  12.492  1.00  0.00     0.034 C 
ENDBRANCH  14  15
ENDBRANCH   8  14
ENDBRANCH   1   7
BRANCH   4  17
HETATM   17  C   UNL     1     -38.046 -48.758  13.656  1.00  0.00     0.089 C 
HETATM   18  C   UNL     1     -37.802 -50.062  14.431  1.00  0.00     0.045 C 
HETATM   19  C   UNL     1     -37.979 -49.908  15.943  1.00  0.00     0.137 C 
HETATM   20  N   UNL     1     -37.225 -48.746  16.480  1.00  0.00    -0.311 N 
HETATM   21  C   UNL     1     -37.578 -47.488  15.773  1.00  0.00     0.137 C 
HETATM   22  C   UNL     1     -37.243 -47.614  14.296  1.00  0.00     0.045 C 
BRANCH  20  23
HETATM   23  S   UNL     1     -35.579 -48.957  16.859  1.00  0.00     0.224 S 
HETATM   24  O   UNL     1     -35.208 -50.318  16.544  1.00  0.00    -0.206 OA
HETATM   25  O   UNL     1     -34.841 -47.833  16.323  1.00  0.00    -0.206 OA
HETATM   26  C   UNL     1     -35.590 -48.772  18.627  1.00  0.00     0.186 C 
ENDBRANCH  20  23
ENDBRANCH   4  17
TORSDOF 5
ENDMDL
MODEL 9
REMARK VINA RESULT:      -5.3      2.462      3.803
REMARK  5 active torsions:
REMARK  status: ('A' for Active; 'I' for Inactive)
REMARK    1  A    between atoms: C_2  and  O_3 
REMARK    2  A    between atoms: O_3  and  C_4 
REMARK    3  A    between atoms: C_10  and  N_11 
REMARK       I    between atoms: N_11  and  C_12 
REMARK       I    between atoms: C_12  and  N_14 
REMARK    4  A    between atoms: N_14  and  C_15 
REMARK    5  A    between atoms: N_18  and  S_21 
ROOT
HETATM    1  N   UNL     1     -42.260 -49.895  11.722  1.00  0.00    -0.305 N 
HETATM    2  C   UNL     1     -42.343 -50.149  13.073  1.00  0.00     0.321 C 
HETATM    3  O   UNL     1     -42.360 -49.297  13.956  1.00  0.00    -0.247 OA
HETATM    4  N   UNL     1     -42.457 -51.501  13.328  1.00  0.00    -0.338 N 
HETATM    5  H   UNL     1     -42.815 -50.510  11.139  1.00  0.00     0.171 HD
HETATM    6  H   UNL     1     -41.802 -52.035  12.771  1.00  0.00     0.164 HD
ENDROOT
BRANCH   1   7
HETATM    7  C   UNL     1     -42.078 -48.585  11.213  1.00  0.00     0.087 A 
HETATM    8  C   UNL     1     -40.800 -48.036  11.066  1.00  0.00     0.169 A 
HETATM    9  N   UNL     1     -40.574 -46.774  10.617  1.00  0.00    -0.345 N 
HETATM   10  C   UNL     1     -41.649 -46.037  10.276  1.00  0.00     0.090 A 
ATOM     11  HN  UNL     1     -39.628 -46.400  10.542  1.00  0.00     0.167 HD
HETATM   12  C   UNL     1     -42.949 -46.499  10.359  1.00  0.00     0.019 A 
HETATM   13  C   UNL     1     -43.163 -47.791  10.839  1.00  0.00     0.035 A 
BRANCH   8  14
HETATM   14  O   UNL     1     -39.706 -48.845  11.344  1.00  0.00    -0.334 OA
BRANCH  14  15
HETATM   15  C   UNL     1     -39.026 -48.389  12.523  1.00  0.00     0.173 C 
HETATM   16  C   UNL     1     -38.094 -49.474  13.024  1.00  0.00     0.034 C 
ENDBRANCH  14  15
ENDBRANCH   8  14
ENDBRANCH   1   7
BRANCH   4  17
HETATM   17  C   UNL     1     -42.670 -51.962  14.707  1.00  0.00     0.089 C 
HETATM   18  C   UNL     1     -41.338 -52.168  15.445  1.00  0.00     0.045 C 
HETATM   19  C   UNL     1     -40.595 -53.431  15.008  1.00  0.00     0.137 C 
HETATM   20  N   UNL     1     -41.472 -54.630  15.019  1.00  0.00    -0.311 N 
HETATM   21  C   UNL     1     -42.694 -54.424  14.200  1.00  0.00     0.137 C 
HETATM   22  C   UNL     1     -43.497 -53.258  14.755  1.00  0.00     0.045 C 
BRANCH  20  23
HETATM   23  S   UNL     1     -41.686 -55.461  16.490  1.00  0.00     0.224 S 
HETATM   24  O   UNL     1     -41.845 -54.487  17.546  1.00  0.00    -0.206 OA
HETATM   25  O   UNL     1     -42.661 -56.510  16.282  1.00  0.00    -0.206 OA
HETATM   26  C   UNL     1     -40.107 -56.254  16.689  1.00  0.00     0.186 C 
ENDBRANCH  20  23
ENDBRANCH   4  17
TORSDOF 5
ENDMDL
