MODEL 1
REMARK VINA RESULT:      -6.4      0.000      0.000
REMARK  4 active torsions:
REMARK  status: ('A' for Active; 'I' for Inactive)
REMARK    1  A    between atoms: C_5  and  C_10 
REMARK       I    between atoms: C_10  and  N_12 
REMARK    2  A    between atoms: N_12  and  C_13 
REMARK    3  A    between atoms: C_13  and  C_14 
REMARK    4  A    between atoms: C_14  and  C_15 
ROOT
HETATM    1  C   UNL     1     -40.977 -49.260  11.462  1.00  0.00     0.265 C 
HETATM    2  O   UNL     1     -39.822 -49.029  11.791  1.00  0.00    -0.266 OA
HETATM    3  N   UNL     1     -41.634 -50.447  11.723  1.00  0.00    -0.356 N 
HETATM    4  H   UNL     1     -42.606 -50.530  11.436  1.00  0.00     0.162 HD
ENDROOT
BRANCH   1   5
HETATM    5  C   UNL     1     -41.757 -48.179  10.715  1.00  0.00     0.094 A 
HETATM    6  N   UNL     1     -42.290 -48.449   9.564  1.00  0.00    -0.295 N 
HETATM    7  N   UNL     1     -42.985 -47.459   8.908  1.00  0.00    -0.265 N 
ATOM      8  HN  UNL     1     -42.196 -49.378   9.153  1.00  0.00     0.187 HD
HETATM    9  C   UNL     1     -43.563 -47.807   7.623  1.00  0.00     0.181 C 
HETATM   10  C   UNL     1     -43.158 -46.157   9.352  1.00  0.00     0.238 A 
HETATM   11  C   UNL     1     -42.568 -45.780  10.679  1.00  0.00     0.111 A 
HETATM   12  O   UNL     1     -43.773 -45.305   8.703  1.00  0.00    -0.272 OA
HETATM   13  C   UNL     1     -41.837 -46.862  11.422  1.00  0.00     0.073 A 
ENDBRANCH   1   5
BRANCH   3  14
HETATM   14  C   UNL     1     -40.936 -51.491  12.452  1.00  0.00     0.127 C 
BRANCH  14  15
HETATM   15  C   UNL     1     -41.269 -52.913  12.003  1.00  0.00     0.060 C 
BRANCH  15  16
HETATM   16  C   UNL     1     -42.351 -53.524  12.859  1.00  0.00    -0.041 A 
HETATM   17  C   UNL     1     -42.044 -54.286  13.990  1.00  0.00     0.010 A 
HETATM   18  C   UNL     1     -43.068 -54.860  14.740  1.00  0.00     0.018 A 
HETATM   19  C   UNL     1     -44.375 -54.657  14.330  1.00  0.00     0.087 A 
HETATM   20  N   UNL     1     -44.713 -53.933  13.242  1.00  0.00    -0.375 N 
HETATM   21  C   UNL     1     -43.698 -53.387  12.533  1.00  0.00     0.094 A 
ATOM     22  HN  UNL     1     -45.687 -53.803  12.968  1.00  0.00     0.164 HD
ENDBRANCH  15  16
ENDBRANCH  14  15
ENDBRANCH   3  14
TORSDOF 4
ENDMDL
MODEL 2
REMARK VINA RESULT:      -6.2      1.912      2.539
REMARK  4 active torsions:
REMARK  status: ('A' for Active; 'I' for Inactive)
REMARK    1  A    between atoms: C_5  and  C_10 
REMARK       I    between atoms: C_10  and  N_12 
REMARK    2  A    between atoms: N_12  and  C_13 
REMARK    3  A    between atoms: C_13  and  C_14 
REMARK    4  A    between atoms: C_14  and  C_15 
ROOT
HETATM    1  C   UNL     1     -41.327 -50.428  11.872  1.00  0.00     0.265 C 
HETATM    2  O   UNL     1     -40.270 -51.032  11.974  1.00  0.00    -0.266 OA
HETATM    3  N   UNL     1     -42.559 -50.964  12.191  1.00  0.00    -0.356 N 
HETATM    4  H   UNL     1     -43.379 -50.369  12.102  1.00  0.00     0.162 HD
ENDROOT
BRANCH   1   5
HETATM    5  C   UNL     1     -41.303 -48.989  11.361  1.00  0.00     0.094 A 
HETATM    6  N   UNL     1     -42.237 -48.572  10.563  1.00  0.00    -0.295 N 
HETATM    7  N   UNL     1     -42.193 -47.273  10.113  1.00  0.00    -0.265 N 
ATOM      8  HN  UNL     1     -42.990 -49.197  10.275  1.00  0.00     0.187 HD
HETATM    9  C   UNL     1     -43.259 -46.852   9.221  1.00  0.00     0.181 C 
HETATM   10  C   UNL     1     -41.210 -46.341  10.413  1.00  0.00     0.238 A 
HETATM   11  C   UNL     1     -40.102 -46.759  11.334  1.00  0.00     0.111 A 
HETATM   12  O   UNL     1     -41.214 -45.195   9.956  1.00  0.00    -0.272 OA
HETATM   13  C   UNL     1     -40.158 -48.165  11.861  1.00  0.00     0.073 A 
ENDBRANCH   1   5
BRANCH   3  14
HETATM   14  C   UNL     1     -42.623 -52.322  12.703  1.00  0.00     0.127 C 
BRANCH  14  15
HETATM   15  C   UNL     1     -43.814 -53.137  12.199  1.00  0.00     0.060 C 
BRANCH  15  16
HETATM   16  C   UNL     1     -45.008 -52.994  13.110  1.00  0.00    -0.041 A 
HETATM   17  C   UNL     1     -45.528 -51.738  13.439  1.00  0.00     0.010 A 
HETATM   18  C   UNL     1     -46.613 -51.643  14.307  1.00  0.00     0.018 A 
HETATM   19  C   UNL     1     -47.144 -52.811  14.826  1.00  0.00     0.087 A 
HETATM   20  N   UNL     1     -46.669 -54.041  14.538  1.00  0.00    -0.375 N 
HETATM   21  C   UNL     1     -45.615 -54.104  13.691  1.00  0.00     0.094 A 
ATOM     22  HN  UNL     1     -47.084 -54.882  14.938  1.00  0.00     0.164 HD
ENDBRANCH  15  16
ENDBRANCH  14  15
ENDBRANCH   3  14
TORSDOF 4
ENDMDL
MODEL 3
REMARK VINA RESULT:      -6.0      2.670      7.309
REMARK  4 active torsions:
REMARK  status: ('A' for Active; 'I' for Inactive)
REMARK    1  A    between atoms: C_5  and  C_10 
REMARK       I    between atoms: C_10  and  N_12 
REMARK    2  A    between atoms: N_12  and  C_13 
REMARK    3  A    between atoms: C_13  and  C_14 
REMARK    4  A    between atoms: C_14  and  C_15 
ROOT
HETATM    1  C   UNL     1     -41.506 -52.074  12.162  1.00  0.00     0.265 C 
HETATM    2  O   UNL     1     -40.447 -52.683  12.140  1.00  0.00    -0.266 OA
HETATM    3  N   UNL     1     -41.655 -50.763  11.751  1.00  0.00    -0.356 N 
HETATM    4  H   UNL     1     -42.586 -50.355  11.778  1.00  0.00     0.162 HD
ENDROOT
BRANCH   1   5
HETATM    5  C   UNL     1     -42.754 -52.792  12.672  1.00  0.00     0.094 A 
HETATM    6  N   UNL     1     -43.930 -52.338  12.363  1.00  0.00    -0.295 N 
HETATM    7  N   UNL     1     -45.039 -52.999  12.836  1.00  0.00    -0.265 N 
ATOM      8  HN  UNL     1     -44.029 -51.507  11.780  1.00  0.00     0.187 HD
HETATM    9  C   UNL     1     -46.334 -52.454  12.466  1.00  0.00     0.181 C 
HETATM   10  C   UNL     1     -45.032 -54.119  13.654  1.00  0.00     0.238 A 
HETATM   11  C   UNL     1     -43.703 -54.695  14.047  1.00  0.00     0.111 A 
HETATM   12  O   UNL     1     -46.066 -54.652  14.068  1.00  0.00    -0.272 OA
HETATM   13  C   UNL     1     -42.484 -54.004  13.506  1.00  0.00     0.073 A 
ENDBRANCH   1   5
BRANCH   3  14
HETATM   14  C   UNL     1     -40.498 -50.053  11.237  1.00  0.00     0.127 C 
BRANCH  14  15
HETATM   15  C   UNL     1     -39.965 -48.953  12.155  1.00  0.00     0.060 C 
BRANCH  15  16
HETATM   16  C   UNL     1     -40.327 -47.581  11.643  1.00  0.00    -0.041 A 
HETATM   17  C   UNL     1     -39.788 -46.423  12.213  1.00  0.00     0.010 A 
HETATM   18  C   UNL     1     -40.169 -45.172  11.733  1.00  0.00     0.018 A 
HETATM   19  C   UNL     1     -41.086 -45.116  10.698  1.00  0.00     0.087 A 
HETATM   20  N   UNL     1     -41.633 -46.209  10.125  1.00  0.00    -0.375 N 
HETATM   21  C   UNL     1     -41.245 -47.411  10.610  1.00  0.00     0.094 A 
ATOM     22  HN  UNL     1     -42.307 -46.132   9.362  1.00  0.00     0.164 HD
ENDBRANCH  15  16
ENDBRANCH  14  15
ENDBRANCH   3  14
TORSDOF 4
ENDMDL
MODEL 4
REMARK VINA RESULT:      -6.0      1.883      2.451
REMARK  4 active torsions:
REMARK  status: ('A' for Active; 'I' for Inactive)
REMARK    1  A    between atoms: C_5  and  C_10 
REMARK       I    between atoms: C_10  and  N_12 
REMARK    2  A    between atoms: N_12  and  C_13 
REMARK    3  A    between atoms: C_13  and  C_14 
REMARK    4  A    between atoms: C_14  and  C_15 
ROOT
HETATM    1  C   UNL     1     -40.913 -49.894  11.615  1.00  0.00     0.265 C 
HETATM    2  O   UNL     1     -39.737 -50.133  11.848  1.00  0.00    -0.266 OA
HETATM    3  N   UNL     1     -41.922 -50.836  11.681  1.00  0.00    -0.356 N 
HETATM    4  H   UNL     1     -42.875 -50.531  11.500  1.00  0.00     0.162 HD
ENDROOT
BRANCH   1   5
HETATM    5  C   UNL     1     -41.309 -48.471  11.227  1.00  0.00     0.094 A 
HETATM    6  N   UNL     1     -40.390 -47.597  10.956  1.00  0.00    -0.295 N 
HETATM    7  N   UNL     1     -40.770 -46.321  10.613  1.00  0.00    -0.265 N 
ATOM      8  HN  UNL     1     -39.403 -47.852  10.998  1.00  0.00     0.187 HD
HETATM    9  C   UNL     1     -39.706 -45.377  10.320  1.00  0.00     0.181 C 
HETATM   10  C   UNL     1     -42.073 -45.850  10.548  1.00  0.00     0.238 A 
HETATM   11  C   UNL     1     -43.185 -46.812  10.847  1.00  0.00     0.111 A 
HETATM   12  O   UNL     1     -42.349 -44.683  10.257  1.00  0.00    -0.272 OA
HETATM   13  C   UNL     1     -42.784 -48.219  11.189  1.00  0.00     0.073 A 
ENDBRANCH   1   5
BRANCH   3  14
HETATM   14  C   UNL     1     -41.590 -52.195  12.070  1.00  0.00     0.127 C 
BRANCH  14  15
HETATM   15  C   UNL     1     -42.252 -52.667  13.365  1.00  0.00     0.060 C 
BRANCH  15  16
HETATM   16  C   UNL     1     -43.740 -52.420  13.346  1.00  0.00    -0.041 A 
HETATM   17  C   UNL     1     -44.335 -51.478  14.192  1.00  0.00     0.010 A 
HETATM   18  C   UNL     1     -45.716 -51.298  14.169  1.00  0.00     0.018 A 
HETATM   19  C   UNL     1     -46.465 -52.074  13.300  1.00  0.00     0.087 A 
HETATM   20  N   UNL     1     -45.931 -52.996  12.472  1.00  0.00    -0.375 N 
HETATM   21  C   UNL     1     -44.587 -53.149  12.515  1.00  0.00     0.094 A 
ATOM     22  HN  UNL     1     -46.512 -53.551  11.843  1.00  0.00     0.164 HD
ENDBRANCH  15  16
ENDBRANCH  14  15
ENDBRANCH   3  14
TORSDOF 4
ENDMDL
MODEL 5
REMARK VINA RESULT:      -6.0      3.469      6.859
REMARK  4 active torsions:
REMARK  status: ('A' for Active; 'I' for Inactive)
REMARK    1  A    between atoms: C_5  and  C_10 
REMARK       I    between atoms: C_10  and  N_12 
REMARK    2  A    between atoms: N_12  and  C_13 
REMARK    3  A    between atoms: C_13  and  C_14 
REMARK    4  A    between atoms: C_14  and  C_15 
ROOT
HETATM    1  C   UNL     1     -41.455 -48.671  12.577  1.00  0.00     0.265 C 
HETATM    2  O   UNL     1     -42.009 -48.484  13.650  1.00  0.00    -0.266 OA
HETATM    3  N   UNL     1     -41.916 -48.180  11.371  1.00  0.00    -0.356 N 
HETATM    4  H   UNL     1     -41.366 -48.363  10.536  1.00  0.00     0.162 HD
ENDROOT
BRANCH   1   5
HETATM    5  C   UNL     1     -40.170 -49.497  12.549  1.00  0.00     0.094 A 
HETATM    6  N   UNL     1     -40.100 -50.602  13.224  1.00  0.00    -0.295 N 
HETATM    7  N   UNL     1     -38.931 -51.327  13.187  1.00  0.00    -0.265 N 
ATOM      8  HN  UNL     1     -40.896 -50.927  13.772  1.00  0.00     0.187 HD
HETATM    9  C   UNL     1     -38.899 -52.557  13.959  1.00  0.00     0.181 C 
HETATM   10  C   UNL     1     -37.777 -50.976  12.502  1.00  0.00     0.238 A 
HETATM   11  C   UNL     1     -37.793 -49.709  11.699  1.00  0.00     0.111 A 
HETATM   12  O   UNL     1     -36.749 -51.659  12.529  1.00  0.00    -0.272 OA
HETATM   13  C   UNL     1     -39.076 -48.926  11.702  1.00  0.00     0.073 A 
ENDBRANCH   1   5
BRANCH   3  14
HETATM   14  C   UNL     1     -43.121 -47.370  11.357  1.00  0.00     0.127 C 
BRANCH  14  15
HETATM   15  C   UNL     1     -43.375 -46.628  10.045  1.00  0.00     0.060 C 
BRANCH  15  16
HETATM   16  C   UNL     1     -44.375 -47.356   9.183  1.00  0.00    -0.041 A 
HETATM   17  C   UNL     1     -45.688 -47.576   9.613  1.00  0.00     0.010 A 
HETATM   18  C   UNL     1     -46.575 -48.280   8.802  1.00  0.00     0.018 A 
HETATM   19  C   UNL     1     -46.119 -48.749   7.581  1.00  0.00     0.087 A 
HETATM   20  N   UNL     1     -44.860 -48.563   7.132  1.00  0.00    -0.375 N 
HETATM   21  C   UNL     1     -44.020 -47.876   7.940  1.00  0.00     0.094 A 
ATOM     22  HN  UNL     1     -44.557 -48.922   6.227  1.00  0.00     0.164 HD
ENDBRANCH  15  16
ENDBRANCH  14  15
ENDBRANCH   3  14
TORSDOF 4
ENDMDL
MODEL 6
REMARK VINA RESULT:      -5.8      2.044      2.433
REMARK  4 active torsions:
REMARK  status: ('A' for Active; 'I' for Inactive)
REMARK    1  A    between atoms: C_5  and  C_10 
REMARK       I    between atoms: C_10  and  N_12 
REMARK    2  A    between atoms: N_12  and  C_13 
REMARK    3  A    between atoms: C_13  and  C_14 
REMARK    4  A    between atoms: C_14  and  C_15 
ROOT
HETATM    1  C   UNL     1     -42.858 -48.878  12.833  1.00  0.00     0.265 C 
HETATM    2  O   UNL     1     -41.939 -48.698  13.619  1.00  0.00    -0.266 OA
HETATM    3  N   UNL     1     -43.834 -49.843  12.991  1.00  0.00    -0.356 N 
HETATM    4  H   UNL     1     -44.576 -49.893  12.298  1.00  0.00     0.162 HD
ENDROOT
BRANCH   1   5
HETATM    5  C   UNL     1     -42.950 -47.988  11.595  1.00  0.00     0.094 A 
HETATM    6  N   UNL     1     -43.891 -48.189  10.726  1.00  0.00    -0.295 N 
HETATM    7  N   UNL     1     -43.952 -47.378   9.616  1.00  0.00    -0.265 N 
ATOM      8  HN  UNL     1     -44.573 -48.935  10.862  1.00  0.00     0.187 HD
HETATM    9  C   UNL     1     -45.021 -47.642   8.670  1.00  0.00     0.181 C 
HETATM   10  C   UNL     1     -43.071 -46.352   9.310  1.00  0.00     0.238 A 
HETATM   11  C   UNL     1     -41.960 -46.065  10.276  1.00  0.00     0.111 A 
HETATM   12  O   UNL     1     -43.165 -45.674   8.282  1.00  0.00    -0.272 OA
HETATM   13  C   UNL     1     -41.904 -46.921  11.510  1.00  0.00     0.073 A 
ENDBRANCH   1   5
BRANCH   3  14
HETATM   14  C   UNL     1     -43.796 -50.694  14.167  1.00  0.00     0.127 C 
BRANCH  14  15
HETATM   15  C   UNL     1     -45.165 -51.176  14.649  1.00  0.00     0.060 C 
BRANCH  15  16
HETATM   16  C   UNL     1     -45.350 -52.652  14.401  1.00  0.00    -0.041 A 
HETATM   17  C   UNL     1     -44.320 -53.439  13.873  1.00  0.00     0.010 A 
HETATM   18  C   UNL     1     -44.537 -54.793  13.630  1.00  0.00     0.018 A 
HETATM   19  C   UNL     1     -45.784 -55.321  13.918  1.00  0.00     0.087 A 
HETATM   20  N   UNL     1     -46.804 -54.596  14.423  1.00  0.00    -0.375 N 
HETATM   21  C   UNL     1     -46.566 -53.283  14.650  1.00  0.00     0.094 A 
ATOM     22  HN  UNL     1     -47.711 -55.017  14.625  1.00  0.00     0.164 HD
ENDBRANCH  15  16
ENDBRANCH  14  15
ENDBRANCH   3  14
TORSDOF 4
ENDMDL
MODEL 7
REMARK VINA RESULT:      -5.7      2.427      6.970
REMARK  4 active torsions:
REMARK  status: ('A' for Active; 'I' for Inactive)
REMARK    1  A    between atoms: C_5  and  C_10 
REMARK       I    between atoms: C_10  and  N_12 
REMARK    2  A    between atoms: N_12  and  C_13 
REMARK    3  A    between atoms: C_13  and  C_14 
REMARK    4  A    between atoms: C_14  and  C_15 
ROOT
HETATM    1  C   UNL     1     -41.745 -50.595  12.613  1.00  0.00     0.265 C 
HETATM    2  O   UNL     1     -40.979 -50.353  13.535  1.00  0.00    -0.266 OA
HETATM    3  N   UNL     1     -41.804 -49.864  11.443  1.00  0.00    -0.356 N 
HETATM    4  H   UNL     1     -42.454 -50.165  10.721  1.00  0.00     0.162 HD
ENDROOT
BRANCH   1   5
HETATM    5  C   UNL     1     -42.704 -51.777  12.748  1.00  0.00     0.094 A 
HETATM    6  N   UNL     1     -43.973 -51.602  12.549  1.00  0.00    -0.295 N 
HETATM    7  N   UNL     1     -44.819 -52.679  12.680  1.00  0.00    -0.265 N 
ATOM      8  HN  UNL     1     -44.338 -50.682  12.301  1.00  0.00     0.187 HD
HETATM    9  C   UNL     1     -46.231 -52.435  12.449  1.00  0.00     0.181 C 
HETATM   10  C   UNL     1     -44.446 -53.967  13.036  1.00  0.00     0.238 A 
HETATM   11  C   UNL     1     -42.990 -54.237  13.278  1.00  0.00     0.111 A 
HETATM   12  O   UNL     1     -45.258 -54.888  13.161  1.00  0.00    -0.272 OA
HETATM   13  C   UNL     1     -42.052 -53.076  13.104  1.00  0.00     0.073 A 
ENDBRANCH   1   5
BRANCH   3  14
HETATM   14  C   UNL     1     -40.892 -48.748  11.265  1.00  0.00     0.127 C 
BRANCH  14  15
HETATM   15  C   UNL     1     -41.512 -47.373  11.513  1.00  0.00     0.060 C 
BRANCH  15  16
HETATM   16  C   UNL     1     -42.678 -47.117  10.591  1.00  0.00    -0.041 A 
HETATM   17  C   UNL     1     -42.582 -46.214   9.526  1.00  0.00     0.010 A 
HETATM   18  C   UNL     1     -43.688 -45.981   8.713  1.00  0.00     0.018 A 
HETATM   19  C   UNL     1     -44.864 -46.657   8.992  1.00  0.00     0.087 A 
HETATM   20  N   UNL     1     -44.999 -47.532  10.011  1.00  0.00    -0.375 N 
HETATM   21  C   UNL     1     -43.908 -47.740  10.785  1.00  0.00     0.094 A 
ATOM     22  HN  UNL     1     -45.880 -48.014  10.189  1.00  0.00     0.164 HD
ENDBRANCH  15  16
ENDBRANCH  14  15
ENDBRANCH   3  14
TORSDOF 4
ENDMDL
MODEL 8
REMARK VINA RESULT:      -5.7      2.703      4.714
REMARK  4 active torsions:
REMARK  status: ('A' for Active; 'I' for Inactive)
REMARK    1  A    between atoms: C_5  and  C_10 
REMARK       I    between atoms: C_10  and  N_12 
REMARK    2  A    between atoms: N_12  and  C_13 
REMARK    3  A    between atoms: C_13  and  C_14 
REMARK    4  A    between atoms: C_14  and  C_15 
ROOT
HETATM    1  C   UNL     1     -42.579 -52.500  12.963  1.00  0.00     0.265 C 
HETATM    2  O   UNL     1     -42.478 -53.054  14.048  1.00  0.00    -0.266 OA
HETATM    3  N   UNL     1     -43.627 -52.700  12.086  1.00  0.00    -0.356 N 
HETATM    4  H   UNL     1     -43.637 -52.167  11.220  1.00  0.00     0.162 HD
ENDROOT
BRANCH   1   5
HETATM    5  C   UNL     1     -41.487 -51.522  12.534  1.00  0.00     0.094 A 
HETATM    6  N   UNL     1     -41.796 -50.481  11.825  1.00  0.00    -0.295 N 
HETATM    7  N   UNL     1     -40.795 -49.616  11.447  1.00  0.00    -0.265 N 
ATOM      8  HN  UNL     1     -42.764 -50.308  11.553  1.00  0.00     0.187 HD
HETATM    9  C   UNL     1     -41.189 -48.466  10.653  1.00  0.00     0.181 C 
HETATM   10  C   UNL     1     -39.446 -49.759  11.734  1.00  0.00     0.238 A 
HETATM   11  C   UNL     1     -39.021 -50.941  12.553  1.00  0.00     0.111 A 
HETATM   12  O   UNL     1     -38.591 -48.958  11.343  1.00  0.00    -0.272 OA
HETATM   13  C   UNL     1     -40.109 -51.875  13.002  1.00  0.00     0.073 A 
ENDBRANCH   1   5
BRANCH   3  14
HETATM   14  C   UNL     1     -44.698 -53.604  12.466  1.00  0.00     0.127 C 
BRANCH  14  15
HETATM   15  C   UNL     1     -46.041 -52.923  12.735  1.00  0.00     0.060 C 
BRANCH  15  16
HETATM   16  C   UNL     1     -46.259 -52.695  14.210  1.00  0.00    -0.041 A 
HETATM   17  C   UNL     1     -46.796 -51.496  14.691  1.00  0.00     0.010 A 
HETATM   18  C   UNL     1     -46.956 -51.309  16.062  1.00  0.00     0.018 A 
HETATM   19  C   UNL     1     -46.567 -52.328  16.914  1.00  0.00     0.087 A 
HETATM   20  N   UNL     1     -46.041 -53.497  16.491  1.00  0.00    -0.375 N 
HETATM   21  C   UNL     1     -45.898 -53.652  15.154  1.00  0.00     0.094 A 
ATOM     22  HN  UNL     1     -45.765 -54.228  17.147  1.00  0.00     0.164 HD
ENDBRANCH  15  16
ENDBRANCH  14  15
ENDBRANCH   3  14
TORSDOF 4
ENDMDL
MODEL 9
REMARK VINA RESULT:      -5.6      3.179      7.078
REMARK  4 active torsions:
REMARK  status: ('A' for Active; 'I' for Inactive)
REMARK    1  A    between atoms: C_5  and  C_10 
REMARK       I    between atoms: C_10  and  N_12 
REMARK    2  A    between atoms: N_12  and  C_13 
REMARK    3  A    between atoms: C_13  and  C_14 
REMARK    4  A    between atoms: C_14  and  C_15 
ROOT
HETATM    1  C   UNL     1     -41.330 -51.602  12.375  1.00  0.00     0.265 C 
HETATM    2  O   UNL     1     -40.268 -51.832  12.935  1.00  0.00    -0.266 OA
HETATM    3  N   UNL     1     -41.523 -50.574  11.473  1.00  0.00    -0.356 N 
HETATM    4  H   UNL     1     -42.436 -50.484  11.036  1.00  0.00     0.162 HD
ENDROOT
BRANCH   1   5
HETATM    5  C   UNL     1     -42.529 -52.498  12.679  1.00  0.00     0.094 A 
HETATM    6  N   UNL     1     -43.726 -52.098  12.378  1.00  0.00    -0.295 N 
HETATM    7  N   UNL     1     -44.791 -52.920  12.665  1.00  0.00    -0.265 N 
ATOM      8  HN  UNL     1     -43.874 -51.190  11.937  1.00  0.00     0.187 HD
HETATM    9  C   UNL     1     -46.111 -52.429  12.311  1.00  0.00     0.181 C 
HETATM   10  C   UNL     1     -44.718 -54.159  13.283  1.00  0.00     0.238 A 
HETATM   11  C   UNL     1     -43.362 -54.682  13.655  1.00  0.00     0.111 A 
HETATM   12  O   UNL     1     -45.717 -54.840  13.536  1.00  0.00    -0.272 OA
HETATM   13  C   UNL     1     -42.187 -53.809  13.315  1.00  0.00     0.073 A 
ENDBRANCH   1   5
BRANCH   3  14
HETATM   14  C   UNL     1     -40.402 -49.714  11.139  1.00  0.00     0.127 C 
BRANCH  14  15
HETATM   15  C   UNL     1     -40.546 -48.266  11.610  1.00  0.00     0.060 C 
BRANCH  15  16
HETATM   16  C   UNL     1     -39.524 -47.924  12.665  1.00  0.00    -0.041 A 
HETATM   17  C   UNL     1     -39.503 -46.669  13.282  1.00  0.00     0.010 A 
HETATM   18  C   UNL     1     -38.526 -46.378  14.231  1.00  0.00     0.018 A 
HETATM   19  C   UNL     1     -37.591 -47.354  14.531  1.00  0.00     0.087 A 
HETATM   20  N   UNL     1     -37.573 -48.574  13.956  1.00  0.00    -0.375 N 
HETATM   21  C   UNL     1     -38.534 -48.830  13.038  1.00  0.00     0.094 A 
ATOM     22  HN  UNL     1     -36.869 -49.270  14.201  1.00  0.00     0.164 HD
ENDBRANCH  15  16
ENDBRANCH  14  15
ENDBRANCH   3  14
TORSDOF 4
ENDMDL
