MODEL 1
REMARK VINA RESULT:      -7.0      0.000      0.000
REMARK  4 active torsions:
REMARK  status: ('A' for Active; 'I' for Inactive)
REMARK    1  A    between atoms: C_2  and  C_5 
REMARK    2  A    between atoms: N_10  and  C_11 
REMARK    3  A    between atoms: C_11  and  C_12 
REMARK       I    between atoms: C_12  and  N_14 
REMARK       I    between atoms: N_14  and  C_15 
REMARK       I    between atoms: C_15  and  N_17 
REMARK    4  A    between atoms: N_17  and  C_18 
ROOT
HETATM    1  C   UNL     1     -40.887 -52.110  12.382  1.00  0.00     0.243 C 
HETATM    2  O   UNL     1     -40.106 -53.035  12.138  1.00  0.00    -0.271 OA
HETATM    3  N   UNL     1     -41.011 -51.095  11.463  1.00  0.00    -0.278 N 
HETATM    4  C   UNL     1     -41.519 -49.844  11.704  1.00  0.00     0.323 C 
HETATM    5  O   UNL     1     -41.895 -49.447  12.793  1.00  0.00    -0.247 OA
HETATM    6  N   UNL     1     -41.650 -49.084  10.564  1.00  0.00    -0.338 N 
HETATM    7  H   UNL     1     -40.513 -51.248  10.602  1.00  0.00     0.173 HD
HETATM    8  H   UNL     1     -40.922 -49.156   9.862  1.00  0.00     0.164 HD
ENDROOT
BRANCH   1   9
HETATM    9  C   UNL     1     -41.634 -52.012  13.719  1.00  0.00     0.234 C 
BRANCH   9  10
HETATM   10  N   UNL     1     -42.833 -52.832  13.908  1.00  0.00    -0.315 N 
HETATM   11  C   UNL     1     -42.632 -54.117  14.419  1.00  0.00     0.247 A 
HETATM   12  C   UNL     1     -43.862 -54.895  14.724  1.00  0.00     0.075 A 
HETATM   13  O   UNL     1     -41.535 -54.612  14.666  1.00  0.00    -0.268 OA
HETATM   14  C   UNL     1     -45.074 -54.357  14.530  1.00  0.00     0.023 A 
HETATM   15  C   UNL     1     -45.214 -53.015  13.999  1.00  0.00     0.063 A 
HETATM   16  C   UNL     1     -44.103 -52.315  13.709  1.00  0.00     0.110 A 
BRANCH  15  17
HETATM   17  C   UNL     1     -46.579 -52.409  13.836  1.00  0.00     0.418 C 
HETATM   18  F   UNL     1     -46.667 -51.152  14.343  1.00  0.00    -0.166 F 
HETATM   19  F   UNL     1     -47.535 -53.150  14.454  1.00  0.00    -0.166 F 
HETATM   20  F   UNL     1     -46.936 -52.326  12.529  1.00  0.00    -0.166 F 
ENDBRANCH  15  17
ENDBRANCH   9  10
ENDBRANCH   1   9
BRANCH   6  21
HETATM   21  C   UNL     1     -42.351 -47.827  10.683  1.00  0.00     0.086 C 
HETATM   22  C   UNL     1     -43.346 -47.565   9.557  1.00  0.00     0.025 C 
HETATM   23  C   UNL     1     -43.362 -46.045   9.376  1.00  0.00     0.002 C 
HETATM   24  C   UNL     1     -42.397 -45.477  10.411  1.00  0.00     0.002 C 
HETATM   25  C   UNL     1     -41.428 -46.614  10.681  1.00  0.00     0.025 C 
ENDBRANCH   6  21
TORSDOF 4
ENDMDL
MODEL 2
REMARK VINA RESULT:      -6.9      1.507      2.289
REMARK  4 active torsions:
REMARK  status: ('A' for Active; 'I' for Inactive)
REMARK    1  A    between atoms: C_2  and  C_5 
REMARK    2  A    between atoms: N_10  and  C_11 
REMARK    3  A    between atoms: C_11  and  C_12 
REMARK       I    between atoms: C_12  and  N_14 
REMARK       I    between atoms: N_14  and  C_15 
REMARK       I    between atoms: C_15  and  N_17 
REMARK    4  A    between atoms: N_17  and  C_18 
ROOT
HETATM    1  C   UNL     1     -40.234 -50.030  11.505  1.00  0.00     0.243 C 
HETATM    2  O   UNL     1     -39.085 -50.416  11.269  1.00  0.00    -0.271 OA
HETATM    3  N   UNL     1     -40.839 -49.181  10.609  1.00  0.00    -0.278 N 
HETATM    4  C   UNL     1     -41.920 -48.376  10.860  1.00  0.00     0.323 C 
HETATM    5  O   UNL     1     -42.470 -48.273  11.944  1.00  0.00    -0.247 OA
HETATM    6  N   UNL     1     -42.396 -47.741   9.736  1.00  0.00    -0.338 N 
HETATM    7  H   UNL     1     -40.315 -49.023   9.765  1.00  0.00     0.173 HD
HETATM    8  H   UNL     1     -41.719 -47.402   9.063  1.00  0.00     0.164 HD
ENDROOT
BRANCH   1   9
HETATM    9  C   UNL     1     -40.955 -50.384  12.813  1.00  0.00     0.234 C 
BRANCH   9  10
HETATM   10  N   UNL     1     -41.780 -51.594  12.847  1.00  0.00    -0.315 N 
HETATM   11  C   UNL     1     -41.102 -52.804  13.013  1.00  0.00     0.247 A 
HETATM   12  C   UNL     1     -41.956 -54.011  13.172  1.00  0.00     0.075 A 
HETATM   13  O   UNL     1     -39.881 -52.922  13.078  1.00  0.00    -0.268 OA
HETATM   14  C   UNL     1     -43.292 -53.905  13.173  1.00  0.00     0.023 A 
HETATM   15  C   UNL     1     -43.935 -52.618  12.999  1.00  0.00     0.063 A 
HETATM   16  C   UNL     1     -43.165 -51.527  12.841  1.00  0.00     0.110 A 
BRANCH  15  17
HETATM   17  C   UNL     1     -45.431 -52.511  13.055  1.00  0.00     0.418 C 
HETATM   18  F   UNL     1     -46.010 -52.484  11.827  1.00  0.00    -0.166 F 
HETATM   19  F   UNL     1     -45.832 -51.387  13.703  1.00  0.00    -0.166 F 
HETATM   20  F   UNL     1     -45.982 -53.560  13.720  1.00  0.00    -0.166 F 
ENDBRANCH  15  17
ENDBRANCH   9  10
ENDBRANCH   1   9
BRANCH   6  21
HETATM   21  C   UNL     1     -43.644 -47.023   9.859  1.00  0.00     0.086 C 
HETATM   22  C   UNL     1     -44.881 -47.903   9.709  1.00  0.00     0.025 C 
HETATM   23  C   UNL     1     -45.947 -47.001   9.083  1.00  0.00     0.002 C 
HETATM   24  C   UNL     1     -45.303 -45.628   8.911  1.00  0.00     0.002 C 
HETATM   25  C   UNL     1     -43.817 -45.923   8.819  1.00  0.00     0.025 C 
ENDBRANCH   6  21
TORSDOF 4
ENDMDL
MODEL 3
REMARK VINA RESULT:      -6.6      1.124      1.393
REMARK  4 active torsions:
REMARK  status: ('A' for Active; 'I' for Inactive)
REMARK    1  A    between atoms: C_2  and  C_5 
REMARK    2  A    between atoms: N_10  and  C_11 
REMARK    3  A    between atoms: C_11  and  C_12 
REMARK       I    between atoms: C_12  and  N_14 
REMARK       I    between atoms: N_14  and  C_15 
REMARK       I    between atoms: C_15  and  N_17 
REMARK    4  A    between atoms: N_17  and  C_18 
ROOT
HETATM    1  C   UNL     1     -40.607 -52.890  13.038  1.00  0.00     0.243 C 
HETATM    2  O   UNL     1     -39.939 -53.918  12.881  1.00  0.00    -0.271 OA
HETATM    3  N   UNL     1     -40.354 -51.812  12.223  1.00  0.00    -0.278 N 
HETATM    4  C   UNL     1     -40.709 -50.511  12.471  1.00  0.00     0.323 C 
HETATM    5  O   UNL     1     -41.268 -50.126  13.484  1.00  0.00    -0.247 OA
HETATM    6  N   UNL     1     -40.450 -49.668  11.414  1.00  0.00    -0.338 N 
HETATM    7  H   UNL     1     -39.696 -51.992  11.484  1.00  0.00     0.173 HD
HETATM    8  H   UNL     1     -39.596 -49.818  10.889  1.00  0.00     0.164 HD
ENDROOT
BRANCH   1   9
HETATM    9  C   UNL     1     -41.626 -52.752  14.177  1.00  0.00     0.234 C 
BRANCH   9  10
HETATM   10  N   UNL     1     -43.003 -53.188  13.936  1.00  0.00    -0.315 N 
HETATM   11  C   UNL     1     -43.331 -54.476  14.365  1.00  0.00     0.247 A 
HETATM   12  C   UNL     1     -44.760 -54.863  14.228  1.00  0.00     0.075 A 
HETATM   13  O   UNL     1     -42.543 -55.271  14.873  1.00  0.00    -0.268 OA
HETATM   14  C   UNL     1     -45.657 -53.995  13.741  1.00  0.00     0.023 A 
HETATM   15  C   UNL     1     -45.252 -52.669  13.316  1.00  0.00     0.063 A 
HETATM   16  C   UNL     1     -43.957 -52.323  13.425  1.00  0.00     0.110 A 
BRANCH  15  17
HETATM   17  C   UNL     1     -46.279 -51.692  12.821  1.00  0.00     0.418 C 
HETATM   18  F   UNL     1     -47.086 -51.222  13.806  1.00  0.00    -0.166 F 
HETATM   19  F   UNL     1     -47.088 -52.245  11.881  1.00  0.00    -0.166 F 
HETATM   20  F   UNL     1     -45.699 -50.607  12.245  1.00  0.00    -0.166 F 
ENDBRANCH  15  17
ENDBRANCH   9  10
ENDBRANCH   1   9
BRANCH   6  21
HETATM   21  C   UNL     1     -40.961 -48.320  11.502  1.00  0.00     0.086 C 
HETATM   22  C   UNL     1     -42.069 -48.012  10.500  1.00  0.00     0.025 C 
HETATM   23  C   UNL     1     -41.918 -46.524  10.173  1.00  0.00     0.002 C 
HETATM   24  C   UNL     1     -40.747 -46.015  11.008  1.00  0.00     0.002 C 
HETATM   25  C   UNL     1     -39.902 -47.252  11.256  1.00  0.00     0.025 C 
ENDBRANCH   6  21
TORSDOF 4
ENDMDL
MODEL 4
REMARK VINA RESULT:      -6.5      2.771      7.030
REMARK  4 active torsions:
REMARK  status: ('A' for Active; 'I' for Inactive)
REMARK    1  A    between atoms: C_2  and  C_5 
REMARK    2  A    between atoms: N_10  and  C_11 
REMARK    3  A    between atoms: C_11  and  C_12 
REMARK       I    between atoms: C_12  and  N_14 
REMARK       I    between atoms: N_14  and  C_15 
REMARK       I    between atoms: C_15  and  N_17 
REMARK    4  A    between atoms: N_17  and  C_18 
ROOT
HETATM    1  C   UNL     1     -40.278 -49.955  11.701  1.00  0.00     0.243 C 
HETATM    2  O   UNL     1     -39.366 -49.774  10.887  1.00  0.00    -0.271 OA
HETATM    3  N   UNL     1     -40.726 -51.237  11.911  1.00  0.00    -0.278 N 
HETATM    4  C   UNL     1     -41.927 -51.593  12.468  1.00  0.00     0.323 C 
HETATM    5  O   UNL     1     -42.789 -50.804  12.817  1.00  0.00    -0.247 OA
HETATM    6  N   UNL     1     -42.045 -52.947  12.684  1.00  0.00    -0.338 N 
HETATM    7  H   UNL     1     -40.190 -51.948  11.443  1.00  0.00     0.173 HD
HETATM    8  H   UNL     1     -41.662 -53.571  11.983  1.00  0.00     0.164 HD
ENDROOT
BRANCH   1   9
HETATM    9  C   UNL     1     -40.987 -48.784  12.395  1.00  0.00     0.234 C 
BRANCH   9  10
HETATM   10  N   UNL     1     -41.580 -47.736  11.562  1.00  0.00    -0.315 N 
HETATM   11  C   UNL     1     -40.821 -46.577  11.387  1.00  0.00     0.247 A 
HETATM   12  C   UNL     1     -41.375 -45.573  10.440  1.00  0.00     0.075 A 
HETATM   13  O   UNL     1     -39.734 -46.361  11.918  1.00  0.00    -0.268 OA
HETATM   14  C   UNL     1     -42.525 -45.809   9.793  1.00  0.00     0.023 A 
HETATM   15  C   UNL     1     -43.264 -47.036  10.017  1.00  0.00     0.063 A 
HETATM   16  C   UNL     1     -42.772 -47.938  10.883  1.00  0.00     0.110 A 
BRANCH  15  17
HETATM   17  C   UNL     1     -44.523 -47.306   9.244  1.00  0.00     0.418 C 
HETATM   18  F   UNL     1     -45.134 -46.174   8.808  1.00  0.00    -0.166 F 
HETATM   19  F   UNL     1     -45.435 -47.982   9.989  1.00  0.00    -0.166 F 
HETATM   20  F   UNL     1     -44.281 -48.065   8.144  1.00  0.00    -0.166 F 
ENDBRANCH  15  17
ENDBRANCH   9  10
ENDBRANCH   1   9
BRANCH   6  21
HETATM   21  C   UNL     1     -43.190 -53.400  13.439  1.00  0.00     0.086 C 
HETATM   22  C   UNL     1     -42.859 -54.458  14.486  1.00  0.00     0.025 C 
HETATM   23  C   UNL     1     -44.108 -55.338  14.582  1.00  0.00     0.002 C 
HETATM   24  C   UNL     1     -45.124 -54.753  13.607  1.00  0.00     0.002 C 
HETATM   25  C   UNL     1     -44.277 -54.029  12.575  1.00  0.00     0.025 C 
ENDBRANCH   6  21
TORSDOF 4
ENDMDL
MODEL 5
REMARK VINA RESULT:      -6.2      2.134      2.728
REMARK  4 active torsions:
REMARK  status: ('A' for Active; 'I' for Inactive)
REMARK    1  A    between atoms: C_2  and  C_5 
REMARK    2  A    between atoms: N_10  and  C_11 
REMARK    3  A    between atoms: C_11  and  C_12 
REMARK       I    between atoms: C_12  and  N_14 
REMARK       I    between atoms: N_14  and  C_15 
REMARK       I    between atoms: C_15  and  N_17 
REMARK    4  A    between atoms: N_17  and  C_18 
ROOT
HETATM    1  C   UNL     1     -38.315 -50.602  12.155  1.00  0.00     0.243 C 
HETATM    2  O   UNL     1     -37.378 -51.290  11.738  1.00  0.00    -0.271 OA
HETATM    3  N   UNL     1     -38.626 -49.441  11.487  1.00  0.00    -0.278 N 
HETATM    4  C   UNL     1     -39.355 -48.392  11.984  1.00  0.00     0.323 C 
HETATM    5  O   UNL     1     -39.795 -48.331  13.120  1.00  0.00    -0.247 OA
HETATM    6  N   UNL     1     -39.627 -47.426  11.043  1.00  0.00    -0.338 N 
HETATM    7  H   UNL     1     -38.111 -49.300  10.634  1.00  0.00     0.173 HD
HETATM    8  H   UNL     1     -38.899 -47.202  10.373  1.00  0.00     0.164 HD
ENDROOT
BRANCH   1   9
HETATM    9  C   UNL     1     -39.064 -50.951  13.448  1.00  0.00     0.234 C 
BRANCH   9  10
HETATM   10  N   UNL     1     -40.267 -51.782  13.353  1.00  0.00    -0.315 N 
HETATM   11  C   UNL     1     -40.076 -53.163  13.439  1.00  0.00     0.247 A 
HETATM   12  C   UNL     1     -41.312 -53.990  13.467  1.00  0.00     0.075 A 
HETATM   13  O   UNL     1     -38.984 -53.718  13.535  1.00  0.00    -0.268 OA
HETATM   14  C   UNL     1     -42.520 -53.410  13.433  1.00  0.00     0.023 A 
HETATM   15  C   UNL     1     -42.649 -51.969  13.347  1.00  0.00     0.063 A 
HETATM   16  C   UNL     1     -41.533 -51.220  13.307  1.00  0.00     0.110 A 
BRANCH  15  17
HETATM   17  C   UNL     1     -44.010 -51.334  13.362  1.00  0.00     0.418 C 
HETATM   18  F   UNL     1     -44.028 -50.098  12.799  1.00  0.00    -0.166 F 
HETATM   19  F   UNL     1     -44.488 -51.197  14.625  1.00  0.00    -0.166 F 
HETATM   20  F   UNL     1     -44.918 -52.082  12.682  1.00  0.00    -0.166 F 
ENDBRANCH  15  17
ENDBRANCH   9  10
ENDBRANCH   1   9
BRANCH   6  21
HETATM   21  C   UNL     1     -40.547 -46.377  11.417  1.00  0.00     0.086 C 
HETATM   22  C   UNL     1     -41.951 -46.556  10.850  1.00  0.00     0.025 C 
HETATM   23  C   UNL     1     -42.487 -45.138  10.637  1.00  0.00     0.002 C 
HETATM   24  C   UNL     1     -41.389 -44.188  11.105  1.00  0.00     0.002 C 
HETATM   25  C   UNL     1     -40.110 -44.992  10.953  1.00  0.00     0.025 C 
ENDBRANCH   6  21
TORSDOF 4
ENDMDL
MODEL 6
REMARK VINA RESULT:      -6.1      2.833      3.342
REMARK  4 active torsions:
REMARK  status: ('A' for Active; 'I' for Inactive)
REMARK    1  A    between atoms: C_2  and  C_5 
REMARK    2  A    between atoms: N_10  and  C_11 
REMARK    3  A    between atoms: C_11  and  C_12 
REMARK       I    between atoms: C_12  and  N_14 
REMARK       I    between atoms: N_14  and  C_15 
REMARK       I    between atoms: C_15  and  N_17 
REMARK    4  A    between atoms: N_17  and  C_18 
ROOT
HETATM    1  C   UNL     1     -41.445 -52.055  11.978  1.00  0.00     0.243 C 
HETATM    2  O   UNL     1     -40.858 -53.134  11.844  1.00  0.00    -0.271 OA
HETATM    3  N   UNL     1     -40.862 -50.921  11.463  1.00  0.00    -0.278 N 
HETATM    4  C   UNL     1     -41.155 -49.629  11.816  1.00  0.00     0.323 C 
HETATM    5  O   UNL     1     -41.954 -49.312  12.680  1.00  0.00    -0.247 OA
HETATM    6  N   UNL     1     -40.515 -48.695  11.034  1.00  0.00    -0.338 N 
HETATM    7  H   UNL     1     -40.032 -51.089  10.920  1.00  0.00     0.173 HD
HETATM    8  H   UNL     1     -39.560 -48.889  10.754  1.00  0.00     0.164 HD
ENDROOT
BRANCH   1   9
HETATM    9  C   UNL     1     -42.742 -51.934  12.789  1.00  0.00     0.234 C 
BRANCH   9  10
HETATM   10  N   UNL     1     -43.226 -53.114  13.508  1.00  0.00    -0.315 N 
HETATM   11  C   UNL     1     -44.418 -53.677  13.047  1.00  0.00     0.247 A 
HETATM   12  C   UNL     1     -44.835 -54.946  13.702  1.00  0.00     0.075 A 
HETATM   13  O   UNL     1     -45.101 -53.226  12.131  1.00  0.00    -0.268 OA
HETATM   14  C   UNL     1     -44.076 -55.499  14.658  1.00  0.00     0.023 A 
HETATM   15  C   UNL     1     -42.846 -54.865  15.090  1.00  0.00     0.063 A 
HETATM   16  C   UNL     1     -42.475 -53.711  14.509  1.00  0.00     0.110 A 
BRANCH  15  17
HETATM   17  C   UNL     1     -41.983 -55.526  16.126  1.00  0.00     0.418 C 
HETATM   18  F   UNL     1     -40.659 -55.473  15.829  1.00  0.00    -0.166 F 
HETATM   19  F   UNL     1     -42.298 -56.838  16.280  1.00  0.00    -0.166 F 
HETATM   20  F   UNL     1     -42.130 -54.945  17.344  1.00  0.00    -0.166 F 
ENDBRANCH  15  17
ENDBRANCH   9  10
ENDBRANCH   1   9
BRANCH   6  21
HETATM   21  C   UNL     1     -40.903 -47.314  11.201  1.00  0.00     0.086 C 
HETATM   22  C   UNL     1     -42.094 -46.899  10.343  1.00  0.00     0.025 C 
HETATM   23  C   UNL     1     -41.866 -45.420  10.021  1.00  0.00     0.002 C 
HETATM   24  C   UNL     1     -40.568 -45.022  10.717  1.00  0.00     0.002 C 
HETATM   25  C   UNL     1     -39.799 -46.325  10.844  1.00  0.00     0.025 C 
ENDBRANCH   6  21
TORSDOF 4
ENDMDL
MODEL 7
REMARK VINA RESULT:      -5.9      3.267      4.434
REMARK  4 active torsions:
REMARK  status: ('A' for Active; 'I' for Inactive)
REMARK    1  A    between atoms: C_2  and  C_5 
REMARK    2  A    between atoms: N_10  and  C_11 
REMARK    3  A    between atoms: C_11  and  C_12 
REMARK       I    between atoms: C_12  and  N_14 
REMARK       I    between atoms: N_14  and  C_15 
REMARK       I    between atoms: C_15  and  N_17 
REMARK    4  A    between atoms: N_17  and  C_18 
ROOT
HETATM    1  C   UNL     1     -42.937 -54.759  15.400  1.00  0.00     0.243 C 
HETATM    2  O   UNL     1     -43.215 -55.963  15.405  1.00  0.00    -0.271 OA
HETATM    3  N   UNL     1     -41.941 -54.318  14.562  1.00  0.00    -0.278 N 
HETATM    4  C   UNL     1     -41.255 -53.136  14.672  1.00  0.00     0.323 C 
HETATM    5  O   UNL     1     -41.412 -52.325  15.569  1.00  0.00    -0.247 OA
HETATM    6  N   UNL     1     -40.413 -52.897  13.610  1.00  0.00    -0.338 N 
HETATM    7  H   UNL     1     -41.581 -55.019  13.936  1.00  0.00     0.173 HD
HETATM    8  H   UNL     1     -39.907 -53.685  13.222  1.00  0.00     0.164 HD
ENDROOT
BRANCH   1   9
HETATM    9  C   UNL     1     -43.596 -53.772  16.372  1.00  0.00     0.234 C 
BRANCH   9  10
HETATM   10  N   UNL     1     -44.793 -53.053  15.930  1.00  0.00    -0.315 N 
HETATM   11  C   UNL     1     -45.644 -52.586  16.935  1.00  0.00     0.247 A 
HETATM   12  C   UNL     1     -46.789 -51.752  16.482  1.00  0.00     0.075 A 
HETATM   13  O   UNL     1     -45.484 -52.779  18.138  1.00  0.00    -0.268 OA
HETATM   14  C   UNL     1     -46.952 -51.467  15.182  1.00  0.00     0.023 A 
HETATM   15  C   UNL     1     -46.030 -51.982  14.188  1.00  0.00     0.063 A 
HETATM   16  C   UNL     1     -45.003 -52.748  14.594  1.00  0.00     0.110 A 
BRANCH  15  17
HETATM   17  C   UNL     1     -46.199 -51.609  12.743  1.00  0.00     0.418 C 
HETATM   18  F   UNL     1     -45.399 -50.580  12.361  1.00  0.00    -0.166 F 
HETATM   19  F   UNL     1     -47.475 -51.240  12.464  1.00  0.00    -0.166 F 
HETATM   20  F   UNL     1     -45.907 -52.651  11.922  1.00  0.00    -0.166 F 
ENDBRANCH  15  17
ENDBRANCH   9  10
ENDBRANCH   1   9
BRANCH   6  21
HETATM   21  C   UNL     1     -39.792 -51.595  13.538  1.00  0.00     0.086 C 
HETATM   22  C   UNL     1     -40.063 -50.853  12.233  1.00  0.00     0.025 C 
HETATM   23  C   UNL     1     -38.815 -50.002  11.984  1.00  0.00     0.002 C 
HETATM   24  C   UNL     1     -37.875 -50.261  13.156  1.00  0.00     0.002 C 
HETATM   25  C   UNL     1     -38.273 -51.639  13.655  1.00  0.00     0.025 C 
ENDBRANCH   6  21
TORSDOF 4
ENDMDL
MODEL 8
REMARK VINA RESULT:      -5.9      4.909      7.429
REMARK  4 active torsions:
REMARK  status: ('A' for Active; 'I' for Inactive)
REMARK    1  A    between atoms: C_2  and  C_5 
REMARK    2  A    between atoms: N_10  and  C_11 
REMARK    3  A    between atoms: C_11  and  C_12 
REMARK       I    between atoms: C_12  and  N_14 
REMARK       I    between atoms: N_14  and  C_15 
REMARK       I    between atoms: C_15  and  N_17 
REMARK    4  A    between atoms: N_17  and  C_18 
ROOT
HETATM    1  C   UNL     1     -39.612 -52.169  13.347  1.00  0.00     0.243 C 
HETATM    2  O   UNL     1     -38.709 -52.966  13.625  1.00  0.00    -0.271 OA
HETATM    3  N   UNL     1     -40.890 -52.453  13.766  1.00  0.00    -0.278 N 
HETATM    4  C   UNL     1     -42.044 -51.912  13.262  1.00  0.00     0.323 C 
HETATM    5  O   UNL     1     -42.093 -51.127  12.330  1.00  0.00    -0.247 OA
HETATM    6  N   UNL     1     -43.167 -52.275  13.970  1.00  0.00    -0.338 N 
HETATM    7  H   UNL     1     -40.964 -53.258  14.364  1.00  0.00     0.173 HD
HETATM    8  H   UNL     1     -43.220 -53.226  14.317  1.00  0.00     0.164 HD
ENDROOT
BRANCH   1   9
HETATM    9  C   UNL     1     -39.363 -50.939  12.464  1.00  0.00     0.234 C 
BRANCH   9  10
HETATM   10  N   UNL     1     -38.836 -49.726  13.093  1.00  0.00    -0.315 N 
HETATM   11  C   UNL     1     -39.442 -48.522  12.723  1.00  0.00     0.247 A 
HETATM   12  C   UNL     1     -38.986 -47.312  13.459  1.00  0.00     0.075 A 
HETATM   13  O   UNL     1     -40.332 -48.411  11.885  1.00  0.00    -0.268 OA
HETATM   14  C   UNL     1     -38.064 -47.411  14.427  1.00  0.00     0.023 A 
HETATM   15  C   UNL     1     -37.476 -48.692  14.764  1.00  0.00     0.063 A 
HETATM   16  C   UNL     1     -37.877 -49.785  14.091  1.00  0.00     0.110 A 
BRANCH  15  17
HETATM   17  C   UNL     1     -36.484 -48.792  15.887  1.00  0.00     0.418 C 
HETATM   18  F   UNL     1     -35.638 -49.847  15.759  1.00  0.00    -0.166 F 
HETATM   19  F   UNL     1     -37.097 -48.924  17.091  1.00  0.00    -0.166 F 
HETATM   20  F   UNL     1     -35.707 -47.680  15.966  1.00  0.00    -0.166 F 
ENDBRANCH  15  17
ENDBRANCH   9  10
ENDBRANCH   1   9
BRANCH   6  21
HETATM   21  C   UNL     1     -44.405 -51.608  13.637  1.00  0.00     0.086 C 
HETATM   22  C   UNL     1     -45.269 -51.269  14.847  1.00  0.00     0.025 C 
HETATM   23  C   UNL     1     -46.714 -51.349  14.349  1.00  0.00     0.002 C 
HETATM   24  C   UNL     1     -46.640 -51.710  12.869  1.00  0.00     0.002 C 
HETATM   25  C   UNL     1     -45.310 -52.428  12.726  1.00  0.00     0.025 C 
ENDBRANCH   6  21
TORSDOF 4
ENDMDL
MODEL 9
REMARK VINA RESULT:      -5.8      2.947      4.063
REMARK  4 active torsions:
REMARK  status: ('A' for Active; 'I' for Inactive)
REMARK    1  A    between atoms: C_2  and  C_5 
REMARK    2  A    between atoms: N_10  and  C_11 
REMARK    3  A    between atoms: C_11  and  C_12 
REMARK       I    between atoms: C_12  and  N_14 
REMARK       I    between atoms: N_14  and  C_15 
REMARK       I    between atoms: C_15  and  N_17 
REMARK    4  A    between atoms: N_17  and  C_18 
ROOT
HETATM    1  C   UNL     1     -44.063 -53.561  12.872  1.00  0.00     0.243 C 
HETATM    2  O   UNL     1     -44.693 -54.429  12.259  1.00  0.00    -0.271 OA
HETATM    3  N   UNL     1     -43.278 -52.690  12.155  1.00  0.00    -0.278 N 
HETATM    4  C   UNL     1     -42.253 -51.927  12.653  1.00  0.00     0.323 C 
HETATM    5  O   UNL     1     -41.868 -51.954  13.810  1.00  0.00    -0.247 OA
HETATM    6  N   UNL     1     -41.737 -51.044  11.732  1.00  0.00    -0.338 N 
HETATM    7  H   UNL     1     -43.364 -52.776  11.156  1.00  0.00     0.173 HD
HETATM    8  H   UNL     1     -41.649 -51.361  10.773  1.00  0.00     0.164 HD
ENDROOT
BRANCH   1   9
HETATM    9  C   UNL     1     -44.051 -53.499  14.406  1.00  0.00     0.234 C 
BRANCH   9  10
HETATM   10  N   UNL     1     -44.967 -52.571  15.072  1.00  0.00    -0.315 N 
HETATM   11  C   UNL     1     -46.311 -52.949  15.116  1.00  0.00     0.247 A 
HETATM   12  C   UNL     1     -47.211 -52.062  15.902  1.00  0.00     0.075 A 
HETATM   13  O   UNL     1     -46.774 -53.962  14.598  1.00  0.00    -0.268 OA
HETATM   14  C   UNL     1     -46.723 -50.987  16.535  1.00  0.00     0.023 A 
HETATM   15  C   UNL     1     -45.315 -50.651  16.452  1.00  0.00     0.063 A 
HETATM   16  C   UNL     1     -44.503 -51.443  15.730  1.00  0.00     0.110 A 
BRANCH  15  17
HETATM   17  C   UNL     1     -44.778 -49.471  17.210  1.00  0.00     0.418 C 
HETATM   18  F   UNL     1     -44.011 -48.651  16.447  1.00  0.00    -0.166 F 
HETATM   19  F   UNL     1     -44.012 -49.857  18.263  1.00  0.00    -0.166 F 
HETATM   20  F   UNL     1     -45.779 -48.705  17.717  1.00  0.00    -0.166 F 
ENDBRANCH  15  17
ENDBRANCH   9  10
ENDBRANCH   1   9
BRANCH   6  21
HETATM   21  C   UNL     1     -40.787 -50.068  12.211  1.00  0.00     0.086 C 
HETATM   22  C   UNL     1     -41.267 -48.625  12.085  1.00  0.00     0.025 C 
HETATM   23  C   UNL     1     -40.002 -47.796  11.852  1.00  0.00     0.002 C 
HETATM   24  C   UNL     1     -38.833 -48.777  11.871  1.00  0.00     0.002 C 
HETATM   25  C   UNL     1     -39.454 -50.104  11.472  1.00  0.00     0.025 C 
ENDBRANCH   6  21
TORSDOF 4
ENDMDL
