MODEL 1
REMARK VINA RESULT:      -5.7      0.000      0.000
REMARK  3 active torsions:
REMARK  status: ('A' for Active; 'I' for Inactive)
REMARK       I    between atoms: C_2  and  N_3 
REMARK       I    between atoms: C_2  and  N_13 
REMARK    1  A    between atoms: N_3  and  C_4 
REMARK    2  A    between atoms: N_7  and  C_10 
REMARK    3  A    between atoms: N_13  and  C_14 
ROOT
HETATM    1  O   UNL     1     -40.094 -49.911  12.134  1.00  0.00    -0.247 OA
HETATM    2  C   UNL     1     -41.090 -49.483  11.555  1.00  0.00     0.322 C 
HETATM    3  N   UNL     1     -42.342 -50.002  11.739  1.00  0.00    -0.338 N 
HETATM    4  N   UNL     1     -40.952 -48.452  10.683  1.00  0.00    -0.289 N 
HETATM    5  H   UNL     1     -43.093 -49.409  11.389  1.00  0.00     0.164 HD
HETATM    6  H   UNL     1     -40.008 -48.122  10.554  1.00  0.00     0.172 HD
ENDROOT
BRANCH   3   7
HETATM    7  C   UNL     1     -42.633 -50.921  12.841  1.00  0.00     0.089 C 
HETATM    8  C   UNL     1     -42.624 -52.400  12.404  1.00  0.00     0.055 C 
HETATM    9  C   UNL     1     -43.941 -53.163  12.512  1.00  0.00     0.275 C 
HETATM   10  N   UNL     1     -44.798 -52.761  13.625  1.00  0.00     0.093 N 
HETATM   11  C   UNL     1     -45.095 -51.333  13.500  1.00  0.00     0.275 C 
HETATM   12  C   UNL     1     -43.858 -50.456  13.646  1.00  0.00     0.055 C 
BRANCH  10  13
HETATM   13  C   UNL     1     -44.299 -53.147  14.958  1.00  0.00     0.223 A 
HETATM   14  C   UNL     1     -43.831 -54.546  15.243  1.00  0.00     0.038 A 
HETATM   15  C   UNL     1     -45.150 -54.079  15.781  1.00  0.00     0.038 A 
ENDBRANCH  10  13
ENDBRANCH   3   7
BRANCH   4  16
HETATM   16  C   UNL     1     -41.950 -47.796  10.032  1.00  0.00     0.152 A 
HETATM   17  N   UNL     1     -42.632 -48.181   8.978  1.00  0.00    -0.346 N 
HETATM   18  C   UNL     1     -43.547 -47.195   8.658  1.00  0.00     0.097 A 
ATOM     19  HN  UNL     1     -42.507 -49.062   8.479  1.00  0.00     0.167 HD
HETATM   20  C   UNL     1     -43.553 -46.091   9.482  1.00  0.00     0.070 A 
HETATM   21  S   UNL     1     -42.365 -46.286  10.708  1.00  0.00    -0.064 SA
ENDBRANCH   4  16
TORSDOF 3
ENDMDL
MODEL 2
REMARK VINA RESULT:      -5.6      1.906      2.288
REMARK  3 active torsions:
REMARK  status: ('A' for Active; 'I' for Inactive)
REMARK       I    between atoms: C_2  and  N_3 
REMARK       I    between atoms: C_2  and  N_13 
REMARK    1  A    between atoms: N_3  and  C_4 
REMARK    2  A    between atoms: N_7  and  C_10 
REMARK    3  A    between atoms: N_13  and  C_14 
ROOT
HETATM    1  O   UNL     1     -40.410 -47.737  11.736  1.00  0.00    -0.247 OA
HETATM    2  C   UNL     1     -41.312 -48.160  11.016  1.00  0.00     0.322 C 
HETATM    3  N   UNL     1     -41.832 -49.420  11.131  1.00  0.00    -0.338 N 
HETATM    4  N   UNL     1     -41.817 -47.351  10.051  1.00  0.00    -0.289 N 
HETATM    5  H   UNL     1     -42.716 -49.550  10.643  1.00  0.00     0.164 HD
HETATM    6  H   UNL     1     -41.383 -46.444   9.979  1.00  0.00     0.172 HD
ENDROOT
BRANCH   3   7
HETATM    7  C   UNL     1     -41.547 -50.260  12.296  1.00  0.00     0.089 C 
HETATM    8  C   UNL     1     -40.503 -51.356  12.001  1.00  0.00     0.055 C 
HETATM    9  C   UNL     1     -40.971 -52.805  12.104  1.00  0.00     0.275 C 
HETATM   10  N   UNL     1     -41.987 -53.054  13.124  1.00  0.00     0.093 N 
HETATM   11  C   UNL     1     -43.149 -52.206  12.849  1.00  0.00     0.275 C 
HETATM   12  C   UNL     1     -42.843 -50.720  12.983  1.00  0.00     0.055 C 
BRANCH  10  13
HETATM   13  C   UNL     1     -41.503 -52.960  14.514  1.00  0.00     0.223 A 
HETATM   14  C   UNL     1     -40.239 -53.648  14.949  1.00  0.00     0.038 A 
HETATM   15  C   UNL     1     -41.569 -54.203  15.364  1.00  0.00     0.038 A 
ENDBRANCH  10  13
ENDBRANCH   3   7
BRANCH   4  16
HETATM   16  C   UNL     1     -42.871 -47.617   9.233  1.00  0.00     0.152 A 
HETATM   17  N   UNL     1     -42.858 -48.093   8.009  1.00  0.00    -0.346 N 
HETATM   18  C   UNL     1     -44.162 -48.201   7.561  1.00  0.00     0.097 A 
ATOM     19  HN  UNL     1     -42.024 -48.342   7.477  1.00  0.00     0.167 HD
HETATM   20  C   UNL     1     -45.138 -47.821   8.458  1.00  0.00     0.070 A 
HETATM   21  S   UNL     1     -44.400 -47.302   9.920  1.00  0.00    -0.064 SA
ENDBRANCH   4  16
TORSDOF 3
ENDMDL
MODEL 3
REMARK VINA RESULT:      -5.4      1.780      2.184
REMARK  3 active torsions:
REMARK  status: ('A' for Active; 'I' for Inactive)
REMARK       I    between atoms: C_2  and  N_3 
REMARK       I    between atoms: C_2  and  N_13 
REMARK    1  A    between atoms: N_3  and  C_4 
REMARK    2  A    between atoms: N_7  and  C_10 
REMARK    3  A    between atoms: N_13  and  C_14 
ROOT
HETATM    1  O   UNL     1     -40.268 -52.699  12.116  1.00  0.00    -0.247 OA
HETATM    2  C   UNL     1     -40.823 -51.622  11.914  1.00  0.00     0.322 C 
HETATM    3  N   UNL     1     -42.153 -51.409  12.152  1.00  0.00    -0.338 N 
HETATM    4  N   UNL     1     -40.094 -50.588  11.422  1.00  0.00    -0.289 N 
HETATM    5  H   UNL     1     -42.421 -50.427  12.169  1.00  0.00     0.164 HD
HETATM    6  H   UNL     1     -39.127 -50.798  11.231  1.00  0.00     0.172 HD
ENDROOT
BRANCH   3   7
HETATM    7  C   UNL     1     -42.952 -52.364  12.923  1.00  0.00     0.089 C 
HETATM    8  C   UNL     1     -44.104 -52.979  12.103  1.00  0.00     0.055 C 
HETATM    9  C   UNL     1     -45.526 -52.675  12.567  1.00  0.00     0.275 C 
HETATM   10  N   UNL     1     -45.686 -52.534  14.012  1.00  0.00     0.093 N 
HETATM   11  C   UNL     1     -44.803 -51.465  14.482  1.00  0.00     0.275 C 
HETATM   12  C   UNL     1     -43.326 -51.794  14.301  1.00  0.00     0.055 C 
BRANCH  10  13
HETATM   13  C   UNL     1     -45.552 -53.789  14.774  1.00  0.00     0.223 A 
HETATM   14  C   UNL     1     -45.743 -55.127  14.116  1.00  0.00     0.038 A 
HETATM   15  C   UNL     1     -46.802 -54.590  15.030  1.00  0.00     0.038 A 
ENDBRANCH  10  13
ENDBRANCH   3   7
BRANCH   4  16
HETATM   16  C   UNL     1     -40.518 -49.310  11.229  1.00  0.00     0.152 A 
HETATM   17  N   UNL     1     -41.307 -48.843  10.289  1.00  0.00    -0.346 N 
HETATM   18  C   UNL     1     -41.467 -47.482  10.480  1.00  0.00     0.097 A 
ATOM     19  HN  UNL     1     -41.732 -49.393   9.542  1.00  0.00     0.167 HD
HETATM   20  C   UNL     1     -40.810 -46.948  11.568  1.00  0.00     0.070 A 
HETATM   21  S   UNL     1     -39.953 -48.192  12.386  1.00  0.00    -0.064 SA
ENDBRANCH   4  16
TORSDOF 3
ENDMDL
MODEL 4
REMARK VINA RESULT:      -5.3      4.605      7.786
REMARK  3 active torsions:
REMARK  status: ('A' for Active; 'I' for Inactive)
REMARK       I    between atoms: C_2  and  N_3 
REMARK       I    between atoms: C_2  and  N_13 
REMARK    1  A    between atoms: N_3  and  C_4 
REMARK    2  A    between atoms: N_7  and  C_10 
REMARK    3  A    between atoms: N_13  and  C_14 
ROOT
HETATM    1  O   UNL     1     -42.567 -48.121   9.764  1.00  0.00    -0.247 OA
HETATM    2  C   UNL     1     -41.476 -48.203  10.323  1.00  0.00     0.322 C 
HETATM    3  N   UNL     1     -40.740 -47.110  10.691  1.00  0.00    -0.338 N 
HETATM    4  N   UNL     1     -40.963 -49.431  10.587  1.00  0.00    -0.289 N 
HETATM    5  H   UNL     1     -39.989 -47.316  11.346  1.00  0.00     0.164 HD
HETATM    6  H   UNL     1     -41.522 -50.208  10.271  1.00  0.00     0.172 HD
ENDROOT
BRANCH   3   7
HETATM    7  C   UNL     1     -41.320 -45.765  10.693  1.00  0.00     0.089 C 
HETATM    8  C   UNL     1     -40.255 -44.655  10.579  1.00  0.00     0.055 C 
HETATM    9  C   UNL     1     -40.116 -43.703  11.764  1.00  0.00     0.275 C 
HETATM   10  N   UNL     1     -41.360 -43.417  12.475  1.00  0.00     0.093 N 
HETATM   11  C   UNL     1     -41.930 -44.679  12.954  1.00  0.00     0.275 C 
HETATM   12  C   UNL     1     -42.353 -45.606  11.821  1.00  0.00     0.055 C 
BRANCH  10  13
HETATM   13  C   UNL     1     -42.320 -42.581  11.730  1.00  0.00     0.223 A 
HETATM   14  C   UNL     1     -41.901 -41.279  11.105  1.00  0.00     0.038 A 
HETATM   15  C   UNL     1     -42.737 -41.273  12.350  1.00  0.00     0.038 A 
ENDBRANCH  10  13
ENDBRANCH   3   7
BRANCH   4  16
HETATM   16  C   UNL     1     -39.824 -49.708  11.279  1.00  0.00     0.152 A 
HETATM   17  N   UNL     1     -38.603 -49.854  10.819  1.00  0.00    -0.346 N 
HETATM   18  C   UNL     1     -37.760 -50.130  11.881  1.00  0.00     0.097 A 
ATOM     19  HN  UNL     1     -38.322 -49.778   9.841  1.00  0.00     0.167 HD
HETATM   20  C   UNL     1     -38.354 -50.171  13.124  1.00  0.00     0.070 A 
HETATM   21  S   UNL     1     -40.036 -49.857  12.964  1.00  0.00    -0.064 SA
ENDBRANCH   4  16
TORSDOF 3
ENDMDL
MODEL 5
REMARK VINA RESULT:      -5.1      2.946      6.763
REMARK  3 active torsions:
REMARK  status: ('A' for Active; 'I' for Inactive)
REMARK       I    between atoms: C_2  and  N_3 
REMARK       I    between atoms: C_2  and  N_13 
REMARK    1  A    between atoms: N_3  and  C_4 
REMARK    2  A    between atoms: N_7  and  C_10 
REMARK    3  A    between atoms: N_13  and  C_14 
ROOT
HETATM    1  O   UNL     1     -39.222 -51.948  12.843  1.00  0.00    -0.247 OA
HETATM    2  C   UNL     1     -40.449 -51.912  12.904  1.00  0.00     0.322 C 
HETATM    3  N   UNL     1     -41.166 -50.748  12.868  1.00  0.00    -0.338 N 
HETATM    4  N   UNL     1     -41.135 -53.077  13.022  1.00  0.00    -0.289 N 
HETATM    5  H   UNL     1     -42.160 -50.878  12.688  1.00  0.00     0.164 HD
HETATM    6  H   UNL     1     -40.566 -53.907  13.078  1.00  0.00     0.172 HD
ENDROOT
BRANCH   3   7
HETATM    7  C   UNL     1     -40.545 -49.481  12.477  1.00  0.00     0.089 C 
HETATM    8  C   UNL     1     -40.980 -48.302  13.372  1.00  0.00     0.055 C 
HETATM    9  C   UNL     1     -41.762 -47.176  12.703  1.00  0.00     0.275 C 
HETATM   10  N   UNL     1     -41.395 -46.910  11.314  1.00  0.00     0.093 N 
HETATM   11  C   UNL     1     -41.582 -48.135  10.534  1.00  0.00     0.275 C 
HETATM   12  C   UNL     1     -40.643 -49.257  10.959  1.00  0.00     0.055 C 
BRANCH  10  13
HETATM   13  C   UNL     1     -40.069 -46.290  11.133  1.00  0.00     0.223 A 
HETATM   14  C   UNL     1     -39.706 -45.006  11.824  1.00  0.00     0.038 A 
HETATM   15  C   UNL     1     -39.998 -45.003  10.353  1.00  0.00     0.038 A 
ENDBRANCH  10  13
ENDBRANCH   3   7
BRANCH   4  16
HETATM   16  C   UNL     1     -42.486 -53.232  13.007  1.00  0.00     0.152 A 
HETATM   17  N   UNL     1     -43.314 -53.107  11.996  1.00  0.00    -0.346 N 
HETATM   18  C   UNL     1     -44.600 -53.354  12.442  1.00  0.00     0.097 A 
ATOM     19  HN  UNL     1     -43.052 -52.866  11.040  1.00  0.00     0.167 HD
HETATM   20  C   UNL     1     -44.720 -53.678  13.777  1.00  0.00     0.070 A 
HETATM   21  S   UNL     1     -43.166 -53.670  14.509  1.00  0.00    -0.064 SA
ENDBRANCH   4  16
TORSDOF 3
ENDMDL
MODEL 6
REMARK VINA RESULT:      -5.0      3.711      5.323
REMARK  3 active torsions:
REMARK  status: ('A' for Active; 'I' for Inactive)
REMARK       I    between atoms: C_2  and  N_3 
REMARK       I    between atoms: C_2  and  N_13 
REMARK    1  A    between atoms: N_3  and  C_4 
REMARK    2  A    between atoms: N_7  and  C_10 
REMARK    3  A    between atoms: N_13  and  C_14 
ROOT
HETATM    1  O   UNL     1     -45.497 -53.773  12.558  1.00  0.00    -0.247 OA
HETATM    2  C   UNL     1     -44.524 -53.078  12.840  1.00  0.00     0.322 C 
HETATM    3  N   UNL     1     -44.454 -52.313  13.972  1.00  0.00    -0.338 N 
HETATM    4  N   UNL     1     -43.465 -53.054  11.992  1.00  0.00    -0.289 N 
HETATM    5  H   UNL     1     -43.516 -51.985  14.194  1.00  0.00     0.164 HD
HETATM    6  H   UNL     1     -43.571 -53.607  11.156  1.00  0.00     0.172 HD
ENDROOT
BRANCH   3   7
HETATM    7  C   UNL     1     -45.415 -52.478  15.065  1.00  0.00     0.089 C 
HETATM    8  C   UNL     1     -46.125 -51.160  15.438  1.00  0.00     0.055 C 
HETATM    9  C   UNL     1     -45.877 -50.612  16.841  1.00  0.00     0.275 C 
HETATM   10  N   UNL     1     -45.681 -51.627  17.874  1.00  0.00     0.093 N 
HETATM   11  C   UNL     1     -44.547 -52.472  17.495  1.00  0.00     0.275 C 
HETATM   12  C   UNL     1     -44.805 -53.277  16.228  1.00  0.00     0.055 C 
BRANCH  10  13
HETATM   13  C   UNL     1     -46.893 -52.387  18.230  1.00  0.00     0.223 A 
HETATM   14  C   UNL     1     -48.177 -51.691  18.583  1.00  0.00     0.038 A 
HETATM   15  C   UNL     1     -47.358 -52.333  19.662  1.00  0.00     0.038 A 
ENDBRANCH  10  13
ENDBRANCH   3   7
BRANCH   4  16
HETATM   16  C   UNL     1     -42.276 -52.422  12.189  1.00  0.00     0.152 A 
HETATM   17  N   UNL     1     -41.925 -51.209  11.831  1.00  0.00    -0.346 N 
HETATM   18  C   UNL     1     -40.621 -50.987  12.236  1.00  0.00     0.097 A 
ATOM     19  HN  UNL     1     -42.516 -50.541  11.335  1.00  0.00     0.167 HD
HETATM   20  C   UNL     1     -40.016 -52.028  12.907  1.00  0.00     0.070 A 
HETATM   21  S   UNL     1     -41.115 -53.342  13.035  1.00  0.00    -0.064 SA
ENDBRANCH   4  16
TORSDOF 3
ENDMDL
MODEL 7
REMARK VINA RESULT:      -4.8      4.134      6.698
REMARK  3 active torsions:
REMARK  status: ('A' for Active; 'I' for Inactive)
REMARK       I    between atoms: C_2  and  N_3 
REMARK       I    between atoms: C_2  and  N_13 
REMARK    1  A    between atoms: N_3  and  C_4 
REMARK    2  A    between atoms: N_7  and  C_10 
REMARK    3  A    between atoms: N_13  and  C_14 
ROOT
HETATM    1  O   UNL     1     -39.727 -54.287  13.171  1.00  0.00    -0.247 OA
HETATM    2  C   UNL     1     -40.807 -53.717  13.310  1.00  0.00     0.322 C 
HETATM    3  N   UNL     1     -40.924 -52.447  13.803  1.00  0.00    -0.338 N 
HETATM    4  N   UNL     1     -41.944 -54.373  12.968  1.00  0.00    -0.289 N 
HETATM    5  H   UNL     1     -41.835 -52.021  13.641  1.00  0.00     0.164 HD
HETATM    6  H   UNL     1     -41.814 -55.317  12.640  1.00  0.00     0.172 HD
ENDROOT
BRANCH   3   7
HETATM    7  C   UNL     1     -39.759 -51.572  13.944  1.00  0.00     0.089 C 
HETATM    8  C   UNL     1     -39.479 -51.182  15.409  1.00  0.00     0.055 C 
HETATM    9  C   UNL     1     -39.599 -49.703  15.768  1.00  0.00     0.275 C 
HETATM   10  N   UNL     1     -39.216 -48.777  14.705  1.00  0.00     0.093 N 
HETATM   11  C   UNL     1     -40.046 -49.041  13.528  1.00  0.00     0.275 C 
HETATM   12  C   UNL     1     -39.801 -50.419  12.928  1.00  0.00     0.055 C 
BRANCH  10  13
HETATM   13  C   UNL     1     -37.771 -48.736  14.413  1.00  0.00     0.223 A 
HETATM   14  C   UNL     1     -36.756 -48.575  15.510  1.00  0.00     0.038 A 
HETATM   15  C   UNL     1     -37.056 -47.423  14.598  1.00  0.00     0.038 A 
ENDBRANCH  10  13
ENDBRANCH   3   7
BRANCH   4  16
HETATM   16  C   UNL     1     -43.208 -53.868  12.966  1.00  0.00     0.152 A 
HETATM   17  N   UNL     1     -43.797 -53.143  12.043  1.00  0.00    -0.346 N 
HETATM   18  C   UNL     1     -45.083 -52.851  12.464  1.00  0.00     0.097 A 
ATOM     19  HN  UNL     1     -43.377 -52.845  11.163  1.00  0.00     0.167 HD
HETATM   20  C   UNL     1     -45.447 -53.373  13.687  1.00  0.00     0.070 A 
HETATM   21  S   UNL     1     -44.132 -54.262  14.344  1.00  0.00    -0.064 SA
ENDBRANCH   4  16
TORSDOF 3
ENDMDL
MODEL 8
REMARK VINA RESULT:      -4.8      3.450      4.442
REMARK  3 active torsions:
REMARK  status: ('A' for Active; 'I' for Inactive)
REMARK       I    between atoms: C_2  and  N_3 
REMARK       I    between atoms: C_2  and  N_13 
REMARK    1  A    between atoms: N_3  and  C_4 
REMARK    2  A    between atoms: N_7  and  C_10 
REMARK    3  A    between atoms: N_13  and  C_14 
ROOT
HETATM    1  O   UNL     1     -42.292 -45.746  11.260  1.00  0.00    -0.247 OA
HETATM    2  C   UNL     1     -42.755 -46.638  10.553  1.00  0.00     0.322 C 
HETATM    3  N   UNL     1     -42.358 -47.944  10.642  1.00  0.00    -0.338 N 
HETATM    4  N   UNL     1     -43.701 -46.324   9.632  1.00  0.00    -0.289 N 
HETATM    5  H   UNL     1     -42.982 -48.600  10.177  1.00  0.00     0.164 HD
HETATM    6  H   UNL     1     -43.941 -45.346   9.578  1.00  0.00     0.172 HD
ENDROOT
BRANCH   3   7
HETATM    7  C   UNL     1     -41.555 -48.423  11.768  1.00  0.00     0.089 C 
HETATM    8  C   UNL     1     -40.040 -48.383  11.481  1.00  0.00     0.055 C 
HETATM    9  C   UNL     1     -39.303 -49.719  11.456  1.00  0.00     0.275 C 
HETATM   10  N   UNL     1     -39.820 -50.725  12.381  1.00  0.00     0.093 N 
HETATM   11  C   UNL     1     -41.232 -50.965  12.075  1.00  0.00     0.275 C 
HETATM   12  C   UNL     1     -42.108 -49.744  12.327  1.00  0.00     0.055 C 
BRANCH  10  13
HETATM   13  C   UNL     1     -39.562 -50.446  13.805  1.00  0.00     0.223 A 
HETATM   14  C   UNL     1     -38.190 -50.074  14.293  1.00  0.00     0.038 A 
HETATM   15  C   UNL     1     -38.735 -51.442  14.575  1.00  0.00     0.038 A 
ENDBRANCH  10  13
ENDBRANCH   3   7
BRANCH   4  16
HETATM   16  C   UNL     1     -44.386 -47.191   8.838  1.00  0.00     0.152 A 
HETATM   17  N   UNL     1     -43.981 -47.793   7.744  1.00  0.00    -0.346 N 
HETATM   18  C   UNL     1     -45.011 -48.583   7.266  1.00  0.00     0.097 A 
ATOM     19  HN  UNL     1     -43.060 -47.695   7.318  1.00  0.00     0.167 HD
HETATM   20  C   UNL     1     -46.169 -48.577   8.014  1.00  0.00     0.070 A 
HETATM   21  S   UNL     1     -45.969 -47.539   9.368  1.00  0.00    -0.064 SA
ENDBRANCH   4  16
TORSDOF 3
ENDMDL
MODEL 9
REMARK VINA RESULT:      -4.7      2.628      3.759
REMARK  3 active torsions:
REMARK  status: ('A' for Active; 'I' for Inactive)
REMARK       I    between atoms: C_2  and  N_3 
REMARK       I    between atoms: C_2  and  N_13 
REMARK    1  A    between atoms: N_3  and  C_4 
REMARK    2  A    between atoms: N_7  and  C_10 
REMARK    3  A    between atoms: N_13  and  C_14 
ROOT
HETATM    1  O   UNL     1     -44.151 -47.944  10.822  1.00  0.00    -0.247 OA
HETATM    2  C   UNL     1     -43.073 -47.401  11.049  1.00  0.00     0.322 C 
HETATM    3  N   UNL     1     -42.014 -48.051  11.621  1.00  0.00    -0.338 N 
HETATM    4  N   UNL     1     -42.915 -46.092  10.728  1.00  0.00    -0.289 N 
HETATM    5  H   UNL     1     -41.127 -47.559  11.531  1.00  0.00     0.164 HD
HETATM    6  H   UNL     1     -43.730 -45.644  10.340  1.00  0.00     0.172 HD
ENDROOT
BRANCH   3   7
HETATM    7  C   UNL     1     -41.994 -49.509  11.753  1.00  0.00     0.089 C 
HETATM    8  C   UNL     1     -42.562 -49.994  13.103  1.00  0.00     0.055 C 
HETATM    9  C   UNL     1     -41.601 -50.722  14.038  1.00  0.00     0.275 C 
HETATM   10  N   UNL     1     -40.582 -51.529  13.370  1.00  0.00     0.093 N 
HETATM   11  C   UNL     1     -39.803 -50.663  12.482  1.00  0.00     0.275 C 
HETATM   12  C   UNL     1     -40.632 -50.088  11.339  1.00  0.00     0.055 C 
BRANCH  10  13
HETATM   13  C   UNL     1     -41.091 -52.746  12.712  1.00  0.00     0.223 A 
HETATM   14  C   UNL     1     -42.033 -53.680  13.418  1.00  0.00     0.038 A 
HETATM   15  C   UNL     1     -40.600 -54.076  13.224  1.00  0.00     0.038 A 
ENDBRANCH  10  13
ENDBRANCH   3   7
BRANCH   4  16
HETATM   16  C   UNL     1     -41.771 -45.362  10.820  1.00  0.00     0.152 A 
HETATM   17  N   UNL     1     -40.681 -45.454  10.095  1.00  0.00    -0.346 N 
HETATM   18  C   UNL     1     -39.770 -44.513  10.541  1.00  0.00     0.097 A 
ATOM     19  HN  UNL     1     -40.530 -46.111   9.329  1.00  0.00     0.167 HD
HETATM   20  C   UNL     1     -40.193 -43.716  11.583  1.00  0.00     0.070 A 
HETATM   21  S   UNL     1     -41.792 -44.160  12.030  1.00  0.00    -0.064 SA
ENDBRANCH   4  16
TORSDOF 3
ENDMDL
