MODEL 1
REMARK VINA RESULT:      -4.8      0.000      0.000
REMARK  2 active torsions:
REMARK  status: ('A' for Active; 'I' for Inactive)
REMARK    1  A    between atoms: C_9  and  C_10 
REMARK    2  A    between atoms: C_10  and  C_11 
ROOT
HETATM    1  C   UNL     2     -42.525 -44.331  11.980  1.00  0.00     0.176 C 
HETATM    2  N   UNL     2     -41.415 -44.639  11.089  1.00  0.00    -0.269 N 
HETATM    3  N   UNL     2     -40.574 -43.723  10.636  1.00  0.00    -0.005 NA
HETATM    4  N   UNL     2     -39.687 -44.307   9.849  1.00  0.00    -0.007 NA
HETATM    5  N   UNL     2     -39.938 -45.604   9.779  1.00  0.00    -0.274 N 
ATOM      6  HN  UNL     2     -39.419 -46.302   9.246  1.00  0.00     0.185 HD
HETATM    7  C   UNL     2     -41.016 -45.817  10.555  1.00  0.00     0.110 A 
ENDROOT
BRANCH   7   8
HETATM    8  C   UNL     2     -41.656 -47.177  10.778  1.00  0.00     0.114 C 
BRANCH   8   9
HETATM    9  C   UNL     2     -42.896 -47.421   9.875  1.00  0.00     0.227 C 
HETATM   10  C   UNL     2     -43.207 -46.270   8.896  1.00  0.00     0.037 C 
HETATM   11  C   UNL     2     -44.738 -46.221   8.863  1.00  0.00     0.032 C 
HETATM   12  C   UNL     2     -45.151 -47.489   9.571  1.00  0.00     0.270 C 
HETATM   13  N   UNL     2     -44.144 -47.633  10.617  1.00  0.00     0.088 N 
HETATM   14  H   UNL     2     -44.206 -48.599  11.008  1.00  0.00     0.316 HD
ENDBRANCH   8   9
ENDBRANCH   7   8
TORSDOF 2
ENDMDL
MODEL 2
REMARK VINA RESULT:      -4.7      7.263      7.934
REMARK  2 active torsions:
REMARK  status: ('A' for Active; 'I' for Inactive)
REMARK    1  A    between atoms: C_9  and  C_10 
REMARK    2  A    between atoms: C_10  and  C_11 
ROOT
HETATM    1  C   UNL     2     -41.134 -54.327  14.867  1.00  0.00     0.176 C 
HETATM    2  N   UNL     2     -41.187 -53.635  13.587  1.00  0.00    -0.269 N 
HETATM    3  N   UNL     2     -40.113 -53.164  12.974  1.00  0.00    -0.005 NA
HETATM    4  N   UNL     2     -40.482 -52.587  11.844  1.00  0.00    -0.007 NA
HETATM    5  N   UNL     2     -41.796 -52.673  11.708  1.00  0.00    -0.274 N 
ATOM      6  HN  UNL     2     -42.358 -52.314  10.937  1.00  0.00     0.185 HD
HETATM    7  C   UNL     2     -42.240 -53.330  12.795  1.00  0.00     0.110 A 
ENDROOT
BRANCH   7   8
HETATM    8  C   UNL     2     -43.699 -53.663  13.058  1.00  0.00     0.114 C 
BRANCH   8   9
HETATM    9  C   UNL     2     -44.630 -52.422  12.983  1.00  0.00     0.227 C 
HETATM   10  C   UNL     2     -45.205 -51.974  14.343  1.00  0.00     0.037 C 
HETATM   11  C   UNL     2     -46.628 -51.519  14.006  1.00  0.00     0.032 C 
HETATM   12  C   UNL     2     -46.641 -51.473  12.497  1.00  0.00     0.270 C 
HETATM   13  N   UNL     2     -45.802 -52.605  12.119  1.00  0.00     0.088 N 
HETATM   14  H   UNL     2     -45.560 -52.517  11.108  1.00  0.00     0.316 HD
ENDBRANCH   8   9
ENDBRANCH   7   8
TORSDOF 2
ENDMDL
MODEL 3
REMARK VINA RESULT:      -4.6      7.251      8.054
REMARK  2 active torsions:
REMARK  status: ('A' for Active; 'I' for Inactive)
REMARK    1  A    between atoms: C_9  and  C_10 
REMARK    2  A    between atoms: C_10  and  C_11 
ROOT
HETATM    1  C   UNL     2     -39.210 -53.470  15.088  1.00  0.00     0.176 C 
HETATM    2  N   UNL     2     -39.553 -52.800  13.840  1.00  0.00    -0.269 N 
HETATM    3  N   UNL     2     -38.873 -51.771  13.361  1.00  0.00    -0.005 NA
HETATM    4  N   UNL     2     -39.428 -51.382  12.227  1.00  0.00    -0.007 NA
HETATM    5  N   UNL     2     -40.471 -52.149  11.954  1.00  0.00    -0.274 N 
ATOM      6  HN  UNL     2     -41.089 -52.080  11.146  1.00  0.00     0.185 HD
HETATM    7  C   UNL     2     -40.551 -53.039  12.960  1.00  0.00     0.110 A 
ENDROOT
BRANCH   7   8
HETATM    8  C   UNL     2     -41.607 -54.128  13.057  1.00  0.00     0.114 C 
BRANCH   8   9
HETATM    9  C   UNL     2     -43.032 -53.572  13.322  1.00  0.00     0.227 C 
HETATM   10  C   UNL     2     -43.962 -54.539  14.084  1.00  0.00     0.037 C 
HETATM   11  C   UNL     2     -45.334 -54.310  13.443  1.00  0.00     0.032 C 
HETATM   12  C   UNL     2     -45.134 -53.070  12.604  1.00  0.00     0.270 C 
HETATM   13  N   UNL     2     -43.772 -53.219  12.104  1.00  0.00     0.088 N 
HETATM   14  H   UNL     2     -43.460 -52.305  11.709  1.00  0.00     0.316 HD
ENDBRANCH   8   9
ENDBRANCH   7   8
TORSDOF 2
ENDMDL
MODEL 4
REMARK VINA RESULT:      -4.5      7.771      9.360
REMARK  2 active torsions:
REMARK  status: ('A' for Active; 'I' for Inactive)
REMARK    1  A    between atoms: C_9  and  C_10 
REMARK    2  A    between atoms: C_10  and  C_11 
ROOT
HETATM    1  C   UNL     2     -46.392 -51.514  13.732  1.00  0.00     0.176 C 
HETATM    2  N   UNL     2     -46.170 -52.939  13.933  1.00  0.00    -0.269 N 
HETATM    3  N   UNL     2     -46.882 -53.671  14.776  1.00  0.00    -0.005 NA
HETATM    4  N   UNL     2     -46.441 -54.916  14.740  1.00  0.00    -0.007 NA
HETATM    5  N   UNL     2     -45.440 -55.011  13.880  1.00  0.00    -0.274 N 
ATOM      6  HN  UNL     2     -44.907 -55.849  13.649  1.00  0.00     0.185 HD
HETATM    7  C   UNL     2     -45.269 -53.777  13.371  1.00  0.00     0.110 A 
ENDROOT
BRANCH   7   8
HETATM    8  C   UNL     2     -44.223 -53.418  12.329  1.00  0.00     0.114 C 
BRANCH   8   9
HETATM    9  C   UNL     2     -42.830 -53.113  12.945  1.00  0.00     0.227 C 
HETATM   10  C   UNL     2     -42.175 -51.815  12.429  1.00  0.00     0.037 C 
HETATM   11  C   UNL     2     -40.686 -52.164  12.343  1.00  0.00     0.032 C 
HETATM   12  C   UNL     2     -40.587 -53.486  13.067  1.00  0.00     0.270 C 
HETATM   13  N   UNL     2     -41.829 -54.160  12.707  1.00  0.00     0.088 N 
HETATM   14  H   UNL     2     -41.961 -54.978  13.342  1.00  0.00     0.316 HD
ENDBRANCH   8   9
ENDBRANCH   7   8
TORSDOF 2
ENDMDL
MODEL 5
REMARK VINA RESULT:      -4.3      2.311      4.049
REMARK  2 active torsions:
REMARK  status: ('A' for Active; 'I' for Inactive)
REMARK    1  A    between atoms: C_9  and  C_10 
REMARK    2  A    between atoms: C_10  and  C_11 
ROOT
HETATM    1  C   UNL     2     -42.005 -45.165  10.858  1.00  0.00     0.176 C 
HETATM    2  N   UNL     2     -42.730 -46.099  10.006  1.00  0.00    -0.269 N 
HETATM    3  N   UNL     2     -42.995 -45.861   8.732  1.00  0.00    -0.005 NA
HETATM    4  N   UNL     2     -43.666 -46.885   8.235  1.00  0.00    -0.007 NA
HETATM    5  N   UNL     2     -43.847 -47.799   9.174  1.00  0.00    -0.274 N 
ATOM      6  HN  UNL     2     -44.331 -48.691   9.078  1.00  0.00     0.185 HD
HETATM    7  C   UNL     2     -43.261 -47.312  10.284  1.00  0.00     0.110 A 
ENDROOT
BRANCH   7   8
HETATM    8  C   UNL     2     -43.217 -48.038  11.618  1.00  0.00     0.114 C 
BRANCH   8   9
HETATM    9  C   UNL     2     -41.907 -48.845  11.829  1.00  0.00     0.227 C 
HETATM   10  C   UNL     2     -40.863 -48.144  12.724  1.00  0.00     0.037 C 
HETATM   11  C   UNL     2     -39.523 -48.508  12.078  1.00  0.00     0.032 C 
HETATM   12  C   UNL     2     -39.887 -49.584  11.083  1.00  0.00     0.270 C 
HETATM   13  N   UNL     2     -41.190 -49.156  10.586  1.00  0.00     0.088 N 
HETATM   14  H   UNL     2     -41.628 -49.951  10.071  1.00  0.00     0.316 HD
ENDBRANCH   8   9
ENDBRANCH   7   8
TORSDOF 2
ENDMDL
MODEL 6
REMARK VINA RESULT:      -4.3      7.042      8.478
REMARK  2 active torsions:
REMARK  status: ('A' for Active; 'I' for Inactive)
REMARK    1  A    between atoms: C_9  and  C_10 
REMARK    2  A    between atoms: C_10  and  C_11 
ROOT
HETATM    1  C   UNL     2     -45.574 -53.185  15.542  1.00  0.00     0.176 C 
HETATM    2  N   UNL     2     -45.790 -52.676  14.194  1.00  0.00    -0.269 N 
HETATM    3  N   UNL     2     -46.688 -51.747  13.907  1.00  0.00    -0.005 NA
HETATM    4  N   UNL     2     -46.651 -51.502  12.609  1.00  0.00    -0.007 NA
HETATM    5  N   UNL     2     -45.734 -52.265  12.037  1.00  0.00    -0.274 N 
ATOM      6  HN  UNL     2     -45.488 -52.292  11.047  1.00  0.00     0.185 HD
HETATM    7  C   UNL     2     -45.192 -53.000  13.025  1.00  0.00     0.110 A 
ENDROOT
BRANCH   7   8
HETATM    8  C   UNL     2     -44.082 -54.018  12.826  1.00  0.00     0.114 C 
BRANCH   8   9
HETATM    9  C   UNL     2     -42.665 -53.382  12.825  1.00  0.00     0.227 C 
HETATM   10  C   UNL     2     -42.436 -52.337  13.937  1.00  0.00     0.037 C 
HETATM   11  C   UNL     2     -41.563 -51.273  13.265  1.00  0.00     0.032 C 
HETATM   12  C   UNL     2     -41.143 -51.923  11.968  1.00  0.00     0.270 C 
HETATM   13  N   UNL     2     -42.322 -52.688  11.579  1.00  0.00     0.088 N 
HETATM   14  H   UNL     2     -42.051 -53.355  10.822  1.00  0.00     0.316 HD
ENDBRANCH   8   9
ENDBRANCH   7   8
TORSDOF 2
ENDMDL
MODEL 7
REMARK VINA RESULT:      -4.3      7.116      8.416
REMARK  2 active torsions:
REMARK  status: ('A' for Active; 'I' for Inactive)
REMARK    1  A    between atoms: C_9  and  C_10 
REMARK    2  A    between atoms: C_10  and  C_11 
ROOT
HETATM    1  C   UNL     2     -42.090 -50.653  12.513  1.00  0.00     0.176 C 
HETATM    2  N   UNL     2     -41.613 -52.029  12.562  1.00  0.00    -0.269 N 
HETATM    3  N   UNL     2     -40.330 -52.349  12.616  1.00  0.00    -0.005 NA
HETATM    4  N   UNL     2     -40.217 -53.665  12.644  1.00  0.00    -0.007 NA
HETATM    5  N   UNL     2     -41.419 -54.217  12.608  1.00  0.00    -0.274 N 
ATOM      6  HN  UNL     2     -41.638 -55.213  12.615  1.00  0.00     0.185 HD
HETATM    7  C   UNL     2     -42.296 -53.197  12.559  1.00  0.00     0.110 A 
ENDROOT
BRANCH   7   8
HETATM    8  C   UNL     2     -43.805 -53.366  12.513  1.00  0.00     0.114 C 
BRANCH   8   9
HETATM    9  C   UNL     2     -44.407 -53.826  13.869  1.00  0.00     0.227 C 
HETATM   10  C   UNL     2     -45.465 -54.942  13.750  1.00  0.00     0.037 C 
HETATM   11  C   UNL     2     -46.496 -54.585  14.825  1.00  0.00     0.032 C 
HETATM   12  C   UNL     2     -45.815 -53.504  15.629  1.00  0.00     0.270 C 
HETATM   13  N   UNL     2     -45.072 -52.755  14.622  1.00  0.00     0.088 N 
HETATM   14  H   UNL     2     -44.386 -52.135  15.107  1.00  0.00     0.316 HD
ENDBRANCH   8   9
ENDBRANCH   7   8
TORSDOF 2
ENDMDL
MODEL 8
REMARK VINA RESULT:      -4.2      2.426      3.761
REMARK  2 active torsions:
REMARK  status: ('A' for Active; 'I' for Inactive)
REMARK    1  A    between atoms: C_9  and  C_10 
REMARK    2  A    between atoms: C_10  and  C_11 
ROOT
HETATM    1  C   UNL     2     -42.710 -45.918  12.782  1.00  0.00     0.176 C 
HETATM    2  N   UNL     2     -41.825 -45.586  11.674  1.00  0.00    -0.269 N 
HETATM    3  N   UNL     2     -41.336 -44.372  11.477  1.00  0.00    -0.005 NA
HETATM    4  N   UNL     2     -40.578 -44.385  10.395  1.00  0.00    -0.007 NA
HETATM    5  N   UNL     2     -40.564 -45.602   9.875  1.00  0.00    -0.274 N 
ATOM      6  HN  UNL     2     -40.065 -45.907   9.039  1.00  0.00     0.185 HD
HETATM    7  C   UNL     2     -41.341 -46.357  10.674  1.00  0.00     0.110 A 
ENDROOT
BRANCH   7   8
HETATM    8  C   UNL     2     -41.607 -47.837  10.459  1.00  0.00     0.114 C 
BRANCH   8   9
HETATM    9  C   UNL     2     -40.758 -48.749  11.386  1.00  0.00     0.227 C 
HETATM   10  C   UNL     2     -39.464 -48.093  11.912  1.00  0.00     0.037 C 
HETATM   11  C   UNL     2     -38.449 -49.240  11.919  1.00  0.00     0.032 C 
HETATM   12  C   UNL     2     -39.296 -50.468  11.685  1.00  0.00     0.270 C 
HETATM   13  N   UNL     2     -40.317 -49.999  10.755  1.00  0.00     0.088 N 
HETATM   14  H   UNL     2     -41.083 -50.707  10.716  1.00  0.00     0.316 HD
ENDBRANCH   8   9
ENDBRANCH   7   8
TORSDOF 2
ENDMDL
MODEL 9
REMARK VINA RESULT:      -4.1      4.170      5.391
REMARK  2 active torsions:
REMARK  status: ('A' for Active; 'I' for Inactive)
REMARK    1  A    between atoms: C_9  and  C_10 
REMARK    2  A    between atoms: C_10  and  C_11 
ROOT
HETATM    1  C   UNL     2     -41.329 -47.825  13.397  1.00  0.00     0.176 C 
HETATM    2  N   UNL     2     -41.581 -47.935  11.966  1.00  0.00    -0.269 N 
HETATM    3  N   UNL     2     -42.360 -47.096  11.303  1.00  0.00    -0.005 NA
HETATM    4  N   UNL     2     -42.396 -47.458  10.032  1.00  0.00    -0.007 NA
HETATM    5  N   UNL     2     -41.645 -48.532   9.853  1.00  0.00    -0.274 N 
ATOM      6  HN  UNL     2     -41.487 -49.032   8.978  1.00  0.00     0.185 HD
HETATM    7  C   UNL     2     -41.131 -48.833  11.060  1.00  0.00     0.110 A 
ENDROOT
BRANCH   7   8
HETATM    8  C   UNL     2     -40.195 -50.000  11.327  1.00  0.00     0.114 C 
BRANCH   8   9
HETATM    9  C   UNL     2     -40.872 -51.154  12.115  1.00  0.00     0.227 C 
HETATM   10  C   UNL     2     -40.084 -51.625  13.356  1.00  0.00     0.037 C 
HETATM   11  C   UNL     2     -40.304 -53.141  13.375  1.00  0.00     0.032 C 
HETATM   12  C   UNL     2     -41.395 -53.357  12.354  1.00  0.00     0.270 C 
HETATM   13  N   UNL     2     -41.091 -52.371  11.324  1.00  0.00     0.088 N 
HETATM   14  H   UNL     2     -41.918 -52.282  10.693  1.00  0.00     0.316 HD
ENDBRANCH   8   9
ENDBRANCH   7   8
TORSDOF 2
ENDMDL
