MODEL 1
REMARK VINA RESULT:      -5.4      0.000      0.000
REMARK  4 active torsions:
REMARK  status: ('A' for Active; 'I' for Inactive)
REMARK    1  A    between atoms: C_2  and  C_3 
REMARK    2  A    between atoms: C_2  and  N_10 
REMARK    3  A    between atoms: C_3  and  N_4 
REMARK       I    between atoms: N_10  and  C_11 
REMARK    4  A    between atoms: C_11  and  C_13 
ROOT
HETATM    1  C   UNL     1     -42.875 -50.215  13.539  1.00  0.00     0.034 C 
HETATM    2  C   UNL     1     -41.914 -49.780  12.433  1.00  0.00     0.100 C 
ENDROOT
BRANCH   2   3
HETATM    3  C   UNL     1     -41.055 -50.938  11.896  1.00  0.00     0.172 C 
BRANCH   3   4
HETATM    4  N   UNL     1     -39.629 -50.688  11.993  1.00  0.00    -0.302 N 
HETATM    5  C   UNL     1     -38.794 -51.080  13.000  1.00  0.00     0.111 A 
HETATM    6  C   UNL     1     -37.543 -50.624  12.655  1.00  0.00     0.037 A 
HETATM    7  C   UNL     1     -37.730 -49.956  11.431  1.00  0.00     0.108 A 
HETATM    8  N   UNL     1     -39.005 -49.984  11.030  1.00  0.00    -0.310 N 
ATOM      9  HN  UNL     1     -39.409 -49.568  10.191  1.00  0.00     0.186 HD
ENDBRANCH   3   4
ENDBRANCH   2   3
BRANCH   2  10
HETATM   10  N   UNL     1     -42.679 -49.144  11.353  1.00  0.00    -0.355 N 
HETATM   11  C   UNL     1     -42.159 -48.099  10.619  1.00  0.00     0.222 C 
HETATM   12  O   UNL     1     -41.044 -47.636  10.835  1.00  0.00    -0.273 OA
HETATM   13  H   UNL     1     -43.561 -49.555  11.071  1.00  0.00     0.162 HD
BRANCH  11  14
HETATM   14  C   UNL     1     -43.099 -47.564   9.548  1.00  0.00     0.078 C 
HETATM   15  C   UNL     1     -42.912 -46.067   9.277  1.00  0.00     0.014 C 
HETATM   16  C   UNL     1     -44.304 -45.504   8.979  1.00  0.00     0.001 C 
HETATM   17  C   UNL     1     -45.258 -46.689   9.019  1.00  0.00     0.001 C 
HETATM   18  C   UNL     1     -44.572 -47.685   9.937  1.00  0.00     0.014 C 
ENDBRANCH  11  14
ENDBRANCH   2  10
TORSDOF 4
ENDMDL
MODEL 2
REMARK VINA RESULT:      -5.0      3.406      5.495
REMARK  4 active torsions:
REMARK  status: ('A' for Active; 'I' for Inactive)
REMARK    1  A    between atoms: C_2  and  C_3 
REMARK    2  A    between atoms: C_2  and  N_10 
REMARK    3  A    between atoms: C_3  and  N_4 
REMARK       I    between atoms: N_10  and  C_11 
REMARK    4  A    between atoms: C_11  and  C_13 
ROOT
HETATM    1  C   UNL     1     -39.839 -48.798  11.718  1.00  0.00     0.034 C 
HETATM    2  C   UNL     1     -40.726 -47.721  11.093  1.00  0.00     0.100 C 
ENDROOT
BRANCH   2   3
HETATM    3  C   UNL     1     -42.223 -47.945  11.365  1.00  0.00     0.172 C 
BRANCH   3   4
HETATM    4  N   UNL     1     -43.054 -47.765  10.190  1.00  0.00    -0.302 N 
HETATM    5  C   UNL     1     -44.383 -47.449  10.165  1.00  0.00     0.111 A 
HETATM    6  C   UNL     1     -44.731 -47.381   8.836  1.00  0.00     0.037 A 
HETATM    7  C   UNL     1     -43.548 -47.687   8.139  1.00  0.00     0.108 A 
HETATM    8  N   UNL     1     -42.525 -47.933   8.963  1.00  0.00    -0.310 N 
ATOM      9  HN  UNL     1     -41.568 -48.189   8.719  1.00  0.00     0.186 HD
ENDBRANCH   3   4
ENDBRANCH   2   3
BRANCH   2  10
HETATM   10  N   UNL     1     -40.292 -46.403  11.574  1.00  0.00    -0.355 N 
HETATM   11  C   UNL     1     -40.476 -45.263  10.820  1.00  0.00     0.222 C 
HETATM   12  O   UNL     1     -40.992 -45.289   9.707  1.00  0.00    -0.273 OA
HETATM   13  H   UNL     1     -39.954 -46.316  12.525  1.00  0.00     0.162 HD
BRANCH  11  14
HETATM   14  C   UNL     1     -39.958 -43.992  11.477  1.00  0.00     0.078 C 
HETATM   15  C   UNL     1     -39.818 -44.116  12.999  1.00  0.00     0.014 C 
HETATM   16  C   UNL     1     -40.187 -42.749  13.580  1.00  0.00     0.001 C 
HETATM   17  C   UNL     1     -40.472 -41.844  12.389  1.00  0.00     0.001 C 
HETATM   18  C   UNL     1     -40.899 -42.802  11.293  1.00  0.00     0.014 C 
ENDBRANCH  11  14
ENDBRANCH   2  10
TORSDOF 4
ENDMDL
MODEL 3
REMARK VINA RESULT:      -4.9      3.579      4.894
REMARK  4 active torsions:
REMARK  status: ('A' for Active; 'I' for Inactive)
REMARK    1  A    between atoms: C_2  and  C_3 
REMARK    2  A    between atoms: C_2  and  N_10 
REMARK    3  A    between atoms: C_3  and  N_4 
REMARK       I    between atoms: N_10  and  C_11 
REMARK    4  A    between atoms: C_11  and  C_13 
ROOT
HETATM    1  C   UNL     1     -41.394 -54.357  14.714  1.00  0.00     0.034 C 
HETATM    2  C   UNL     1     -41.373 -52.967  14.076  1.00  0.00     0.100 C 
ENDROOT
BRANCH   2   3
HETATM    3  C   UNL     1     -40.732 -52.959  12.677  1.00  0.00     0.172 C 
BRANCH   3   4
HETATM    4  N   UNL     1     -40.274 -51.647  12.263  1.00  0.00    -0.302 N 
HETATM    5  C   UNL     1     -39.226 -50.942  12.782  1.00  0.00     0.111 A 
HETATM    6  C   UNL     1     -39.172 -49.764  12.073  1.00  0.00     0.037 A 
HETATM    7  C   UNL     1     -40.238 -49.848  11.159  1.00  0.00     0.108 A 
HETATM    8  N   UNL     1     -40.920 -50.990  11.281  1.00  0.00    -0.310 N 
ATOM      9  HN  UNL     1     -41.738 -51.294  10.753  1.00  0.00     0.186 HD
ENDBRANCH   3   4
ENDBRANCH   2   3
BRANCH   2  10
HETATM   10  N   UNL     1     -42.743 -52.438  14.033  1.00  0.00    -0.355 N 
HETATM   11  C   UNL     1     -43.032 -51.152  14.438  1.00  0.00     0.222 C 
HETATM   12  O   UNL     1     -42.172 -50.390  14.870  1.00  0.00    -0.273 OA
HETATM   13  H   UNL     1     -43.467 -52.991  13.592  1.00  0.00     0.162 HD
BRANCH  11  14
HETATM   14  C   UNL     1     -44.504 -50.782  14.329  1.00  0.00     0.078 C 
HETATM   15  C   UNL     1     -45.279 -51.008  15.632  1.00  0.00     0.014 C 
HETATM   16  C   UNL     1     -46.678 -51.481  15.227  1.00  0.00     0.001 C 
HETATM   17  C   UNL     1     -46.709 -51.460  13.706  1.00  0.00     0.001 C 
HETATM   18  C   UNL     1     -45.255 -51.633  13.305  1.00  0.00     0.014 C 
ENDBRANCH  11  14
ENDBRANCH   2  10
TORSDOF 4
ENDMDL
MODEL 4
REMARK VINA RESULT:      -4.7      5.761      7.078
REMARK  4 active torsions:
REMARK  status: ('A' for Active; 'I' for Inactive)
REMARK    1  A    between atoms: C_2  and  C_3 
REMARK    2  A    between atoms: C_2  and  N_10 
REMARK    3  A    between atoms: C_3  and  N_4 
REMARK       I    between atoms: N_10  and  C_11 
REMARK    4  A    between atoms: C_11  and  C_13 
ROOT
HETATM    1  C   UNL     1     -41.017 -53.848  12.829  1.00  0.00     0.034 C 
HETATM    2  C   UNL     1     -41.883 -54.274  14.015  1.00  0.00     0.100 C 
ENDROOT
BRANCH   2   3
HETATM    3  C   UNL     1     -41.239 -53.951  15.375  1.00  0.00     0.172 C 
BRANCH   3   4
HETATM    4  N   UNL     1     -40.764 -55.127  16.078  1.00  0.00    -0.302 N 
HETATM    5  C   UNL     1     -41.525 -56.070  16.709  1.00  0.00     0.111 A 
HETATM    6  C   UNL     1     -40.641 -56.989  17.224  1.00  0.00     0.037 A 
HETATM    7  C   UNL     1     -39.370 -56.506  16.862  1.00  0.00     0.108 A 
HETATM    8  N   UNL     1     -39.441 -55.363  16.173  1.00  0.00    -0.310 N 
ATOM      9  HN  UNL     1     -38.673 -54.801  15.805  1.00  0.00     0.186 HD
ENDBRANCH   3   4
ENDBRANCH   2   3
BRANCH   2  10
HETATM   10  N   UNL     1     -43.206 -53.646  13.894  1.00  0.00    -0.355 N 
HETATM   11  C   UNL     1     -44.359 -54.326  14.223  1.00  0.00     0.222 C 
HETATM   12  O   UNL     1     -44.348 -55.489  14.615  1.00  0.00    -0.273 OA
HETATM   13  H   UNL     1     -43.260 -52.659  13.672  1.00  0.00     0.162 HD
BRANCH  11  14
HETATM   14  C   UNL     1     -45.634 -53.518  14.027  1.00  0.00     0.078 C 
HETATM   15  C   UNL     1     -45.727 -52.867  12.643  1.00  0.00     0.014 C 
HETATM   16  C   UNL     1     -46.413 -51.514  12.845  1.00  0.00     0.001 C 
HETATM   17  C   UNL     1     -46.760 -51.432  14.325  1.00  0.00     0.001 C 
HETATM   18  C   UNL     1     -45.743 -52.338  14.993  1.00  0.00     0.014 C 
ENDBRANCH  11  14
ENDBRANCH   2  10
TORSDOF 4
ENDMDL
MODEL 5
REMARK VINA RESULT:      -4.7      2.379      4.903
REMARK  4 active torsions:
REMARK  status: ('A' for Active; 'I' for Inactive)
REMARK    1  A    between atoms: C_2  and  C_3 
REMARK    2  A    between atoms: C_2  and  N_10 
REMARK    3  A    between atoms: C_3  and  N_4 
REMARK       I    between atoms: N_10  and  C_11 
REMARK    4  A    between atoms: C_11  and  C_13 
ROOT
HETATM    1  C   UNL     1     -42.192 -48.227  10.369  1.00  0.00     0.034 C 
HETATM    2  C   UNL     1     -41.323 -49.227  11.131  1.00  0.00     0.100 C 
ENDROOT
BRANCH   2   3
HETATM    3  C   UNL     1     -40.234 -48.548  11.981  1.00  0.00     0.172 C 
BRANCH   3   4
HETATM    4  N   UNL     1     -39.049 -49.366  12.157  1.00  0.00    -0.302 N 
HETATM    5  C   UNL     1     -38.402 -49.632  13.330  1.00  0.00     0.111 A 
HETATM    6  C   UNL     1     -37.345 -50.449  13.003  1.00  0.00     0.037 A 
HETATM    7  C   UNL     1     -37.431 -50.606  11.608  1.00  0.00     0.108 A 
HETATM    8  N   UNL     1     -38.464 -49.937  11.087  1.00  0.00    -0.310 N 
ATOM      9  HN  UNL     1     -38.743 -49.873  10.108  1.00  0.00     0.186 HD
ENDBRANCH   3   4
ENDBRANCH   2   3
BRANCH   2  10
HETATM   10  N   UNL     1     -42.184 -50.081  11.959  1.00  0.00    -0.355 N 
HETATM   11  C   UNL     1     -41.902 -51.417  12.155  1.00  0.00     0.222 C 
HETATM   12  O   UNL     1     -40.933 -51.966  11.639  1.00  0.00    -0.273 OA
HETATM   13  H   UNL     1     -42.936 -49.653  12.486  1.00  0.00     0.162 HD
BRANCH  11  14
HETATM   14  C   UNL     1     -42.909 -52.142  13.035  1.00  0.00     0.078 C 
HETATM   15  C   UNL     1     -42.253 -52.957  14.155  1.00  0.00     0.014 C 
HETATM   16  C   UNL     1     -43.106 -54.215  14.333  1.00  0.00     0.001 C 
HETATM   17  C   UNL     1     -44.270 -54.079  13.362  1.00  0.00     0.001 C 
HETATM   18  C   UNL     1     -43.733 -53.175  12.267  1.00  0.00     0.014 C 
ENDBRANCH  11  14
ENDBRANCH   2  10
TORSDOF 4
ENDMDL
MODEL 6
REMARK VINA RESULT:      -4.7      2.883      6.204
REMARK  4 active torsions:
REMARK  status: ('A' for Active; 'I' for Inactive)
REMARK    1  A    between atoms: C_2  and  C_3 
REMARK    2  A    between atoms: C_2  and  N_10 
REMARK    3  A    between atoms: C_3  and  N_4 
REMARK       I    between atoms: N_10  and  C_11 
REMARK    4  A    between atoms: C_11  and  C_13 
ROOT
HETATM    1  C   UNL     1     -41.406 -49.227  11.582  1.00  0.00     0.034 C 
HETATM    2  C   UNL     1     -42.649 -48.708  12.306  1.00  0.00     0.100 C 
ENDROOT
BRANCH   2   3
HETATM    3  C   UNL     1     -43.181 -47.391  11.716  1.00  0.00     0.172 C 
BRANCH   3   4
HETATM    4  N   UNL     1     -43.652 -47.522  10.350  1.00  0.00    -0.302 N 
HETATM    5  C   UNL     1     -42.889 -47.540   9.217  1.00  0.00     0.111 A 
HETATM    6  C   UNL     1     -43.768 -47.687   8.170  1.00  0.00     0.037 A 
HETATM    7  C   UNL     1     -45.039 -47.733   8.772  1.00  0.00     0.108 A 
HETATM    8  N   UNL     1     -44.972 -47.621  10.102  1.00  0.00    -0.310 N 
ATOM      9  HN  UNL     1     -45.740 -47.612  10.772  1.00  0.00     0.186 HD
ENDBRANCH   3   4
ENDBRANCH   2   3
BRANCH   2  10
HETATM   10  N   UNL     1     -43.684 -49.750  12.291  1.00  0.00    -0.355 N 
HETATM   11  C   UNL     1     -44.021 -50.449  13.431  1.00  0.00     0.222 C 
HETATM   12  O   UNL     1     -43.469 -50.253  14.509  1.00  0.00    -0.273 OA
HETATM   13  H   UNL     1     -44.236 -49.878  11.452  1.00  0.00     0.162 HD
BRANCH  11  14
HETATM   14  C   UNL     1     -45.108 -51.493  13.222  1.00  0.00     0.078 C 
HETATM   15  C   UNL     1     -46.273 -51.356  14.209  1.00  0.00     0.014 C 
HETATM   16  C   UNL     1     -46.741 -52.778  14.525  1.00  0.00     0.001 C 
HETATM   17  C   UNL     1     -45.887 -53.706  13.673  1.00  0.00     0.001 C 
HETATM   18  C   UNL     1     -44.610 -52.921  13.440  1.00  0.00     0.014 C 
ENDBRANCH  11  14
ENDBRANCH   2  10
TORSDOF 4
ENDMDL
MODEL 7
REMARK VINA RESULT:      -4.7      2.255      4.397
REMARK  4 active torsions:
REMARK  status: ('A' for Active; 'I' for Inactive)
REMARK    1  A    between atoms: C_2  and  C_3 
REMARK    2  A    between atoms: C_2  and  N_10 
REMARK    3  A    between atoms: C_3  and  N_4 
REMARK       I    between atoms: N_10  and  C_11 
REMARK    4  A    between atoms: C_11  and  C_13 
ROOT
HETATM    1  C   UNL     1     -42.509 -48.226  10.996  1.00  0.00     0.034 C 
HETATM    2  C   UNL     1     -41.900 -49.342  11.845  1.00  0.00     0.100 C 
ENDROOT
BRANCH   2   3
HETATM    3  C   UNL     1     -40.742 -48.855  12.734  1.00  0.00     0.172 C 
BRANCH   3   4
HETATM    4  N   UNL     1     -39.473 -49.483  12.419  1.00  0.00    -0.302 N 
HETATM    5  C   UNL     1     -38.834 -50.449  13.143  1.00  0.00     0.111 A 
HETATM    6  C   UNL     1     -37.677 -50.735  12.457  1.00  0.00     0.037 A 
HETATM    7  C   UNL     1     -37.702 -49.879  11.341  1.00  0.00     0.108 A 
HETATM    8  N   UNL     1     -38.791 -49.105  11.321  1.00  0.00    -0.310 N 
ATOM      9  HN  UNL     1     -39.047 -48.395  10.635  1.00  0.00     0.186 HD
ENDBRANCH   3   4
ENDBRANCH   2   3
BRANCH   2  10
HETATM   10  N   UNL     1     -42.958 -49.966  12.650  1.00  0.00    -0.355 N 
HETATM   11  C   UNL     1     -43.019 -51.332  12.827  1.00  0.00     0.222 C 
HETATM   12  O   UNL     1     -42.209 -52.098  12.313  1.00  0.00    -0.273 OA
HETATM   13  H   UNL     1     -43.588 -49.371  13.174  1.00  0.00     0.162 HD
BRANCH  11  14
HETATM   14  C   UNL     1     -44.188 -51.796  13.684  1.00  0.00     0.078 C 
HETATM   15  C   UNL     1     -45.513 -51.852  12.916  1.00  0.00     0.014 C 
HETATM   16  C   UNL     1     -46.604 -51.433  13.904  1.00  0.00     0.001 C 
HETATM   17  C   UNL     1     -45.905 -51.205  15.237  1.00  0.00     0.001 C 
HETATM   18  C   UNL     1     -44.480 -50.852  14.850  1.00  0.00     0.014 C 
ENDBRANCH  11  14
ENDBRANCH   2  10
TORSDOF 4
ENDMDL
MODEL 8
REMARK VINA RESULT:      -4.6      2.251      6.402
REMARK  4 active torsions:
REMARK  status: ('A' for Active; 'I' for Inactive)
REMARK    1  A    between atoms: C_2  and  C_3 
REMARK    2  A    between atoms: C_2  and  N_10 
REMARK    3  A    between atoms: C_3  and  N_4 
REMARK       I    between atoms: N_10  and  C_11 
REMARK    4  A    between atoms: C_11  and  C_13 
ROOT
HETATM    1  C   UNL     1     -41.174 -44.804  12.863  1.00  0.00     0.034 C 
HETATM    2  C   UNL     1     -41.113 -46.043  11.971  1.00  0.00     0.100 C 
ENDROOT
BRANCH   2   3
HETATM    3  C   UNL     1     -41.137 -45.704  10.470  1.00  0.00     0.172 C 
BRANCH   3   4
HETATM    4  N   UNL     1     -42.315 -46.201   9.787  1.00  0.00    -0.302 N 
HETATM    5  C   UNL     1     -43.444 -45.497   9.479  1.00  0.00     0.111 A 
HETATM    6  C   UNL     1     -44.279 -46.380   8.835  1.00  0.00     0.037 A 
HETATM    7  C   UNL     1     -43.570 -47.595   8.816  1.00  0.00     0.108 A 
HETATM    8  N   UNL     1     -42.376 -47.492   9.407  1.00  0.00    -0.310 N 
ATOM      9  HN  UNL     1     -41.674 -48.221   9.540  1.00  0.00     0.186 HD
ENDBRANCH   3   4
ENDBRANCH   2   3
BRANCH   2  10
HETATM   10  N   UNL     1     -39.919 -46.827  12.317  1.00  0.00    -0.355 N 
HETATM   11  C   UNL     1     -39.868 -48.190  12.115  1.00  0.00     0.222 C 
HETATM   12  O   UNL     1     -40.813 -48.822  11.654  1.00  0.00    -0.273 OA
HETATM   13  H   UNL     1     -39.080 -46.338  12.604  1.00  0.00     0.162 HD
BRANCH  11  14
HETATM   14  C   UNL     1     -38.554 -48.831  12.539  1.00  0.00     0.078 C 
HETATM   15  C   UNL     1     -37.928 -49.701  11.443  1.00  0.00     0.014 C 
HETATM   16  C   UNL     1     -37.268 -50.884  12.155  1.00  0.00     0.001 C 
HETATM   17  C   UNL     1     -37.467 -50.648  13.645  1.00  0.00     0.001 C 
HETATM   18  C   UNL     1     -38.716 -49.789  13.719  1.00  0.00     0.014 C 
ENDBRANCH  11  14
ENDBRANCH   2  10
TORSDOF 4
ENDMDL
MODEL 9
REMARK VINA RESULT:      -4.6      5.787      8.065
REMARK  4 active torsions:
REMARK  status: ('A' for Active; 'I' for Inactive)
REMARK    1  A    between atoms: C_2  and  C_3 
REMARK    2  A    between atoms: C_2  and  N_10 
REMARK    3  A    between atoms: C_3  and  N_4 
REMARK       I    between atoms: N_10  and  C_11 
REMARK    4  A    between atoms: C_11  and  C_13 
ROOT
HETATM    1  C   UNL     1     -44.608 -52.761  17.459  1.00  0.00     0.034 C 
HETATM    2  C   UNL     1     -44.756 -53.879  16.426  1.00  0.00     0.100 C 
ENDROOT
BRANCH   2   3
HETATM    3  C   UNL     1     -46.145 -53.903  15.764  1.00  0.00     0.172 C 
BRANCH   3   4
HETATM    4  N   UNL     1     -46.231 -53.073  14.578  1.00  0.00    -0.302 N 
HETATM    5  C   UNL     1     -46.504 -51.736  14.529  1.00  0.00     0.111 A 
HETATM    6  C   UNL     1     -46.474 -51.390  13.198  1.00  0.00     0.037 A 
HETATM    7  C   UNL     1     -46.189 -52.591  12.523  1.00  0.00     0.108 A 
HETATM    8  N   UNL     1     -46.052 -53.622  13.361  1.00  0.00    -0.310 N 
ATOM      9  HN  UNL     1     -45.857 -54.597  13.133  1.00  0.00     0.186 HD
ENDBRANCH   3   4
ENDBRANCH   2   3
BRANCH   2  10
HETATM   10  N   UNL     1     -43.694 -53.748  15.421  1.00  0.00    -0.355 N 
HETATM   11  C   UNL     1     -42.969 -54.840  14.992  1.00  0.00     0.222 C 
HETATM   12  O   UNL     1     -43.157 -55.969  15.434  1.00  0.00    -0.273 OA
HETATM   13  H   UNL     1     -43.570 -52.858  14.954  1.00  0.00     0.162 HD
BRANCH  11  14
HETATM   14  C   UNL     1     -41.906 -54.511  13.953  1.00  0.00     0.078 C 
HETATM   15  C   UNL     1     -40.568 -54.092  14.573  1.00  0.00     0.014 C 
HETATM   16  C   UNL     1     -39.985 -53.015  13.655  1.00  0.00     0.001 C 
HETATM   17  C   UNL     1     -40.957 -52.875  12.493  1.00  0.00     0.001 C 
HETATM   18  C   UNL     1     -42.288 -53.323  13.069  1.00  0.00     0.014 C 
ENDBRANCH  11  14
ENDBRANCH   2  10
TORSDOF 4
ENDMDL
