MODEL 1
REMARK VINA RESULT:      -6.9      0.000      0.000
REMARK  4 active torsions:
REMARK  status: ('A' for Active; 'I' for Inactive)
REMARK    1  A    between atoms: C_3  and  C_13 
REMARK    2  A    between atoms: C_9  and  C_18 
REMARK    3  A    between atoms: C_10  and  N_15 
REMARK    4  A    between atoms: C_13  and  N_15 
ROOT
HETATM    1  N   UNL     1     -40.797 -49.804  11.543  1.00  0.00    -0.274 NA
HETATM    2  H   UNL     1     -39.781 -49.828  11.549  1.00  0.00     0.129 HD
ENDROOT
BRANCH   1   3
HETATM    3  C   UNL     1     -41.175 -48.567  10.977  1.00  0.00     0.082 A 
HETATM    4  N   UNL     1     -42.198 -48.491  10.112  1.00  0.00    -0.336 N 
HETATM    5  C   UNL     1     -42.520 -47.273   9.629  1.00  0.00     0.085 A 
ATOM      6  HN  UNL     1     -42.713 -49.325   9.829  1.00  0.00     0.168 HD
HETATM    7  N   UNL     1     -41.881 -46.134   9.949  1.00  0.00    -0.355 N 
HETATM    8  C   UNL     1     -40.853 -46.251  10.800  1.00  0.00     0.092 A 
ATOM      9  HN  UNL     1     -42.163 -45.231   9.565  1.00  0.00     0.166 HD
HETATM   10  C   UNL     1     -40.459 -47.447  11.349  1.00  0.00     0.059 A 
BRANCH   5  11
HETATM   11  C   UNL     1     -43.730 -47.153   8.728  1.00  0.00     0.045 C 
HETATM   12  C   UNL     1     -43.606 -48.046   7.495  1.00  0.00     0.017 C 
HETATM   13  C   UNL     1     -45.005 -47.465   9.510  1.00  0.00     0.017 C 
ENDBRANCH   5  11
ENDBRANCH   1   3
BRANCH   1  14
HETATM   14  C   UNL     1     -41.343 -50.044  12.884  1.00  0.00     0.139 C 
BRANCH  14  15
HETATM   15  C   UNL     1     -42.521 -50.983  12.820  1.00  0.00     0.039 A 
HETATM   16  C   UNL     1     -42.248 -52.290  12.174  1.00  0.00     0.258 A 
HETATM   17  N   UNL     1     -43.298 -53.160  12.099  1.00  0.00    -0.275 N 
HETATM   18  O   UNL     1     -41.141 -52.575  11.727  1.00  0.00    -0.267 OA
HETATM   19  C   UNL     1     -44.563 -52.950  12.585  1.00  0.00     0.328 A 
HETATM   20  H   UNL     1     -43.128 -54.054  11.668  1.00  0.00     0.173 HD
HETATM   21  N   UNL     1     -44.767 -51.717  13.186  1.00  0.00    -0.313 N 
HETATM   22  O   UNL     1     -45.418 -53.824  12.476  1.00  0.00    -0.246 OA
HETATM   23  C   UNL     1     -46.072 -51.401  13.751  1.00  0.00     0.160 C 
HETATM   24  C   UNL     1     -43.762 -50.777  13.284  1.00  0.00     0.109 A 
ENDBRANCH  14  15
ENDBRANCH   1  14
TORSDOF 4
ENDMDL
MODEL 2
REMARK VINA RESULT:      -6.4      2.623      6.142
REMARK  4 active torsions:
REMARK  status: ('A' for Active; 'I' for Inactive)
REMARK    1  A    between atoms: C_3  and  C_13 
REMARK    2  A    between atoms: C_9  and  C_18 
REMARK    3  A    between atoms: C_10  and  N_15 
REMARK    4  A    between atoms: C_13  and  N_15 
ROOT
HETATM    1  N   UNL     1     -41.982 -52.378  11.538  1.00  0.00    -0.274 NA
HETATM    2  H   UNL     1     -42.471 -51.760  10.896  1.00  0.00     0.129 HD
ENDROOT
BRANCH   1   3
HETATM    3  C   UNL     1     -42.943 -52.870  12.447  1.00  0.00     0.082 A 
HETATM    4  N   UNL     1     -44.176 -52.343  12.497  1.00  0.00    -0.336 N 
HETATM    5  C   UNL     1     -45.052 -52.878  13.373  1.00  0.00     0.085 A 
ATOM      6  HN  UNL     1     -44.443 -51.564  11.894  1.00  0.00     0.168 HD
HETATM    7  N   UNL     1     -44.770 -53.896  14.205  1.00  0.00    -0.355 N 
HETATM    8  C   UNL     1     -43.523 -54.385  14.141  1.00  0.00     0.092 A 
ATOM      9  HN  UNL     1     -45.465 -54.276  14.848  1.00  0.00     0.166 HD
HETATM   10  C   UNL     1     -42.568 -53.909  13.276  1.00  0.00     0.059 A 
BRANCH   5  11
HETATM   11  C   UNL     1     -46.474 -52.361  13.377  1.00  0.00     0.045 C 
HETATM   12  C   UNL     1     -46.723 -51.400  14.537  1.00  0.00     0.017 C 
HETATM   13  C   UNL     1     -46.801 -51.706  12.036  1.00  0.00     0.017 C 
ENDBRANCH   5  11
ENDBRANCH   1   3
BRANCH   1  14
HETATM   14  C   UNL     1     -40.847 -51.698  12.174  1.00  0.00     0.139 C 
BRANCH  14  15
HETATM   15  C   UNL     1     -40.852 -50.227  11.844  1.00  0.00     0.039 A 
HETATM   16  C   UNL     1     -39.515 -49.633  11.604  1.00  0.00     0.258 A 
HETATM   17  N   UNL     1     -39.489 -48.300  11.306  1.00  0.00    -0.275 N 
HETATM   18  O   UNL     1     -38.486 -50.298  11.671  1.00  0.00    -0.267 OA
HETATM   19  C   UNL     1     -40.576 -47.474  11.183  1.00  0.00     0.328 A 
HETATM   20  H   UNL     1     -38.588 -47.882  11.135  1.00  0.00     0.173 HD
HETATM   21  N   UNL     1     -41.804 -48.077  11.411  1.00  0.00    -0.313 N 
HETATM   22  O   UNL     1     -40.423 -46.292  10.888  1.00  0.00    -0.246 OA
HETATM   23  C   UNL     1     -43.024 -47.290  11.288  1.00  0.00     0.160 C 
HETATM   24  C   UNL     1     -41.912 -49.414  11.734  1.00  0.00     0.109 A 
ENDBRANCH  14  15
ENDBRANCH   1  14
TORSDOF 4
ENDMDL
MODEL 3
REMARK VINA RESULT:      -6.4      2.538      6.206
REMARK  4 active torsions:
REMARK  status: ('A' for Active; 'I' for Inactive)
REMARK    1  A    between atoms: C_3  and  C_13 
REMARK    2  A    between atoms: C_9  and  C_18 
REMARK    3  A    between atoms: C_10  and  N_15 
REMARK    4  A    between atoms: C_13  and  N_15 
ROOT
HETATM    1  N   UNL     1     -41.413 -50.331  11.766  1.00  0.00    -0.274 NA
HETATM    2  H   UNL     1     -41.444 -50.325  10.751  1.00  0.00     0.129 HD
ENDROOT
BRANCH   1   3
HETATM    3  C   UNL     1     -41.757 -51.636  12.180  1.00  0.00     0.082 A 
HETATM    4  N   UNL     1     -43.041 -52.011  12.277  1.00  0.00    -0.336 N 
HETATM    5  C   UNL     1     -43.297 -53.281  12.655  1.00  0.00     0.085 A 
ATOM      6  HN  UNL     1     -43.799 -51.358  12.071  1.00  0.00     0.168 HD
HETATM    7  N   UNL     1     -42.353 -54.192  12.950  1.00  0.00    -0.355 N 
HETATM    8  C   UNL     1     -41.081 -53.776  12.861  1.00  0.00     0.092 A 
ATOM      9  HN  UNL     1     -42.590 -55.145  13.225  1.00  0.00     0.166 HD
HETATM   10  C   UNL     1     -40.727 -52.506  12.477  1.00  0.00     0.059 A 
BRANCH   5  11
HETATM   11  C   UNL     1     -44.735 -53.750  12.676  1.00  0.00     0.045 C 
HETATM   12  C   UNL     1     -44.979 -54.773  13.784  1.00  0.00     0.017 C 
HETATM   13  C   UNL     1     -45.679 -52.555  12.809  1.00  0.00     0.017 C 
ENDBRANCH   5  11
ENDBRANCH   1   3
BRANCH   1  14
HETATM   14  C   UNL     1     -42.263 -49.277  12.333  1.00  0.00     0.139 C 
BRANCH  14  15
HETATM   15  C   UNL     1     -42.656 -48.280  11.273  1.00  0.00     0.039 A 
HETATM   16  C   UNL     1     -41.540 -47.465  10.733  1.00  0.00     0.258 A 
HETATM   17  N   UNL     1     -41.867 -46.550   9.773  1.00  0.00    -0.275 N 
HETATM   18  O   UNL     1     -40.385 -47.601  11.127  1.00  0.00    -0.267 OA
HETATM   19  C   UNL     1     -43.115 -46.335   9.248  1.00  0.00     0.328 A 
HETATM   20  H   UNL     1     -41.119 -45.993   9.392  1.00  0.00     0.173 HD
HETATM   21  N   UNL     1     -44.123 -47.124   9.780  1.00  0.00    -0.313 N 
HETATM   22  O   UNL     1     -43.277 -45.494   8.368  1.00  0.00    -0.246 OA
HETATM   23  C   UNL     1     -45.483 -46.986   9.278  1.00  0.00     0.160 C 
HETATM   24  C   UNL     1     -43.876 -48.058  10.765  1.00  0.00     0.109 A 
ENDBRANCH  14  15
ENDBRANCH   1  14
TORSDOF 4
ENDMDL
MODEL 4
REMARK VINA RESULT:      -6.4      2.685      6.463
REMARK  4 active torsions:
REMARK  status: ('A' for Active; 'I' for Inactive)
REMARK    1  A    between atoms: C_3  and  C_13 
REMARK    2  A    between atoms: C_9  and  C_18 
REMARK    3  A    between atoms: C_10  and  N_15 
REMARK    4  A    between atoms: C_13  and  N_15 
ROOT
HETATM    1  N   UNL     1     -40.929 -51.378  11.249  1.00  0.00    -0.274 NA
HETATM    2  H   UNL     1     -41.660 -51.020  10.640  1.00  0.00     0.129 HD
ENDROOT
BRANCH   1   3
HETATM    3  C   UNL     1     -41.519 -52.374  12.057  1.00  0.00     0.082 A 
HETATM    4  N   UNL     1     -42.840 -52.605  12.010  1.00  0.00    -0.336 N 
HETATM    5  C   UNL     1     -43.332 -53.588  12.792  1.00  0.00     0.085 A 
ATOM      6  HN  UNL     1     -43.451 -52.057  11.404  1.00  0.00     0.168 HD
HETATM    7  N   UNL     1     -42.591 -54.344  13.622  1.00  0.00    -0.355 N 
HETATM    8  C   UNL     1     -41.279 -54.071  13.658  1.00  0.00     0.092 A 
ATOM      9  HN  UNL     1     -43.004 -55.082  14.192  1.00  0.00     0.166 HD
HETATM   10  C   UNL     1     -40.689 -53.096  12.891  1.00  0.00     0.059 A 
BRANCH   5  11
HETATM   11  C   UNL     1     -44.802 -53.928  12.682  1.00  0.00     0.045 C 
HETATM   12  C   UNL     1     -45.234 -54.924  13.755  1.00  0.00     0.017 C 
HETATM   13  C   UNL     1     -45.645 -52.654  12.738  1.00  0.00     0.017 C 
ENDBRANCH   5  11
ENDBRANCH   1   3
BRANCH   1  14
HETATM   14  C   UNL     1     -40.283 -50.297  12.002  1.00  0.00     0.139 C 
BRANCH  14  15
HETATM   15  C   UNL     1     -40.688 -48.951  11.458  1.00  0.00     0.039 A 
HETATM   16  C   UNL     1     -39.811 -47.823  11.856  1.00  0.00     0.258 A 
HETATM   17  N   UNL     1     -40.156 -46.590  11.380  1.00  0.00    -0.275 N 
HETATM   18  O   UNL     1     -38.830 -47.985  12.575  1.00  0.00    -0.267 OA
HETATM   19  C   UNL     1     -41.213 -46.304  10.555  1.00  0.00     0.328 A 
HETATM   20  H   UNL     1     -39.567 -45.814  11.637  1.00  0.00     0.173 HD
HETATM   21  N   UNL     1     -42.000 -47.392  10.206  1.00  0.00    -0.313 N 
HETATM   22  O   UNL     1     -41.406 -45.153  10.176  1.00  0.00    -0.246 OA
HETATM   23  C   UNL     1     -43.138 -47.198   9.318  1.00  0.00     0.160 C 
HETATM   24  C   UNL     1     -41.727 -48.666  10.661  1.00  0.00     0.109 A 
ENDBRANCH  14  15
ENDBRANCH   1  14
TORSDOF 4
ENDMDL
MODEL 5
REMARK VINA RESULT:      -6.3      2.394      6.402
REMARK  4 active torsions:
REMARK  status: ('A' for Active; 'I' for Inactive)
REMARK    1  A    between atoms: C_3  and  C_13 
REMARK    2  A    between atoms: C_9  and  C_18 
REMARK    3  A    between atoms: C_10  and  N_15 
REMARK    4  A    between atoms: C_13  and  N_15 
ROOT
HETATM    1  N   UNL     1     -40.837 -50.723  11.315  1.00  0.00    -0.274 NA
HETATM    2  H   UNL     1     -41.445 -50.420  10.560  1.00  0.00     0.129 HD
ENDROOT
BRANCH   1   3
HETATM    3  C   UNL     1     -41.446 -51.852  11.905  1.00  0.00     0.082 A 
HETATM    4  N   UNL     1     -42.780 -51.937  12.013  1.00  0.00    -0.336 N 
HETATM    5  C   UNL     1     -43.295 -53.055  12.565  1.00  0.00     0.085 A 
ATOM      6  HN  UNL     1     -43.385 -51.181  11.689  1.00  0.00     0.168 HD
HETATM    7  N   UNL     1     -42.561 -54.085  13.023  1.00  0.00    -0.355 N 
HETATM    8  C   UNL     1     -41.231 -53.957  12.916  1.00  0.00     0.092 A 
ATOM      9  HN  UNL     1     -42.992 -54.917  13.428  1.00  0.00     0.166 HD
HETATM   10  C   UNL     1     -40.619 -52.860  12.361  1.00  0.00     0.059 A 
BRANCH   5  11
HETATM   11  C   UNL     1     -44.799 -53.210  12.608  1.00  0.00     0.045 C 
HETATM   12  C   UNL     1     -45.222 -54.367  13.511  1.00  0.00     0.017 C 
HETATM   13  C   UNL     1     -45.454 -51.901  13.045  1.00  0.00     0.017 C 
ENDBRANCH   5  11
ENDBRANCH   1   3
BRANCH   1  14
HETATM   14  C   UNL     1     -40.565 -49.628  12.254  1.00  0.00     0.139 C 
BRANCH  14  15
HETATM   15  C   UNL     1     -40.986 -48.305  11.668  1.00  0.00     0.039 A 
HETATM   16  C   UNL     1     -42.451 -48.083  11.607  1.00  0.00     0.258 A 
HETATM   17  N   UNL     1     -42.863 -46.893  11.078  1.00  0.00    -0.275 N 
HETATM   18  O   UNL     1     -43.253 -48.922  12.007  1.00  0.00    -0.267 OA
HETATM   19  C   UNL     1     -42.054 -45.883  10.625  1.00  0.00     0.328 A 
HETATM   20  H   UNL     1     -43.855 -46.724  11.035  1.00  0.00     0.173 HD
HETATM   21  N   UNL     1     -40.693 -46.135  10.708  1.00  0.00    -0.313 N 
HETATM   22  O   UNL     1     -42.547 -44.846  10.190  1.00  0.00    -0.246 OA
HETATM   23  C   UNL     1     -39.747 -45.118  10.270  1.00  0.00     0.160 C 
HETATM   24  C   UNL     1     -40.199 -47.320  11.214  1.00  0.00     0.109 A 
ENDBRANCH  14  15
ENDBRANCH   1  14
TORSDOF 4
ENDMDL
MODEL 6
REMARK VINA RESULT:      -6.2      3.593      6.544
REMARK  4 active torsions:
REMARK  status: ('A' for Active; 'I' for Inactive)
REMARK    1  A    between atoms: C_3  and  C_13 
REMARK    2  A    between atoms: C_9  and  C_18 
REMARK    3  A    between atoms: C_10  and  N_15 
REMARK    4  A    between atoms: C_13  and  N_15 
ROOT
HETATM    1  N   UNL     1     -41.984 -53.900  14.839  1.00  0.00    -0.274 NA
HETATM    2  H   UNL     1     -41.876 -54.569  15.596  1.00  0.00     0.129 HD
ENDROOT
BRANCH   1   3
HETATM    3  C   UNL     1     -43.347 -53.914  14.470  1.00  0.00     0.082 A 
HETATM    4  N   UNL     1     -44.030 -52.770  14.314  1.00  0.00    -0.336 N 
HETATM    5  C   UNL     1     -45.322 -52.858  13.938  1.00  0.00     0.085 A 
ATOM      6  HN  UNL     1     -43.587 -51.865  14.475  1.00  0.00     0.168 HD
HETATM    7  N   UNL     1     -45.974 -54.013  13.718  1.00  0.00    -0.355 N 
HETATM    8  C   UNL     1     -45.266 -55.137  13.902  1.00  0.00     0.092 A 
ATOM      9  HN  UNL     1     -46.952 -54.034  13.427  1.00  0.00     0.166 HD
HETATM   10  C   UNL     1     -43.945 -55.144  14.277  1.00  0.00     0.059 A 
BRANCH   5  11
HETATM   11  C   UNL     1     -46.081 -51.578  13.663  1.00  0.00     0.045 C 
HETATM   12  C   UNL     1     -46.817 -51.633  12.327  1.00  0.00     0.017 C 
HETATM   13  C   UNL     1     -47.042 -51.276  14.812  1.00  0.00     0.017 C 
ENDBRANCH   5  11
ENDBRANCH   1   3
BRANCH   1  14
HETATM   14  C   UNL     1     -41.061 -54.188  13.735  1.00  0.00     0.139 C 
BRANCH  14  15
HETATM   15  C   UNL     1     -40.444 -52.917  13.210  1.00  0.00     0.039 A 
HETATM   16  C   UNL     1     -41.205 -52.252  12.124  1.00  0.00     0.258 A 
HETATM   17  N   UNL     1     -40.669 -51.099  11.625  1.00  0.00    -0.275 N 
HETATM   18  O   UNL     1     -42.258 -52.712  11.693  1.00  0.00    -0.267 OA
HETATM   19  C   UNL     1     -39.516 -50.491  12.049  1.00  0.00     0.328 A 
HETATM   20  H   UNL     1     -41.176 -50.632  10.891  1.00  0.00     0.173 HD
HETATM   21  N   UNL     1     -38.843 -51.146  13.070  1.00  0.00    -0.313 N 
HETATM   22  O   UNL     1     -39.148 -49.439  11.534  1.00  0.00    -0.246 OA
HETATM   23  C   UNL     1     -37.616 -50.573  13.605  1.00  0.00     0.160 C 
HETATM   24  C   UNL     1     -39.311 -52.325  13.614  1.00  0.00     0.109 A 
ENDBRANCH  14  15
ENDBRANCH   1  14
TORSDOF 4
ENDMDL
MODEL 7
REMARK VINA RESULT:      -6.0      1.084      2.631
REMARK  4 active torsions:
REMARK  status: ('A' for Active; 'I' for Inactive)
REMARK    1  A    between atoms: C_3  and  C_13 
REMARK    2  A    between atoms: C_9  and  C_18 
REMARK    3  A    between atoms: C_10  and  N_15 
REMARK    4  A    between atoms: C_13  and  N_15 
ROOT
HETATM    1  N   UNL     1     -41.559 -49.503  11.098  1.00  0.00    -0.274 NA
HETATM    2  H   UNL     1     -40.599 -49.670  10.811  1.00  0.00     0.129 HD
ENDROOT
BRANCH   1   3
HETATM    3  C   UNL     1     -41.848 -48.154  10.798  1.00  0.00     0.082 A 
HETATM    4  N   UNL     1     -40.961 -47.184  11.065  1.00  0.00    -0.336 N 
HETATM    5  C   UNL     1     -41.294 -45.920  10.730  1.00  0.00     0.085 A 
ATOM      6  HN  UNL     1     -40.065 -47.395  11.506  1.00  0.00     0.168 HD
HETATM    7  N   UNL     1     -42.458 -45.567  10.156  1.00  0.00    -0.355 N 
HETATM    8  C   UNL     1     -43.328 -46.559   9.922  1.00  0.00     0.092 A 
ATOM      9  HN  UNL     1     -42.667 -44.598   9.912  1.00  0.00     0.166 HD
HETATM   10  C   UNL     1     -43.072 -47.875  10.222  1.00  0.00     0.059 A 
BRANCH   5  11
HETATM   11  C   UNL     1     -40.268 -44.827  10.935  1.00  0.00     0.045 C 
HETATM   12  C   UNL     1     -39.548 -44.973  12.274  1.00  0.00     0.017 C 
HETATM   13  C   UNL     1     -39.276 -44.808   9.773  1.00  0.00     0.017 C 
ENDBRANCH   5  11
ENDBRANCH   1   3
BRANCH   1  14
HETATM   14  C   UNL     1     -41.766 -49.864  12.505  1.00  0.00     0.139 C 
BRANCH  14  15
HETATM   15  C   UNL     1     -42.788 -50.965  12.630  1.00  0.00     0.039 A 
HETATM   16  C   UNL     1     -42.333 -52.299  12.167  1.00  0.00     0.258 A 
HETATM   17  N   UNL     1     -43.239 -53.317  12.265  1.00  0.00    -0.275 N 
HETATM   18  O   UNL     1     -41.205 -52.481  11.718  1.00  0.00    -0.267 OA
HETATM   19  C   UNL     1     -44.510 -53.226  12.771  1.00  0.00     0.328 A 
HETATM   20  H   UNL     1     -42.943 -54.230  11.960  1.00  0.00     0.173 HD
HETATM   21  N   UNL     1     -44.887 -51.960  13.196  1.00  0.00    -0.313 N 
HETATM   22  O   UNL     1     -45.224 -54.222  12.827  1.00  0.00    -0.246 OA
HETATM   23  C   UNL     1     -46.212 -51.760  13.766  1.00  0.00     0.160 C 
HETATM   24  C   UNL     1     -44.035 -50.878  13.113  1.00  0.00     0.109 A 
ENDBRANCH  14  15
ENDBRANCH   1  14
TORSDOF 4
ENDMDL
MODEL 8
REMARK VINA RESULT:      -6.0      3.264      6.376
REMARK  4 active torsions:
REMARK  status: ('A' for Active; 'I' for Inactive)
REMARK    1  A    between atoms: C_3  and  C_13 
REMARK    2  A    between atoms: C_9  and  C_18 
REMARK    3  A    between atoms: C_10  and  N_15 
REMARK    4  A    between atoms: C_13  and  N_15 
ROOT
HETATM    1  N   UNL     1     -42.123 -52.473  11.589  1.00  0.00    -0.274 NA
HETATM    2  H   UNL     1     -42.300 -51.483  11.444  1.00  0.00     0.129 HD
ENDROOT
BRANCH   1   3
HETATM    3  C   UNL     1     -43.094 -52.935  12.503  1.00  0.00     0.082 A 
HETATM    4  N   UNL     1     -44.311 -52.373  12.557  1.00  0.00    -0.336 N 
HETATM    5  C   UNL     1     -45.197 -52.881  13.439  1.00  0.00     0.085 A 
ATOM      6  HN  UNL     1     -44.559 -51.590  11.952  1.00  0.00     0.168 HD
HETATM    7  N   UNL     1     -44.940 -53.904  14.273  1.00  0.00    -0.355 N 
HETATM    8  C   UNL     1     -43.707 -54.426  14.206  1.00  0.00     0.092 A 
ATOM      9  HN  UNL     1     -45.642 -54.261  14.921  1.00  0.00     0.166 HD
HETATM   10  C   UNL     1     -42.744 -53.980  13.335  1.00  0.00     0.059 A 
BRANCH   5  11
HETATM   11  C   UNL     1     -46.604 -52.325  13.446  1.00  0.00     0.045 C 
HETATM   12  C   UNL     1     -46.833 -51.382  14.626  1.00  0.00     0.017 C 
HETATM   13  C   UNL     1     -46.906 -51.632  12.118  1.00  0.00     0.017 C 
ENDBRANCH   5  11
ENDBRANCH   1   3
BRANCH   1  14
HETATM   14  C   UNL     1     -40.738 -52.712  12.011  1.00  0.00     0.139 C 
BRANCH  14  15
HETATM   15  C   UNL     1     -40.068 -51.419  12.401  1.00  0.00     0.039 A 
HETATM   16  C   UNL     1     -39.065 -51.535  13.488  1.00  0.00     0.258 A 
HETATM   17  N   UNL     1     -38.443 -50.378  13.865  1.00  0.00    -0.275 N 
HETATM   18  O   UNL     1     -38.808 -52.609  14.023  1.00  0.00    -0.267 OA
HETATM   19  C   UNL     1     -38.640 -49.136  13.319  1.00  0.00     0.328 A 
HETATM   20  H   UNL     1     -37.756 -50.441  14.598  1.00  0.00     0.173 HD
HETATM   21  N   UNL     1     -39.582 -49.080  12.303  1.00  0.00    -0.313 N 
HETATM   22  O   UNL     1     -38.000 -48.173  13.732  1.00  0.00    -0.246 OA
HETATM   23  C   UNL     1     -39.852 -47.809  11.644  1.00  0.00     0.160 C 
HETATM   24  C   UNL     1     -40.265 -50.201  11.878  1.00  0.00     0.109 A 
ENDBRANCH  14  15
ENDBRANCH   1  14
TORSDOF 4
ENDMDL
MODEL 9
REMARK VINA RESULT:      -5.8      2.886      4.522
REMARK  4 active torsions:
REMARK  status: ('A' for Active; 'I' for Inactive)
REMARK    1  A    between atoms: C_3  and  C_13 
REMARK    2  A    between atoms: C_9  and  C_18 
REMARK    3  A    between atoms: C_10  and  N_15 
REMARK    4  A    between atoms: C_13  and  N_15 
ROOT
HETATM    1  N   UNL     1     -42.126 -51.404  11.813  1.00  0.00    -0.274 NA
HETATM    2  H   UNL     1     -42.670 -51.396  10.955  1.00  0.00     0.129 HD
ENDROOT
BRANCH   1   3
HETATM    3  C   UNL     1     -41.168 -50.373  11.702  1.00  0.00     0.082 A 
HETATM    4  N   UNL     1     -39.858 -50.634  11.829  1.00  0.00    -0.336 N 
HETATM    5  C   UNL     1     -38.997 -49.604  11.687  1.00  0.00     0.085 A 
ATOM      6  HN  UNL     1     -39.524 -51.577  12.026  1.00  0.00     0.168 HD
HETATM    7  N   UNL     1     -39.364 -48.335  11.437  1.00  0.00    -0.355 N 
HETATM    8  C   UNL     1     -40.681 -48.108  11.336  1.00  0.00     0.092 A 
ATOM      9  HN  UNL     1     -38.678 -47.586  11.330  1.00  0.00     0.166 HD
HETATM   10  C   UNL     1     -41.629 -49.094  11.458  1.00  0.00     0.059 A 
BRANCH   5  11
HETATM   11  C   UNL     1     -37.514 -49.895  11.731  1.00  0.00     0.045 C 
HETATM   12  C   UNL     1     -37.195 -51.065  12.660  1.00  0.00     0.017 C 
HETATM   13  C   UNL     1     -36.982 -50.149  10.321  1.00  0.00     0.017 C 
ENDBRANCH   5  11
ENDBRANCH   1   3
BRANCH   1  14
HETATM   14  C   UNL     1     -41.553 -52.730  12.070  1.00  0.00     0.139 C 
BRANCH  14  15
HETATM   15  C   UNL     1     -42.133 -53.329  13.326  1.00  0.00     0.039 A 
HETATM   16  C   UNL     1     -43.546 -53.767  13.219  1.00  0.00     0.258 A 
HETATM   17  N   UNL     1     -44.099 -54.311  14.344  1.00  0.00    -0.275 N 
HETATM   18  O   UNL     1     -44.187 -53.647  12.179  1.00  0.00    -0.267 OA
HETATM   19  C   UNL     1     -43.467 -54.511  15.544  1.00  0.00     0.328 A 
HETATM   20  H   UNL     1     -45.056 -54.619  14.286  1.00  0.00     0.173 HD
HETATM   21  N   UNL     1     -42.146 -54.090  15.593  1.00  0.00    -0.313 N 
HETATM   22  O   UNL     1     -44.069 -55.032  16.478  1.00  0.00    -0.246 OA
HETATM   23  C   UNL     1     -41.380 -54.274  16.818  1.00  0.00     0.160 C 
HETATM   24  C   UNL     1     -41.522 -53.516  14.505  1.00  0.00     0.109 A 
ENDBRANCH  14  15
ENDBRANCH   1  14
TORSDOF 4
ENDMDL
