MODEL 1
REMARK VINA RESULT:      -6.8      0.000      0.000
REMARK  4 active torsions:
REMARK  status: ('A' for Active; 'I' for Inactive)
REMARK    1  A    between atoms: C_4  and  N_5 
REMARK       I    between atoms: N_5  and  C_6 
REMARK       I    between atoms: C_6  and  N_8 
REMARK    2  A    between atoms: N_8  and  C_9 
REMARK    3  A    between atoms: C_9  and  C_10 
REMARK    4  A    between atoms: C_10  and  N_11 
ROOT
HETATM    1  N   UNL     1     -40.916 -51.119  11.245  1.00  0.00    -0.293 N 
HETATM    2  C   UNL     1     -41.518 -51.768  12.358  1.00  0.00     0.321 C 
HETATM    3  O   UNL     1     -41.834 -51.176  13.376  1.00  0.00    -0.247 OA
HETATM    4  N   UNL     1     -41.711 -53.100  12.138  1.00  0.00    -0.341 N 
HETATM    5  H   UNL     1     -40.718 -51.658  10.416  1.00  0.00     0.172 HD
HETATM    6  H   UNL     1     -41.314 -53.579  11.344  1.00  0.00     0.164 HD
ENDROOT
BRANCH   1   7
HETATM    7  C   UNL     1     -40.609 -49.757  11.250  1.00  0.00     0.127 A 
HETATM    8  C   UNL     1     -41.446 -48.706  10.939  1.00  0.00     0.076 A 
HETATM    9  C   UNL     1     -40.678 -47.533  11.087  1.00  0.00     0.025 A 
HETATM   10  C   UNL     1     -41.122 -46.136  10.866  1.00  0.00     0.070 C 
HETATM   11  N   UNL     1     -39.430 -47.815  11.472  1.00  0.00    -0.302 N 
HETATM   12  N   UNL     1     -39.408 -49.160  11.569  1.00  0.00    -0.281 N 
ATOM     13  HN  UNL     1     -38.668 -47.162  11.651  1.00  0.00     0.186 HD
HETATM   14  C   UNL     1     -38.171 -49.781  11.971  1.00  0.00     0.179 C 
ENDBRANCH   1   7
BRANCH   4  15
HETATM   15  C   UNL     1     -42.241 -53.867  13.254  1.00  0.00     0.144 C 
BRANCH  15  16
HETATM   16  C   UNL     1     -43.730 -54.187  13.164  1.00  0.00     0.145 C 
BRANCH  16  17
HETATM   17  N   UNL     1     -44.578 -53.180  13.811  1.00  0.00    -0.351 N 
HETATM   18  C   UNL     1     -44.615 -53.192  15.276  1.00  0.00     0.126 C 
HETATM   19  C   UNL     1     -44.567 -51.816  15.914  1.00  0.00     0.020 C 
HETATM   20  C   UNL     1     -45.937 -51.160  16.057  1.00  0.00     0.002 C 
HETATM   21  C   UNL     1     -46.894 -51.388  14.890  1.00  0.00     0.009 C 
HETATM   22  C   UNL     1     -46.221 -51.322  13.532  1.00  0.00     0.103 C 
HETATM   23  C   UNL     1     -45.596 -52.620  13.046  1.00  0.00     0.219 C 
HETATM   24  O   UNL     1     -45.899 -53.080  11.944  1.00  0.00    -0.273 OA
ENDBRANCH  16  17
ENDBRANCH  15  16
ENDBRANCH   4  15
TORSDOF 4
ENDMDL
MODEL 2
REMARK VINA RESULT:      -6.7      1.637      2.375
REMARK  4 active torsions:
REMARK  status: ('A' for Active; 'I' for Inactive)
REMARK    1  A    between atoms: C_4  and  N_5 
REMARK       I    between atoms: N_5  and  C_6 
REMARK       I    between atoms: C_6  and  N_8 
REMARK    2  A    between atoms: N_8  and  C_9 
REMARK    3  A    between atoms: C_9  and  C_10 
REMARK    4  A    between atoms: C_10  and  N_11 
ROOT
HETATM    1  N   UNL     1     -41.109 -49.048  10.674  1.00  0.00    -0.293 N 
HETATM    2  C   UNL     1     -41.606 -49.832  11.751  1.00  0.00     0.321 C 
HETATM    3  O   UNL     1     -42.199 -49.348  12.700  1.00  0.00    -0.247 OA
HETATM    4  N   UNL     1     -41.358 -51.162  11.581  1.00  0.00    -0.341 N 
HETATM    5  H   UNL     1     -40.664 -49.513   9.898  1.00  0.00     0.172 HD
HETATM    6  H   UNL     1     -40.747 -51.509  10.858  1.00  0.00     0.164 HD
ENDROOT
BRANCH   1   7
HETATM    7  C   UNL     1     -41.234 -47.657  10.641  1.00  0.00     0.127 A 
HETATM    8  C   UNL     1     -40.302 -46.721  11.034  1.00  0.00     0.076 A 
HETATM    9  C   UNL     1     -40.892 -45.459  10.812  1.00  0.00     0.025 A 
HETATM   10  C   UNL     1     -40.294 -44.129  11.078  1.00  0.00     0.070 C 
HETATM   11  N   UNL     1     -42.122 -45.582  10.305  1.00  0.00    -0.302 N 
HETATM   12  N   UNL     1     -42.309 -46.914  10.205  1.00  0.00    -0.281 N 
ATOM     13  HN  UNL     1     -42.772 -44.837  10.052  1.00  0.00     0.186 HD
HETATM   14  C   UNL     1     -43.571 -47.374   9.681  1.00  0.00     0.179 C 
ENDBRANCH   1   7
BRANCH   4  15
HETATM   15  C   UNL     1     -41.751 -52.035  12.676  1.00  0.00     0.144 C 
BRANCH  15  16
HETATM   16  C   UNL     1     -43.103 -52.720  12.497  1.00  0.00     0.145 C 
BRANCH  16  17
HETATM   17  N   UNL     1     -44.140 -52.194  13.391  1.00  0.00    -0.351 N 
HETATM   18  C   UNL     1     -43.765 -52.004  14.795  1.00  0.00     0.126 C 
HETATM   19  C   UNL     1     -44.276 -50.714  15.409  1.00  0.00     0.020 C 
HETATM   20  C   UNL     1     -45.687 -50.827  15.980  1.00  0.00     0.002 C 
HETATM   21  C   UNL     1     -46.656 -51.678  15.164  1.00  0.00     0.009 C 
HETATM   22  C   UNL     1     -46.518 -51.486  13.666  1.00  0.00     0.103 C 
HETATM   23  C   UNL     1     -45.463 -52.347  12.989  1.00  0.00     0.219 C 
HETATM   24  O   UNL     1     -45.765 -53.056  12.027  1.00  0.00    -0.273 OA
ENDBRANCH  16  17
ENDBRANCH  15  16
ENDBRANCH   4  15
TORSDOF 4
ENDMDL
MODEL 3
REMARK VINA RESULT:      -6.5      2.335      3.457
REMARK  4 active torsions:
REMARK  status: ('A' for Active; 'I' for Inactive)
REMARK    1  A    between atoms: C_4  and  N_5 
REMARK       I    between atoms: N_5  and  C_6 
REMARK       I    between atoms: C_6  and  N_8 
REMARK    2  A    between atoms: N_8  and  C_9 
REMARK    3  A    between atoms: C_9  and  C_10 
REMARK    4  A    between atoms: C_10  and  N_11 
ROOT
HETATM    1  N   UNL     1     -40.985 -49.167  10.460  1.00  0.00    -0.293 N 
HETATM    2  C   UNL     1     -41.144 -49.926  11.652  1.00  0.00     0.321 C 
HETATM    3  O   UNL     1     -41.896 -49.593  12.551  1.00  0.00    -0.247 OA
HETATM    4  N   UNL     1     -40.381 -51.058  11.651  1.00  0.00    -0.341 N 
HETATM    5  H   UNL     1     -40.378 -49.520   9.736  1.00  0.00     0.172 HD
HETATM    6  H   UNL     1     -39.671 -51.229  10.956  1.00  0.00     0.164 HD
ENDROOT
BRANCH   1   7
HETATM    7  C   UNL     1     -41.655 -47.961  10.246  1.00  0.00     0.127 A 
HETATM    8  C   UNL     1     -42.831 -47.765   9.554  1.00  0.00     0.076 A 
HETATM    9  C   UNL     1     -43.098 -46.382   9.614  1.00  0.00     0.025 A 
HETATM   10  C   UNL     1     -44.251 -45.664   9.018  1.00  0.00     0.070 C 
HETATM   11  N   UNL     1     -42.155 -45.735  10.303  1.00  0.00    -0.302 N 
HETATM   12  N   UNL     1     -41.295 -46.703  10.680  1.00  0.00    -0.281 N 
ATOM     13  HN  UNL     1     -42.097 -44.736  10.500  1.00  0.00     0.186 HD
HETATM   14  C   UNL     1     -40.144 -46.311  11.455  1.00  0.00     0.179 C 
ENDBRANCH   1   7
BRANCH   4  15
HETATM   15  C   UNL     1     -40.410 -51.854  12.867  1.00  0.00     0.144 C 
BRANCH  15  16
HETATM   16  C   UNL     1     -40.719 -53.334  12.658  1.00  0.00     0.145 C 
BRANCH  16  17
HETATM   17  N   UNL     1     -41.994 -53.747  13.255  1.00  0.00    -0.351 N 
HETATM   18  C   UNL     1     -43.197 -53.053  12.786  1.00  0.00     0.126 C 
HETATM   19  C   UNL     1     -44.391 -53.961  12.553  1.00  0.00     0.020 C 
HETATM   20  C   UNL     1     -45.228 -54.203  13.806  1.00  0.00     0.002 C 
HETATM   21  C   UNL     1     -44.435 -54.361  15.100  1.00  0.00     0.009 C 
HETATM   22  C   UNL     1     -43.164 -55.173  14.937  1.00  0.00     0.103 C 
HETATM   23  C   UNL     1     -41.940 -54.390  14.487  1.00  0.00     0.219 C 
HETATM   24  O   UNL     1     -40.896 -54.443  15.140  1.00  0.00    -0.273 OA
ENDBRANCH  16  17
ENDBRANCH  15  16
ENDBRANCH   4  15
TORSDOF 4
ENDMDL
MODEL 4
REMARK VINA RESULT:      -6.3      2.307      7.269
REMARK  4 active torsions:
REMARK  status: ('A' for Active; 'I' for Inactive)
REMARK    1  A    between atoms: C_4  and  N_5 
REMARK       I    between atoms: N_5  and  C_6 
REMARK       I    between atoms: C_6  and  N_8 
REMARK    2  A    between atoms: N_8  and  C_9 
REMARK    3  A    between atoms: C_9  and  C_10 
REMARK    4  A    between atoms: C_10  and  N_11 
ROOT
HETATM    1  N   UNL     1     -42.014 -52.330  11.620  1.00  0.00    -0.293 N 
HETATM    2  C   UNL     1     -41.464 -51.092  12.052  1.00  0.00     0.321 C 
HETATM    3  O   UNL     1     -41.548 -50.699  13.203  1.00  0.00    -0.247 OA
HETATM    4  N   UNL     1     -40.831 -50.426  11.045  1.00  0.00    -0.341 N 
HETATM    5  H   UNL     1     -41.873 -52.617  10.664  1.00  0.00     0.172 HD
HETATM    6  H   UNL     1     -40.901 -50.713  10.081  1.00  0.00     0.164 HD
ENDROOT
BRANCH   1   7
HETATM    7  C   UNL     1     -42.722 -53.174  12.477  1.00  0.00     0.127 A 
HETATM    8  C   UNL     1     -44.082 -53.400  12.500  1.00  0.00     0.076 A 
HETATM    9  C   UNL     1     -44.311 -54.324  13.540  1.00  0.00     0.025 A 
HETATM   10  C   UNL     1     -45.614 -54.887  13.970  1.00  0.00     0.070 C 
HETATM   11  N   UNL     1     -43.170 -54.670  14.142  1.00  0.00    -0.302 N 
HETATM   12  N   UNL     1     -42.222 -53.970  13.486  1.00  0.00    -0.281 N 
ATOM     13  HN  UNL     1     -43.045 -55.316  14.921  1.00  0.00     0.186 HD
HETATM   14  C   UNL     1     -40.856 -54.131  13.914  1.00  0.00     0.179 C 
ENDBRANCH   1   7
BRANCH   4  15
HETATM   15  C   UNL     1     -40.313 -49.106  11.370  1.00  0.00     0.144 C 
BRANCH  15  16
HETATM   16  C   UNL     1     -41.240 -47.947  11.014  1.00  0.00     0.145 C 
BRANCH  16  17
HETATM   17  N   UNL     1     -40.731 -46.644  11.454  1.00  0.00    -0.351 N 
HETATM   18  C   UNL     1     -40.474 -46.487  12.888  1.00  0.00     0.126 C 
HETATM   19  C   UNL     1     -39.188 -45.751  13.216  1.00  0.00     0.020 C 
HETATM   20  C   UNL     1     -39.345 -44.234  13.254  1.00  0.00     0.002 C 
HETATM   21  C   UNL     1     -40.268 -43.646  12.190  1.00  0.00     0.009 C 
HETATM   22  C   UNL     1     -40.123 -44.305  10.831  1.00  0.00     0.103 C 
HETATM   23  C   UNL     1     -40.959 -45.557  10.617  1.00  0.00     0.219 C 
HETATM   24  O   UNL     1     -41.714 -45.640   9.646  1.00  0.00    -0.273 OA
ENDBRANCH  16  17
ENDBRANCH  15  16
ENDBRANCH   4  15
TORSDOF 4
ENDMDL
MODEL 5
REMARK VINA RESULT:      -6.2      2.439      6.901
REMARK  4 active torsions:
REMARK  status: ('A' for Active; 'I' for Inactive)
REMARK    1  A    between atoms: C_4  and  N_5 
REMARK       I    between atoms: N_5  and  C_6 
REMARK       I    between atoms: C_6  and  N_8 
REMARK    2  A    between atoms: N_8  and  C_9 
REMARK    3  A    between atoms: C_9  and  C_10 
REMARK    4  A    between atoms: C_10  and  N_11 
ROOT
HETATM    1  N   UNL     1     -41.969 -52.641  11.769  1.00  0.00    -0.293 N 
HETATM    2  C   UNL     1     -41.434 -51.377  12.141  1.00  0.00     0.321 C 
HETATM    3  O   UNL     1     -41.610 -50.884  13.241  1.00  0.00    -0.247 OA
HETATM    4  N   UNL     1     -40.702 -50.809  11.139  1.00  0.00    -0.341 N 
HETATM    5  H   UNL     1     -41.751 -53.012  10.857  1.00  0.00     0.172 HD
HETATM    6  H   UNL     1     -40.695 -51.179  10.201  1.00  0.00     0.164 HD
ENDROOT
BRANCH   1   7
HETATM    7  C   UNL     1     -42.765 -53.399  12.630  1.00  0.00     0.127 A 
HETATM    8  C   UNL     1     -44.125 -53.607  12.551  1.00  0.00     0.076 A 
HETATM    9  C   UNL     1     -44.463 -54.433  13.642  1.00  0.00     0.025 A 
HETATM   10  C   UNL     1     -45.809 -54.942  14.001  1.00  0.00     0.070 C 
HETATM   11  N   UNL     1     -43.386 -54.736  14.373  1.00  0.00    -0.302 N 
HETATM   12  N   UNL     1     -42.371 -54.107  13.745  1.00  0.00    -0.281 N 
ATOM     13  HN  UNL     1     -43.342 -55.312  15.213  1.00  0.00     0.186 HD
HETATM   14  C   UNL     1     -41.051 -54.244  14.306  1.00  0.00     0.179 C 
ENDBRANCH   1   7
BRANCH   4  15
HETATM   15  C   UNL     1     -40.189 -49.473  11.394  1.00  0.00     0.144 C 
BRANCH  15  16
HETATM   16  C   UNL     1     -38.693 -49.405  11.689  1.00  0.00     0.145 C 
BRANCH  16  17
HETATM   17  N   UNL     1     -38.380 -49.521  13.117  1.00  0.00    -0.351 N 
HETATM   18  C   UNL     1     -37.893 -48.311  13.785  1.00  0.00     0.126 C 
HETATM   19  C   UNL     1     -38.482 -48.079  15.165  1.00  0.00     0.020 C 
HETATM   20  C   UNL     1     -37.724 -48.792  16.280  1.00  0.00     0.002 C 
HETATM   21  C   UNL     1     -37.211 -50.187  15.933  1.00  0.00     0.009 C 
HETATM   22  C   UNL     1     -38.190 -51.006  15.114  1.00  0.00     0.103 C 
HETATM   23  C   UNL     1     -38.123 -50.796  13.609  1.00  0.00     0.219 C 
HETATM   24  O   UNL     1     -37.976 -51.759  12.854  1.00  0.00    -0.273 OA
ENDBRANCH  16  17
ENDBRANCH  15  16
ENDBRANCH   4  15
TORSDOF 4
ENDMDL
MODEL 6
REMARK VINA RESULT:      -6.2      2.297      3.924
REMARK  4 active torsions:
REMARK  status: ('A' for Active; 'I' for Inactive)
REMARK    1  A    between atoms: C_4  and  N_5 
REMARK       I    between atoms: N_5  and  C_6 
REMARK       I    between atoms: C_6  and  N_8 
REMARK    2  A    between atoms: N_8  and  C_9 
REMARK    3  A    between atoms: C_9  and  C_10 
REMARK    4  A    between atoms: C_10  and  N_11 
ROOT
HETATM    1  N   UNL     1     -41.215 -48.164  10.284  1.00  0.00    -0.293 N 
HETATM    2  C   UNL     1     -41.351 -49.153  11.297  1.00  0.00     0.321 C 
HETATM    3  O   UNL     1     -42.088 -49.015  12.259  1.00  0.00    -0.247 OA
HETATM    4  N   UNL     1     -40.585 -50.254  11.052  1.00  0.00    -0.341 N 
HETATM    5  H   UNL     1     -40.621 -48.357   9.493  1.00  0.00     0.172 HD
HETATM    6  H   UNL     1     -39.887 -50.275  10.325  1.00  0.00     0.164 HD
ENDROOT
BRANCH   1   7
HETATM    7  C   UNL     1     -41.893 -46.945  10.333  1.00  0.00     0.127 A 
HETATM    8  C   UNL     1     -41.520 -45.803  11.009  1.00  0.00     0.076 A 
HETATM    9  C   UNL     1     -42.525 -44.847  10.755  1.00  0.00     0.025 A 
HETATM   10  C   UNL     1     -42.588 -43.454  11.260  1.00  0.00     0.070 C 
HETATM   11  N   UNL     1     -43.480 -45.346   9.965  1.00  0.00    -0.302 N 
HETATM   12  N   UNL     1     -43.080 -46.610   9.718  1.00  0.00    -0.281 N 
ATOM     13  HN  UNL     1     -44.320 -44.877   9.627  1.00  0.00     0.186 HD
HETATM   14  C   UNL     1     -43.921 -47.424   8.877  1.00  0.00     0.179 C 
ENDBRANCH   1   7
BRANCH   4  15
HETATM   15  C   UNL     1     -40.589 -51.283  12.080  1.00  0.00     0.144 C 
BRANCH  15  16
HETATM   16  C   UNL     1     -41.412 -52.523  11.743  1.00  0.00     0.145 C 
BRANCH  16  17
HETATM   17  N   UNL     1     -41.827 -53.280  12.929  1.00  0.00    -0.351 N 
HETATM   18  C   UNL     1     -40.815 -54.139  13.550  1.00  0.00     0.126 C 
HETATM   19  C   UNL     1     -40.802 -54.093  15.068  1.00  0.00     0.020 C 
HETATM   20  C   UNL     1     -41.780 -55.068  15.717  1.00  0.00     0.002 C 
HETATM   21  C   UNL     1     -43.122 -55.219  15.005  1.00  0.00     0.009 C 
HETATM   22  C   UNL     1     -43.679 -53.910  14.479  1.00  0.00     0.103 C 
HETATM   23  C   UNL     1     -43.191 -53.495  13.100  1.00  0.00     0.219 C 
HETATM   24  O   UNL     1     -44.000 -53.233  12.208  1.00  0.00    -0.273 OA
ENDBRANCH  16  17
ENDBRANCH  15  16
ENDBRANCH   4  15
TORSDOF 4
ENDMDL
MODEL 7
REMARK VINA RESULT:      -6.0      2.410      6.634
REMARK  4 active torsions:
REMARK  status: ('A' for Active; 'I' for Inactive)
REMARK    1  A    between atoms: C_4  and  N_5 
REMARK       I    between atoms: N_5  and  C_6 
REMARK       I    between atoms: C_6  and  N_8 
REMARK    2  A    between atoms: N_8  and  C_9 
REMARK    3  A    between atoms: C_9  and  C_10 
REMARK    4  A    between atoms: C_10  and  N_11 
ROOT
HETATM    1  N   UNL     1     -41.989 -52.381  11.650  1.00  0.00    -0.293 N 
HETATM    2  C   UNL     1     -41.597 -51.060  12.002  1.00  0.00     0.321 C 
HETATM    3  O   UNL     1     -41.844 -50.568  13.090  1.00  0.00    -0.247 OA
HETATM    4  N   UNL     1     -40.911 -50.438  11.001  1.00  0.00    -0.341 N 
HETATM    5  H   UNL     1     -41.717 -52.745  10.749  1.00  0.00     0.172 HD
HETATM    6  H   UNL     1     -40.847 -50.823  10.072  1.00  0.00     0.164 HD
ENDROOT
BRANCH   1   7
HETATM    7  C   UNL     1     -42.717 -53.202  12.513  1.00  0.00     0.127 A 
HETATM    8  C   UNL     1     -44.073 -53.447  12.494  1.00  0.00     0.076 A 
HETATM    9  C   UNL     1     -44.329 -54.333  13.561  1.00  0.00     0.025 A 
HETATM   10  C   UNL     1     -45.639 -54.898  13.964  1.00  0.00     0.070 C 
HETATM   11  N   UNL     1     -43.207 -54.637  14.219  1.00  0.00    -0.302 N 
HETATM   12  N   UNL     1     -42.245 -53.949  13.570  1.00  0.00    -0.281 N 
ATOM     13  HN  UNL     1     -43.102 -55.250  15.027  1.00  0.00     0.186 HD
HETATM   14  C   UNL     1     -40.893 -54.073  14.055  1.00  0.00     0.179 C 
ENDBRANCH   1   7
BRANCH   4  15
HETATM   15  C   UNL     1     -40.546 -49.050  11.237  1.00  0.00     0.144 C 
BRANCH  15  16
HETATM   16  C   UNL     1     -41.512 -48.024  10.651  1.00  0.00     0.145 C 
BRANCH  16  17
HETATM   17  N   UNL     1     -41.833 -46.937  11.581  1.00  0.00    -0.351 N 
HETATM   18  C   UNL     1     -42.923 -47.182  12.530  1.00  0.00     0.126 C 
HETATM   19  C   UNL     1     -42.648 -46.688  13.939  1.00  0.00     0.020 C 
HETATM   20  C   UNL     1     -43.018 -45.224  14.156  1.00  0.00     0.002 C 
HETATM   21  C   UNL     1     -42.713 -44.293  12.986  1.00  0.00     0.009 C 
HETATM   22  C   UNL     1     -41.391 -44.589  12.304  1.00  0.00     0.103 C 
HETATM   23  C   UNL     1     -41.438 -45.654  11.219  1.00  0.00     0.219 C 
HETATM   24  O   UNL     1     -41.009 -45.407  10.090  1.00  0.00    -0.273 OA
ENDBRANCH  16  17
ENDBRANCH  15  16
ENDBRANCH   4  15
TORSDOF 4
ENDMDL
MODEL 8
REMARK VINA RESULT:      -6.0      3.831      6.962
REMARK  4 active torsions:
REMARK  status: ('A' for Active; 'I' for Inactive)
REMARK    1  A    between atoms: C_4  and  N_5 
REMARK       I    between atoms: N_5  and  C_6 
REMARK       I    between atoms: C_6  and  N_8 
REMARK    2  A    between atoms: N_8  and  C_9 
REMARK    3  A    between atoms: C_9  and  C_10 
REMARK    4  A    between atoms: C_10  and  N_11 
ROOT
HETATM    1  N   UNL     1     -40.473 -50.038  10.858  1.00  0.00    -0.293 N 
HETATM    2  C   UNL     1     -41.481 -49.051  11.031  1.00  0.00     0.321 C 
HETATM    3  O   UNL     1     -42.085 -48.901  12.079  1.00  0.00    -0.247 OA
HETATM    4  N   UNL     1     -41.669 -48.300   9.908  1.00  0.00    -0.341 N 
HETATM    5  H   UNL     1     -39.982 -50.083   9.979  1.00  0.00     0.172 HD
HETATM    6  H   UNL     1     -41.253 -48.541   9.022  1.00  0.00     0.164 HD
ENDROOT
BRANCH   1   7
HETATM    7  C   UNL     1     -40.122 -50.934  11.869  1.00  0.00     0.127 A 
HETATM    8  C   UNL     1     -40.768 -52.100  12.221  1.00  0.00     0.076 A 
HETATM    9  C   UNL     1     -40.039 -52.648  13.295  1.00  0.00     0.025 A 
HETATM   10  C   UNL     1     -40.330 -53.902  14.032  1.00  0.00     0.070 C 
HETATM   11  N   UNL     1     -38.990 -51.883  13.610  1.00  0.00    -0.302 N 
HETATM   12  N   UNL     1     -39.054 -50.857  12.737  1.00  0.00    -0.281 N 
ATOM     13  HN  UNL     1     -38.298 -52.039  14.343  1.00  0.00     0.186 HD
HETATM   14  C   UNL     1     -38.036 -49.839  12.826  1.00  0.00     0.179 C 
ENDBRANCH   1   7
BRANCH   4  15
HETATM   15  C   UNL     1     -42.743 -47.321   9.960  1.00  0.00     0.144 C 
BRANCH  15  16
HETATM   16  C   UNL     1     -42.292 -45.866   9.861  1.00  0.00     0.145 C 
BRANCH  16  17
HETATM   17  N   UNL     1     -41.541 -45.413  11.036  1.00  0.00    -0.351 N 
HETATM   18  C   UNL     1     -42.309 -45.199  12.266  1.00  0.00     0.126 C 
HETATM   19  C   UNL     1     -41.629 -45.709  13.524  1.00  0.00     0.020 C 
HETATM   20  C   UNL     1     -40.671 -44.700  14.151  1.00  0.00     0.002 C 
HETATM   21  C   UNL     1     -39.849 -43.877  13.162  1.00  0.00     0.009 C 
HETATM   22  C   UNL     1     -39.349 -44.679  11.976  1.00  0.00     0.103 C 
HETATM   23  C   UNL     1     -40.316 -44.796  10.808  1.00  0.00     0.219 C 
HETATM   24  O   UNL     1     -39.961 -44.471   9.674  1.00  0.00    -0.273 OA
ENDBRANCH  16  17
ENDBRANCH  15  16
ENDBRANCH   4  15
TORSDOF 4
ENDMDL
MODEL 9
REMARK VINA RESULT:      -5.9      2.702      4.299
REMARK  4 active torsions:
REMARK  status: ('A' for Active; 'I' for Inactive)
REMARK    1  A    between atoms: C_4  and  N_5 
REMARK       I    between atoms: N_5  and  C_6 
REMARK       I    between atoms: C_6  and  N_8 
REMARK    2  A    between atoms: N_8  and  C_9 
REMARK    3  A    between atoms: C_9  and  C_10 
REMARK    4  A    between atoms: C_10  and  N_11 
ROOT
HETATM    1  N   UNL     1     -41.586 -49.408  10.937  1.00  0.00    -0.293 N 
HETATM    2  C   UNL     1     -42.260 -49.928  12.075  1.00  0.00     0.321 C 
HETATM    3  O   UNL     1     -42.768 -49.216  12.924  1.00  0.00    -0.247 OA
HETATM    4  N   UNL     1     -42.283 -51.292  12.086  1.00  0.00    -0.341 N 
HETATM    5  H   UNL     1     -41.225 -50.051  10.249  1.00  0.00     0.172 HD
HETATM    6  H   UNL     1     -41.737 -51.845  11.444  1.00  0.00     0.164 HD
ENDROOT
BRANCH   1   7
HETATM    7  C   UNL     1     -41.425 -48.038  10.724  1.00  0.00     0.127 A 
HETATM    8  C   UNL     1     -40.419 -47.226  11.202  1.00  0.00     0.076 A 
HETATM    9  C   UNL     1     -40.695 -45.929  10.721  1.00  0.00     0.025 A 
HETATM   10  C   UNL     1     -39.907 -44.696  10.960  1.00  0.00     0.070 C 
HETATM   11  N   UNL     1     -41.805 -45.914   9.979  1.00  0.00    -0.302 N 
HETATM   12  N   UNL     1     -42.229 -47.194   9.988  1.00  0.00    -0.281 N 
ATOM     13  HN  UNL     1     -42.235 -45.116   9.511  1.00  0.00     0.186 HD
HETATM   14  C   UNL     1     -43.434 -47.505   9.260  1.00  0.00     0.179 C 
ENDBRANCH   1   7
BRANCH   4  15
HETATM   15  C   UNL     1     -42.875 -51.918  13.258  1.00  0.00     0.144 C 
BRANCH  15  16
HETATM   16  C   UNL     1     -42.810 -53.442  13.273  1.00  0.00     0.145 C 
BRANCH  16  17
HETATM   17  N   UNL     1     -41.689 -53.965  14.061  1.00  0.00    -0.351 N 
HETATM   18  C   UNL     1     -41.875 -54.026  15.513  1.00  0.00     0.126 C 
HETATM   19  C   UNL     1     -41.351 -55.297  16.157  1.00  0.00     0.020 C 
HETATM   20  C   UNL     1     -39.871 -55.231  16.523  1.00  0.00     0.002 C 
HETATM   21  C   UNL     1     -38.982 -54.505  15.517  1.00  0.00     0.009 C 
HETATM   22  C   UNL     1     -39.336 -54.798  14.072  1.00  0.00     0.103 C 
HETATM   23  C   UNL     1     -40.428 -53.925  13.474  1.00  0.00     0.219 C 
HETATM   24  O   UNL     1     -40.225 -53.309  12.426  1.00  0.00    -0.273 OA
ENDBRANCH  16  17
ENDBRANCH  15  16
ENDBRANCH   4  15
TORSDOF 4
ENDMDL
