MODEL 1
REMARK VINA RESULT:      -6.4      0.000      0.000
REMARK  6 active torsions:
REMARK  status: ('A' for Active; 'I' for Inactive)
REMARK    1  A    between atoms: C_6  and  N_7 
REMARK       I    between atoms: N_7  and  C_8 
REMARK       I    between atoms: C_8  and  N_10 
REMARK    2  A    between atoms: N_10  and  C_11 
REMARK    3  A    between atoms: C_11  and  C_12 
REMARK    4  A    between atoms: N_15  and  C_16 
REMARK    5  A    between atoms: C_16  and  C_17 
REMARK    6  A    between atoms: C_17  and  O_18 
ROOT
HETATM    1  N   UNL     1     -40.304 -48.787  11.014  1.00  0.00    -0.295 N 
HETATM    2  C   UNL     1     -40.074 -50.056  11.469  1.00  0.00     0.321 C 
HETATM    3  O   UNL     1     -38.931 -50.414  11.754  1.00  0.00    -0.247 OA
HETATM    4  N   UNL     1     -41.173 -50.831  11.650  1.00  0.00    -0.342 N 
HETATM    5  H   UNL     1     -39.481 -48.204  11.008  1.00  0.00     0.172 HD
HETATM    6  H   UNL     1     -42.031 -50.459  11.246  1.00  0.00     0.164 HD
ENDROOT
BRANCH   4   7
HETATM    7  C   UNL     1     -41.211 -52.135  12.251  1.00  0.00     0.129 C 
BRANCH   7   8
HETATM    8  C   UNL     1     -42.095 -52.129  13.509  1.00  0.00     0.007 C 
HETATM    9  C   UNL     1     -41.911 -53.386  14.388  1.00  0.00     0.036 C 
HETATM   10  C   UNL     1     -42.769 -54.589  13.970  1.00  0.00     0.273 C 
HETATM   11  N   UNL     1     -44.181 -54.260  13.691  1.00  0.00     0.090 N 
HETATM   12  C   UNL     1     -44.221 -53.218  12.656  1.00  0.00     0.273 C 
HETATM   13  C   UNL     1     -43.562 -51.918  13.110  1.00  0.00     0.036 C 
BRANCH  11  14
HETATM   14  C   UNL     1     -44.907 -53.906  14.936  1.00  0.00     0.298 C 
BRANCH  14  15
HETATM   15  C   UNL     1     -46.430 -54.109  14.847  1.00  0.00     0.194 C 
BRANCH  15  16
HETATM   16  O   UNL     1     -46.735 -55.431  14.416  1.00  0.00    -0.399 OA
HETATM   17  H   UNL     1     -46.787 -55.377  13.441  1.00  0.00     0.209 HD
ENDBRANCH  15  16
ENDBRANCH  14  15
ENDBRANCH  11  14
ENDBRANCH   7   8
ENDBRANCH   4   7
BRANCH   1  18
HETATM   18  C   UNL     1     -41.537 -48.222  10.666  1.00  0.00     0.109 A 
HETATM   19  C   UNL     1     -42.317 -47.646  11.652  1.00  0.00     0.049 A 
HETATM   20  C   UNL     1     -43.561 -47.128  11.295  1.00  0.00     0.006 A 
HETATM   21  C   UNL     1     -43.977 -47.178   9.966  1.00  0.00     0.025 A 
HETATM   22  C   UNL     1     -43.131 -47.747   9.029  1.00  0.00     0.007 A 
HETATM   23  C   UNL     1     -43.503 -47.875   7.585  1.00  0.00     0.068 C 
HETATM   24  N   UNL     1     -41.936 -48.272   9.375  1.00  0.00    -0.346 N 
ATOM     25  HN  UNL     1     -41.339 -48.702   8.668  1.00  0.00     0.167 HD
ENDBRANCH   1  18
TORSDOF 6
ENDMDL
MODEL 2
REMARK VINA RESULT:      -6.2      2.792      6.807
REMARK  6 active torsions:
REMARK  status: ('A' for Active; 'I' for Inactive)
REMARK    1  A    between atoms: C_6  and  N_7 
REMARK       I    between atoms: N_7  and  C_8 
REMARK       I    between atoms: C_8  and  N_10 
REMARK    2  A    between atoms: N_10  and  C_11 
REMARK    3  A    between atoms: C_11  and  C_12 
REMARK    4  A    between atoms: N_15  and  C_16 
REMARK    5  A    between atoms: C_16  and  C_17 
REMARK    6  A    between atoms: C_17  and  O_18 
ROOT
HETATM    1  N   UNL     1     -43.094 -52.916  12.637  1.00  0.00    -0.295 N 
HETATM    2  C   UNL     1     -41.999 -52.195  12.249  1.00  0.00     0.321 C 
HETATM    3  O   UNL     1     -40.957 -52.770  11.935  1.00  0.00    -0.247 OA
HETATM    4  N   UNL     1     -42.173 -50.851  12.162  1.00  0.00    -0.342 N 
HETATM    5  H   UNL     1     -42.964 -53.914  12.573  1.00  0.00     0.172 HD
HETATM    6  H   UNL     1     -43.034 -50.503  12.581  1.00  0.00     0.164 HD
ENDROOT
BRANCH   4   7
HETATM    7  C   UNL     1     -41.233 -49.899  11.641  1.00  0.00     0.129 C 
BRANCH   7   8
HETATM    8  C   UNL     1     -41.349 -48.558  12.385  1.00  0.00     0.007 C 
HETATM    9  C   UNL     1     -42.809 -48.073  12.539  1.00  0.00     0.036 C 
HETATM   10  C   UNL     1     -43.351 -47.286  11.337  1.00  0.00     0.273 C 
HETATM   11  N   UNL     1     -42.431 -46.251  10.824  1.00  0.00     0.090 N 
HETATM   12  C   UNL     1     -41.153 -46.890  10.483  1.00  0.00     0.273 C 
HETATM   13  C   UNL     1     -40.465 -47.507  11.699  1.00  0.00     0.036 C 
BRANCH  11  14
HETATM   14  C   UNL     1     -42.308 -45.121  11.778  1.00  0.00     0.298 C 
BRANCH  14  15
HETATM   15  C   UNL     1     -42.655 -43.751  11.169  1.00  0.00     0.194 C 
BRANCH  15  16
HETATM   16  O   UNL     1     -43.503 -43.907  10.035  1.00  0.00    -0.399 OA
HETATM   17  H   UNL     1     -43.713 -44.862  10.003  1.00  0.00     0.209 HD
ENDBRANCH  15  16
ENDBRANCH  14  15
ENDBRANCH  11  14
ENDBRANCH   7   8
ENDBRANCH   4   7
BRANCH   1  18
HETATM   18  C   UNL     1     -44.350 -52.420  13.006  1.00  0.00     0.109 A 
HETATM   19  C   UNL     1     -44.583 -52.090  14.328  1.00  0.00     0.049 A 
HETATM   20  C   UNL     1     -45.853 -51.639  14.685  1.00  0.00     0.006 A 
HETATM   21  C   UNL     1     -46.842 -51.510  13.712  1.00  0.00     0.025 A 
HETATM   22  C   UNL     1     -46.527 -51.835  12.403  1.00  0.00     0.007 A 
HETATM   23  C   UNL     1     -47.530 -51.759  11.295  1.00  0.00     0.068 C 
HETATM   24  N   UNL     1     -45.306 -52.295  12.057  1.00  0.00    -0.346 N 
ATOM     25  HN  UNL     1     -45.105 -52.545  11.089  1.00  0.00     0.167 HD
ENDBRANCH   1  18
TORSDOF 6
ENDMDL
MODEL 3
REMARK VINA RESULT:      -6.1      1.804      2.385
REMARK  6 active torsions:
REMARK  status: ('A' for Active; 'I' for Inactive)
REMARK    1  A    between atoms: C_6  and  N_7 
REMARK       I    between atoms: N_7  and  C_8 
REMARK       I    between atoms: C_8  and  N_10 
REMARK    2  A    between atoms: N_10  and  C_11 
REMARK    3  A    between atoms: C_11  and  C_12 
REMARK    4  A    between atoms: N_15  and  C_16 
REMARK    5  A    between atoms: C_16  and  C_17 
REMARK    6  A    between atoms: C_17  and  O_18 
ROOT
HETATM    1  N   UNL     1     -41.831 -48.131   9.743  1.00  0.00    -0.295 N 
HETATM    2  C   UNL     1     -41.588 -48.890  10.854  1.00  0.00     0.321 C 
HETATM    3  O   UNL     1     -40.490 -49.425  11.012  1.00  0.00    -0.247 OA
HETATM    4  N   UNL     1     -42.587 -48.938  11.772  1.00  0.00    -0.342 N 
HETATM    5  H   UNL     1     -41.026 -48.020   9.145  1.00  0.00     0.172 HD
HETATM    6  H   UNL     1     -43.480 -48.568  11.450  1.00  0.00     0.164 HD
ENDROOT
BRANCH   4   7
HETATM    7  C   UNL     1     -42.524 -49.538  13.074  1.00  0.00     0.129 C 
BRANCH   7   8
HETATM    8  C   UNL     1     -43.763 -50.413  13.330  1.00  0.00     0.007 C 
HETATM    9  C   UNL     1     -44.174 -50.464  14.819  1.00  0.00     0.036 C 
HETATM   10  C   UNL     1     -43.436 -51.524  15.649  1.00  0.00     0.273 C 
HETATM   11  N   UNL     1     -43.357 -52.851  15.008  1.00  0.00     0.090 N 
HETATM   12  C   UNL     1     -42.721 -52.697  13.692  1.00  0.00     0.273 C 
HETATM   13  C   UNL     1     -43.536 -51.816  12.749  1.00  0.00     0.036 C 
BRANCH  11  14
HETATM   14  C   UNL     1     -44.688 -53.507  14.963  1.00  0.00     0.298 C 
BRANCH  14  15
HETATM   15  C   UNL     1     -44.687 -54.872  14.251  1.00  0.00     0.194 C 
BRANCH  15  16
HETATM   16  O   UNL     1     -45.635 -54.884  13.189  1.00  0.00    -0.399 OA
HETATM   17  H   UNL     1     -45.264 -55.496  12.522  1.00  0.00     0.209 HD
ENDBRANCH  15  16
ENDBRANCH  14  15
ENDBRANCH  11  14
ENDBRANCH   7   8
ENDBRANCH   4   7
BRANCH   1  18
HETATM   18  C   UNL     1     -43.010 -47.446   9.424  1.00  0.00     0.109 A 
HETATM   19  C   UNL     1     -42.995 -46.064   9.379  1.00  0.00     0.049 A 
HETATM   20  C   UNL     1     -44.188 -45.397   9.104  1.00  0.00     0.006 A 
HETATM   21  C   UNL     1     -45.350 -46.127   8.861  1.00  0.00     0.025 A 
HETATM   22  C   UNL     1     -45.282 -47.510   8.898  1.00  0.00     0.007 A 
HETATM   23  C   UNL     1     -46.482 -48.378   8.681  1.00  0.00     0.068 C 
HETATM   24  N   UNL     1     -44.134 -48.159   9.188  1.00  0.00    -0.346 N 
ATOM     25  HN  UNL     1     -44.115 -49.178   9.227  1.00  0.00     0.167 HD
ENDBRANCH   1  18
TORSDOF 6
ENDMDL
MODEL 4
REMARK VINA RESULT:      -6.0      2.661      6.712
REMARK  6 active torsions:
REMARK  status: ('A' for Active; 'I' for Inactive)
REMARK    1  A    between atoms: C_6  and  N_7 
REMARK       I    between atoms: N_7  and  C_8 
REMARK       I    between atoms: C_8  and  N_10 
REMARK    2  A    between atoms: N_10  and  C_11 
REMARK    3  A    between atoms: C_11  and  C_12 
REMARK    4  A    between atoms: N_15  and  C_16 
REMARK    5  A    between atoms: C_16  and  C_17 
REMARK    6  A    between atoms: C_17  and  O_18 
ROOT
HETATM    1  N   UNL     1     -43.419 -53.813  13.161  1.00  0.00    -0.295 N 
HETATM    2  C   UNL     1     -42.113 -53.419  13.070  1.00  0.00     0.321 C 
HETATM    3  O   UNL     1     -41.226 -54.251  12.878  1.00  0.00    -0.247 OA
HETATM    4  N   UNL     1     -41.890 -52.081  13.125  1.00  0.00    -0.342 N 
HETATM    5  H   UNL     1     -43.557 -54.798  12.994  1.00  0.00     0.172 HD
HETATM    6  H   UNL     1     -42.690 -51.526  13.424  1.00  0.00     0.164 HD
ENDROOT
BRANCH   4   7
HETATM    7  C   UNL     1     -40.637 -51.413  12.907  1.00  0.00     0.129 C 
BRANCH   7   8
HETATM    8  C   UNL     1     -40.731 -50.461  11.703  1.00  0.00     0.007 C 
HETATM    9  C   UNL     1     -39.410 -49.713  11.415  1.00  0.00     0.036 C 
HETATM   10  C   UNL     1     -39.214 -48.426  12.231  1.00  0.00     0.273 C 
HETATM   11  N   UNL     1     -40.399 -47.547  12.272  1.00  0.00     0.090 N 
HETATM   12  C   UNL     1     -41.534 -48.317  12.797  1.00  0.00     0.273 C 
HETATM   13  C   UNL     1     -41.908 -49.494  11.899  1.00  0.00     0.036 C 
BRANCH  11  14
HETATM   14  C   UNL     1     -40.651 -46.922  10.949  1.00  0.00     0.298 C 
BRANCH  14  15
HETATM   15  C   UNL     1     -40.240 -45.441  10.872  1.00  0.00     0.194 C 
BRANCH  15  16
HETATM   16  O   UNL     1     -39.946 -45.072   9.528  1.00  0.00    -0.399 OA
HETATM   17  H   UNL     1     -38.971 -45.103   9.462  1.00  0.00     0.209 HD
ENDBRANCH  15  16
ENDBRANCH  14  15
ENDBRANCH  11  14
ENDBRANCH   7   8
ENDBRANCH   4   7
BRANCH   1  18
HETATM   18  C   UNL     1     -44.539 -52.996  13.358  1.00  0.00     0.109 A 
HETATM   19  C   UNL     1     -44.825 -52.540  14.631  1.00  0.00     0.049 A 
HETATM   20  C   UNL     1     -45.969 -51.765  14.817  1.00  0.00     0.006 A 
HETATM   21  C   UNL     1     -46.778 -51.451  13.727  1.00  0.00     0.025 A 
HETATM   22  C   UNL     1     -46.414 -51.923  12.476  1.00  0.00     0.007 A 
HETATM   23  C   UNL     1     -47.235 -51.665  11.252  1.00  0.00     0.068 C 
HETATM   24  N   UNL     1     -45.320 -52.693  12.296  1.00  0.00    -0.346 N 
ATOM     25  HN  UNL     1     -45.085 -53.044  11.368  1.00  0.00     0.167 HD
ENDBRANCH   1  18
TORSDOF 6
ENDMDL
MODEL 5
REMARK VINA RESULT:      -5.9      2.007      2.930
REMARK  6 active torsions:
REMARK  status: ('A' for Active; 'I' for Inactive)
REMARK    1  A    between atoms: C_6  and  N_7 
REMARK       I    between atoms: N_7  and  C_8 
REMARK       I    between atoms: C_8  and  N_10 
REMARK    2  A    between atoms: N_10  and  C_11 
REMARK    3  A    between atoms: C_11  and  C_12 
REMARK    4  A    between atoms: N_15  and  C_16 
REMARK    5  A    between atoms: C_16  and  C_17 
REMARK    6  A    between atoms: C_17  and  O_18 
ROOT
HETATM    1  N   UNL     1     -37.900 -49.601  12.146  1.00  0.00    -0.295 N 
HETATM    2  C   UNL     1     -37.994 -50.909  12.532  1.00  0.00     0.321 C 
HETATM    3  O   UNL     1     -37.018 -51.654  12.443  1.00  0.00    -0.247 OA
HETATM    4  N   UNL     1     -39.180 -51.284  13.076  1.00  0.00    -0.342 N 
HETATM    5  H   UNL     1     -36.972 -49.329  11.860  1.00  0.00     0.172 HD
HETATM    6  H   UNL     1     -39.935 -50.611  12.961  1.00  0.00     0.164 HD
ENDROOT
BRANCH   4   7
HETATM    7  C   UNL     1     -39.478 -52.549  13.688  1.00  0.00     0.129 C 
BRANCH   7   8
HETATM    8  C   UNL     1     -40.595 -53.275  12.919  1.00  0.00     0.007 C 
HETATM    9  C   UNL     1     -41.454 -52.325  12.055  1.00  0.00     0.036 C 
HETATM   10  C   UNL     1     -42.612 -51.651  12.807  1.00  0.00     0.273 C 
HETATM   11  N   UNL     1     -43.403 -52.567  13.651  1.00  0.00     0.090 N 
HETATM   12  C   UNL     1     -42.496 -53.230  14.598  1.00  0.00     0.273 C 
HETATM   13  C   UNL     1     -41.450 -54.093  13.897  1.00  0.00     0.036 C 
BRANCH  11  14
HETATM   14  C   UNL     1     -44.205 -53.503  12.825  1.00  0.00     0.298 C 
BRANCH  14  15
HETATM   15  C   UNL     1     -45.725 -53.284  12.934  1.00  0.00     0.194 C 
BRANCH  15  16
HETATM   16  O   UNL     1     -46.234 -52.699  11.740  1.00  0.00    -0.399 OA
HETATM   17  H   UNL     1     -46.320 -51.745  11.940  1.00  0.00     0.209 HD
ENDBRANCH  15  16
ENDBRANCH  14  15
ENDBRANCH  11  14
ENDBRANCH   7   8
ENDBRANCH   4   7
BRANCH   1  18
HETATM   18  C   UNL     1     -38.904 -48.626  12.199  1.00  0.00     0.109 A 
HETATM   19  C   UNL     1     -38.908 -47.719  13.242  1.00  0.00     0.049 A 
HETATM   20  C   UNL     1     -39.940 -46.783  13.304  1.00  0.00     0.006 A 
HETATM   21  C   UNL     1     -40.920 -46.768  12.315  1.00  0.00     0.025 A 
HETATM   22  C   UNL     1     -40.837 -47.692  11.286  1.00  0.00     0.007 A 
HETATM   23  C   UNL     1     -41.860 -47.772  10.197  1.00  0.00     0.068 C 
HETATM   24  N   UNL     1     -39.853 -48.614  11.236  1.00  0.00    -0.346 N 
ATOM     25  HN  UNL     1     -39.825 -49.295  10.477  1.00  0.00     0.167 HD
ENDBRANCH   1  18
TORSDOF 6
ENDMDL
MODEL 6
REMARK VINA RESULT:      -5.9      2.242      2.837
REMARK  6 active torsions:
REMARK  status: ('A' for Active; 'I' for Inactive)
REMARK    1  A    between atoms: C_6  and  N_7 
REMARK       I    between atoms: N_7  and  C_8 
REMARK       I    between atoms: C_8  and  N_10 
REMARK    2  A    between atoms: N_10  and  C_11 
REMARK    3  A    between atoms: C_11  and  C_12 
REMARK    4  A    between atoms: N_15  and  C_16 
REMARK    5  A    between atoms: C_16  and  C_17 
REMARK    6  A    between atoms: C_17  and  O_18 
ROOT
HETATM    1  N   UNL     1     -40.324 -50.752  11.301  1.00  0.00    -0.295 N 
HETATM    2  C   UNL     1     -41.154 -51.730  11.773  1.00  0.00     0.321 C 
HETATM    3  O   UNL     1     -40.752 -52.890  11.872  1.00  0.00    -0.247 OA
HETATM    4  N   UNL     1     -42.383 -51.322  12.182  1.00  0.00    -0.342 N 
HETATM    5  H   UNL     1     -39.384 -51.070  11.121  1.00  0.00     0.172 HD
HETATM    6  H   UNL     1     -42.628 -50.370  11.914  1.00  0.00     0.164 HD
ENDROOT
BRANCH   4   7
HETATM    7  C   UNL     1     -43.373 -52.123  12.846  1.00  0.00     0.129 C 
BRANCH   7   8
HETATM    8  C   UNL     1     -44.381 -51.232  13.591  1.00  0.00     0.007 C 
HETATM    9  C   UNL     1     -44.236 -51.305  15.128  1.00  0.00     0.036 C 
HETATM   10  C   UNL     1     -44.997 -52.465  15.787  1.00  0.00     0.273 C 
HETATM   11  N   UNL     1     -46.385 -52.629  15.312  1.00  0.00     0.090 N 
HETATM   12  C   UNL     1     -46.362 -52.795  13.852  1.00  0.00     0.273 C 
HETATM   13  C   UNL     1     -45.807 -51.569  13.133  1.00  0.00     0.036 C 
BRANCH  11  14
HETATM   14  C   UNL     1     -47.249 -51.517  15.781  1.00  0.00     0.298 C 
BRANCH  14  15
HETATM   15  C   UNL     1     -47.272 -51.349  17.310  1.00  0.00     0.194 C 
BRANCH  15  16
HETATM   16  O   UNL     1     -48.597 -51.498  17.811  1.00  0.00    -0.399 OA
HETATM   17  H   UNL     1     -48.869 -50.599  18.084  1.00  0.00     0.209 HD
ENDBRANCH  15  16
ENDBRANCH  14  15
ENDBRANCH  11  14
ENDBRANCH   7   8
ENDBRANCH   4   7
BRANCH   1  18
HETATM   18  C   UNL     1     -40.619 -49.392  11.144  1.00  0.00     0.109 A 
HETATM   19  C   UNL     1     -39.840 -48.454  11.795  1.00  0.00     0.049 A 
HETATM   20  C   UNL     1     -40.175 -47.107  11.663  1.00  0.00     0.006 A 
HETATM   21  C   UNL     1     -41.260 -46.737  10.871  1.00  0.00     0.025 A 
HETATM   22  C   UNL     1     -41.978 -47.731  10.228  1.00  0.00     0.007 A 
HETATM   23  C   UNL     1     -43.176 -47.435   9.381  1.00  0.00     0.068 C 
HETATM   24  N   UNL     1     -41.672 -49.038  10.372  1.00  0.00    -0.346 N 
ATOM     25  HN  UNL     1     -42.229 -49.752   9.903  1.00  0.00     0.167 HD
ENDBRANCH   1  18
TORSDOF 6
ENDMDL
MODEL 7
REMARK VINA RESULT:      -5.7      3.613      4.788
REMARK  6 active torsions:
REMARK  status: ('A' for Active; 'I' for Inactive)
REMARK    1  A    between atoms: C_6  and  N_7 
REMARK       I    between atoms: N_7  and  C_8 
REMARK       I    between atoms: C_8  and  N_10 
REMARK    2  A    between atoms: N_10  and  C_11 
REMARK    3  A    between atoms: C_11  and  C_12 
REMARK    4  A    between atoms: N_15  and  C_16 
REMARK    5  A    between atoms: C_16  and  C_17 
REMARK    6  A    between atoms: C_17  and  O_18 
ROOT
HETATM    1  N   UNL     1     -42.994 -49.977  13.298  1.00  0.00    -0.295 N 
HETATM    2  C   UNL     1     -41.888 -50.597  12.787  1.00  0.00     0.321 C 
HETATM    3  O   UNL     1     -40.853 -49.959  12.595  1.00  0.00    -0.247 OA
HETATM    4  N   UNL     1     -41.994 -51.936  12.592  1.00  0.00    -0.342 N 
HETATM    5  H   UNL     1     -42.840 -49.011  13.543  1.00  0.00     0.172 HD
HETATM    6  H   UNL     1     -42.941 -52.304  12.660  1.00  0.00     0.164 HD
ENDROOT
BRANCH   4   7
HETATM    7  C   UNL     1     -40.938 -52.830  12.208  1.00  0.00     0.129 C 
BRANCH   7   8
HETATM    8  C   UNL     1     -41.046 -54.159  12.974  1.00  0.00     0.007 C 
HETATM    9  C   UNL     1     -42.311 -54.251  13.857  1.00  0.00     0.036 C 
HETATM   10  C   UNL     1     -42.162 -53.628  15.253  1.00  0.00     0.273 C 
HETATM   11  N   UNL     1     -40.918 -54.002  15.955  1.00  0.00     0.090 N 
HETATM   12  C   UNL     1     -39.775 -53.636  15.107  1.00  0.00     0.273 C 
HETATM   13  C   UNL     1     -39.763 -54.397  13.784  1.00  0.00     0.036 C 
BRANCH  11  14
HETATM   14  C   UNL     1     -40.938 -55.429  16.362  1.00  0.00     0.298 C 
BRANCH  14  15
HETATM   15  C   UNL     1     -39.755 -55.837  17.258  1.00  0.00     0.194 C 
BRANCH  15  16
HETATM   16  O   UNL     1     -38.893 -56.738  16.571  1.00  0.00    -0.399 OA
HETATM   17  H   UNL     1     -38.705 -57.452  17.213  1.00  0.00     0.209 HD
ENDBRANCH  15  16
ENDBRANCH  14  15
ENDBRANCH  11  14
ENDBRANCH   7   8
ENDBRANCH   4   7
BRANCH   1  18
HETATM   18  C   UNL     1     -44.234 -50.559  13.589  1.00  0.00     0.109 A 
HETATM   19  C   UNL     1     -44.576 -50.792  14.909  1.00  0.00     0.049 A 
HETATM   20  C   UNL     1     -45.795 -51.413  15.178  1.00  0.00     0.006 A 
HETATM   21  C   UNL     1     -46.643 -51.760  14.129  1.00  0.00     0.025 A 
HETATM   22  C   UNL     1     -46.244 -51.472  12.834  1.00  0.00     0.007 A 
HETATM   23  C   UNL     1     -47.072 -51.835  11.641  1.00  0.00     0.068 C 
HETATM   24  N   UNL     1     -45.054 -50.893  12.567  1.00  0.00    -0.346 N 
ATOM     25  HN  UNL     1     -44.776 -50.709  11.603  1.00  0.00     0.167 HD
ENDBRANCH   1  18
TORSDOF 6
ENDMDL
MODEL 8
REMARK VINA RESULT:      -5.6      2.675      6.908
REMARK  6 active torsions:
REMARK  status: ('A' for Active; 'I' for Inactive)
REMARK    1  A    between atoms: C_6  and  N_7 
REMARK       I    between atoms: N_7  and  C_8 
REMARK       I    between atoms: C_8  and  N_10 
REMARK    2  A    between atoms: N_10  and  C_11 
REMARK    3  A    between atoms: C_11  and  C_12 
REMARK    4  A    between atoms: N_15  and  C_16 
REMARK    5  A    between atoms: C_16  and  C_17 
REMARK    6  A    between atoms: C_17  and  O_18 
ROOT
HETATM    1  N   UNL     1     -43.202 -53.935  13.795  1.00  0.00    -0.295 N 
HETATM    2  C   UNL     1     -41.908 -53.527  13.626  1.00  0.00     0.321 C 
HETATM    3  O   UNL     1     -40.989 -54.344  13.672  1.00  0.00    -0.247 OA
HETATM    4  N   UNL     1     -41.733 -52.212  13.335  1.00  0.00    -0.342 N 
HETATM    5  H   UNL     1     -43.302 -54.934  13.889  1.00  0.00     0.172 HD
HETATM    6  H   UNL     1     -42.559 -51.632  13.465  1.00  0.00     0.164 HD
ENDROOT
BRANCH   4   7
HETATM    7  C   UNL     1     -40.498 -51.575  12.972  1.00  0.00     0.129 C 
BRANCH   7   8
HETATM    8  C   UNL     1     -40.712 -50.607  11.795  1.00  0.00     0.007 C 
HETATM    9  C   UNL     1     -39.450 -49.788  11.445  1.00  0.00     0.036 C 
HETATM   10  C   UNL     1     -39.270 -48.507  12.274  1.00  0.00     0.273 C 
HETATM   11  N   UNL     1     -40.493 -47.691  12.403  1.00  0.00     0.090 N 
HETATM   12  C   UNL     1     -41.554 -48.527  12.978  1.00  0.00     0.273 C 
HETATM   13  C   UNL     1     -41.921 -49.705  12.079  1.00  0.00     0.036 C 
BRANCH  11  14
HETATM   14  C   UNL     1     -40.855 -47.056  11.111  1.00  0.00     0.298 C 
BRANCH  14  15
HETATM   15  C   UNL     1     -40.188 -45.689  10.880  1.00  0.00     0.194 C 
BRANCH  15  16
HETATM   16  O   UNL     1     -40.453 -45.218   9.562  1.00  0.00    -0.399 OA
HETATM   17  H   UNL     1     -41.287 -44.711   9.635  1.00  0.00     0.209 HD
ENDBRANCH  15  16
ENDBRANCH  14  15
ENDBRANCH  11  14
ENDBRANCH   7   8
ENDBRANCH   4   7
BRANCH   1  18
HETATM   18  C   UNL     1     -44.354 -53.140  13.754  1.00  0.00     0.109 A 
HETATM   19  C   UNL     1     -45.043 -53.013  12.562  1.00  0.00     0.049 A 
HETATM   20  C   UNL     1     -46.163 -52.183  12.528  1.00  0.00     0.006 A 
HETATM   21  C   UNL     1     -46.573 -51.525  13.686  1.00  0.00     0.025 A 
HETATM   22  C   UNL     1     -45.848 -51.722  14.850  1.00  0.00     0.007 A 
HETATM   23  C   UNL     1     -46.193 -51.036  16.135  1.00  0.00     0.068 C 
HETATM   24  N   UNL     1     -44.750 -52.506  14.881  1.00  0.00    -0.346 N 
ATOM     25  HN  UNL     1     -44.222 -52.619  15.747  1.00  0.00     0.167 HD
ENDBRANCH   1  18
TORSDOF 6
ENDMDL
MODEL 9
REMARK VINA RESULT:      -5.6      3.495      6.769
REMARK  6 active torsions:
REMARK  status: ('A' for Active; 'I' for Inactive)
REMARK    1  A    between atoms: C_6  and  N_7 
REMARK       I    between atoms: N_7  and  C_8 
REMARK       I    between atoms: C_8  and  N_10 
REMARK    2  A    between atoms: N_10  and  C_11 
REMARK    3  A    between atoms: C_11  and  C_12 
REMARK    4  A    between atoms: N_15  and  C_16 
REMARK    5  A    between atoms: C_16  and  C_17 
REMARK    6  A    between atoms: C_17  and  O_18 
ROOT
HETATM    1  N   UNL     1     -44.689 -54.729  15.187  1.00  0.00    -0.295 N 
HETATM    2  C   UNL     1     -43.346 -54.835  15.420  1.00  0.00     0.321 C 
HETATM    3  O   UNL     1     -42.837 -55.937  15.627  1.00  0.00    -0.247 OA
HETATM    4  N   UNL     1     -42.634 -53.683  15.329  1.00  0.00    -0.342 N 
HETATM    5  H   UNL     1     -45.163 -55.618  15.144  1.00  0.00     0.172 HD
HETATM    6  H   UNL     1     -43.197 -52.834  15.292  1.00  0.00     0.164 HD
ENDROOT
BRANCH   4   7
HETATM    7  C   UNL     1     -41.205 -53.554  15.384  1.00  0.00     0.129 C 
BRANCH   7   8
HETATM    8  C   UNL     1     -40.631 -53.270  13.986  1.00  0.00     0.007 C 
HETATM    9  C   UNL     1     -39.109 -53.001  13.997  1.00  0.00     0.036 C 
HETATM   10  C   UNL     1     -38.720 -51.545  14.290  1.00  0.00     0.273 C 
HETATM   11  N   UNL     1     -39.496 -50.545  13.531  1.00  0.00     0.090 N 
HETATM   12  C   UNL     1     -40.924 -50.757  13.802  1.00  0.00     0.273 C 
HETATM   13  C   UNL     1     -41.411 -52.124  13.328  1.00  0.00     0.036 C 
BRANCH  11  14
HETATM   14  C   UNL     1     -39.143 -50.571  12.089  1.00  0.00     0.298 C 
BRANCH  14  15
HETATM   15  C   UNL     1     -37.646 -50.344  11.811  1.00  0.00     0.194 C 
BRANCH  15  16
HETATM   16  O   UNL     1     -37.431 -50.050  10.434  1.00  0.00    -0.399 OA
HETATM   17  H   UNL     1     -36.474 -50.191  10.289  1.00  0.00     0.209 HD
ENDBRANCH  15  16
ENDBRANCH  14  15
ENDBRANCH  11  14
ENDBRANCH   7   8
ENDBRANCH   4   7
BRANCH   1  18
HETATM   18  C   UNL     1     -45.414 -53.562  14.920  1.00  0.00     0.109 A 
HETATM   19  C   UNL     1     -45.834 -52.773  15.976  1.00  0.00     0.049 A 
HETATM   20  C   UNL     1     -46.594 -51.638  15.694  1.00  0.00     0.006 A 
HETATM   21  C   UNL     1     -46.890 -51.313  14.372  1.00  0.00     0.025 A 
HETATM   22  C   UNL     1     -46.413 -52.137  13.366  1.00  0.00     0.007 A 
HETATM   23  C   UNL     1     -46.706 -51.888  11.919  1.00  0.00     0.068 C 
HETATM   24  N   UNL     1     -45.698 -53.250  13.635  1.00  0.00    -0.346 N 
ATOM     25  HN  UNL     1     -45.375 -53.850  12.877  1.00  0.00     0.167 HD
ENDBRANCH   1  18
TORSDOF 6
ENDMDL
