MODEL 1
REMARK VINA RESULT:      -6.6      0.000      0.000
REMARK  6 active torsions:
REMARK  status: ('A' for Active; 'I' for Inactive)
REMARK    1  A    between atoms: O_1  and  C_2 
REMARK    2  A    between atoms: C_2  and  C_3 
REMARK    3  A    between atoms: N_12  and  C_13 
REMARK    4  A    between atoms: C_13  and  C_14 
REMARK    5  A    between atoms: C_14  and  O_15 
REMARK    6  A    between atoms: C_14  and  C_16 
ROOT
HETATM    1  C   UNL     1     -38.891 -49.950  12.022  1.00  0.00     0.108 A 
HETATM    2  N   UNL     1     -38.980 -48.756  11.467  1.00  0.00    -0.342 N 
ATOM      3  HN  UNL     1     -38.214 -48.196  11.090  1.00  0.00     0.167 HD
HETATM    4  C   UNL     1     -40.307 -48.420  11.497  1.00  0.00     0.060 A 
HETATM    5  C   UNL     1     -40.942 -47.268  11.009  1.00  0.00     0.032 A 
HETATM    6  C   UNL     1     -42.329 -47.149  11.150  1.00  0.00     0.002 A 
HETATM    7  C   UNL     1     -43.068 -48.157  11.768  1.00  0.00     0.002 A 
HETATM    8  C   UNL     1     -42.451 -49.314  12.260  1.00  0.00     0.032 A 
HETATM    9  C   UNL     1     -41.061 -49.416  12.109  1.00  0.00     0.062 A 
HETATM   10  N   UNL     1     -40.133 -50.381  12.449  1.00  0.00    -0.330 N 
ENDROOT
BRANCH  10  11
HETATM   11  C   UNL     1     -40.441 -51.661  13.069  1.00  0.00     0.167 C 
BRANCH  11  12
HETATM   12  C   UNL     1     -41.231 -52.615  12.155  1.00  0.00     0.169 C 
BRANCH  12  13
HETATM   13  O   UNL     1     -40.443 -53.713  11.693  1.00  0.00    -0.389 OA
HETATM   14  H   UNL     1     -40.721 -53.943  10.794  1.00  0.00     0.210 HD
ENDBRANCH  12  13
BRANCH  12  15
HETATM   15  C   UNL     1     -42.482 -53.215  12.780  1.00  0.00    -0.028 A 
HETATM   16  C   UNL     1     -43.740 -52.847  12.270  1.00  0.00     0.011 A 
HETATM   17  C   UNL     1     -44.919 -53.370  12.809  1.00  0.00     0.024 A 
HETATM   18  C   UNL     1     -44.853 -54.281  13.858  1.00  0.00     0.034 A 
HETATM   19 CL   UNL     1     -46.302 -54.916  14.536  1.00  0.00    -0.084 Cl
HETATM   20  C   UNL     1     -43.619 -54.682  14.360  1.00  0.00     0.024 A 
HETATM   21  C   UNL     1     -42.438 -54.160  13.819  1.00  0.00     0.011 A 
ENDBRANCH  12  15
ENDBRANCH  11  12
ENDBRANCH  10  11
BRANCH   1  22
HETATM   22  C   UNL     1     -37.620 -50.708  12.186  1.00  0.00     0.240 C 
BRANCH  22  23
HETATM   23  O   UNL     1     -37.216 -51.181  10.909  1.00  0.00    -0.393 OA
HETATM   24  H   UNL     1     -36.355 -51.615  11.037  1.00  0.00     0.209 HD
ENDBRANCH  22  23
ENDBRANCH   1  22
TORSDOF 6
ENDMDL
MODEL 2
REMARK VINA RESULT:      -6.4      3.435      5.872
REMARK  6 active torsions:
REMARK  status: ('A' for Active; 'I' for Inactive)
REMARK    1  A    between atoms: O_1  and  C_2 
REMARK    2  A    between atoms: C_2  and  C_3 
REMARK    3  A    between atoms: N_12  and  C_13 
REMARK    4  A    between atoms: C_13  and  C_14 
REMARK    5  A    between atoms: C_14  and  O_15 
REMARK    6  A    between atoms: C_14  and  C_16 
ROOT
HETATM    1  C   UNL     1     -42.395 -53.407  13.010  1.00  0.00     0.108 A 
HETATM    2  N   UNL     1     -43.451 -53.488  12.223  1.00  0.00    -0.342 N 
ATOM      3  HN  UNL     1     -43.512 -53.972  11.326  1.00  0.00     0.167 HD
HETATM    4  C   UNL     1     -44.449 -52.792  12.852  1.00  0.00     0.060 A 
HETATM    5  C   UNL     1     -45.780 -52.594  12.454  1.00  0.00     0.032 A 
HETATM    6  C   UNL     1     -46.627 -51.844  13.276  1.00  0.00     0.002 A 
HETATM    7  C   UNL     1     -46.157 -51.299  14.470  1.00  0.00     0.002 A 
HETATM    8  C   UNL     1     -44.832 -51.487  14.884  1.00  0.00     0.032 A 
HETATM    9  C   UNL     1     -43.998 -52.243  14.048  1.00  0.00     0.062 A 
HETATM   10  N   UNL     1     -42.676 -52.639  14.123  1.00  0.00    -0.330 N 
ENDROOT
BRANCH  10  11
HETATM   11  C   UNL     1     -41.778 -52.357  15.233  1.00  0.00     0.167 C 
BRANCH  11  12
HETATM   12  C   UNL     1     -41.175 -50.941  15.196  1.00  0.00     0.169 C 
BRANCH  12  13
HETATM   13  O   UNL     1     -40.498 -50.600  16.406  1.00  0.00    -0.389 OA
HETATM   14  H   UNL     1     -41.125 -50.655  17.143  1.00  0.00     0.210 HD
ENDBRANCH  12  13
BRANCH  12  15
HETATM   15  C   UNL     1     -40.188 -50.693  14.065  1.00  0.00    -0.028 A 
HETATM   16  C   UNL     1     -38.896 -51.241  14.160  1.00  0.00     0.011 A 
HETATM   17  C   UNL     1     -37.951 -51.042  13.149  1.00  0.00     0.024 A 
HETATM   18  C   UNL     1     -38.294 -50.304  12.021  1.00  0.00     0.034 A 
HETATM   19 CL   UNL     1     -37.130 -50.043  10.780  1.00  0.00    -0.084 Cl
HETATM   20  C   UNL     1     -39.575 -49.777  11.891  1.00  0.00     0.024 A 
HETATM   21  C   UNL     1     -40.521 -49.978  12.903  1.00  0.00     0.011 A 
ENDBRANCH  12  15
ENDBRANCH  11  12
ENDBRANCH  10  11
BRANCH   1  22
HETATM   22  C   UNL     1     -41.078 -54.038  12.717  1.00  0.00     0.240 C 
BRANCH  22  23
HETATM   23  O   UNL     1     -40.514 -53.386  11.587  1.00  0.00    -0.393 OA
HETATM   24  H   UNL     1     -39.884 -54.015  11.196  1.00  0.00     0.209 HD
ENDBRANCH  22  23
ENDBRANCH   1  22
TORSDOF 6
ENDMDL
MODEL 3
REMARK VINA RESULT:      -6.3      2.836      5.847
REMARK  6 active torsions:
REMARK  status: ('A' for Active; 'I' for Inactive)
REMARK    1  A    between atoms: O_1  and  C_2 
REMARK    2  A    between atoms: C_2  and  C_3 
REMARK    3  A    between atoms: N_12  and  C_13 
REMARK    4  A    between atoms: C_13  and  C_14 
REMARK    5  A    between atoms: C_14  and  O_15 
REMARK    6  A    between atoms: C_14  and  C_16 
ROOT
HETATM    1  C   UNL     1     -40.746 -54.254  14.109  1.00  0.00     0.108 A 
HETATM    2  N   UNL     1     -41.600 -54.848  14.921  1.00  0.00    -0.342 N 
ATOM      3  HN  UNL     1     -41.377 -55.389  15.757  1.00  0.00     0.167 HD
HETATM    4  C   UNL     1     -42.847 -54.589  14.416  1.00  0.00     0.060 A 
HETATM    5  C   UNL     1     -44.102 -54.967  14.917  1.00  0.00     0.032 A 
HETATM    6  C   UNL     1     -45.253 -54.576  14.223  1.00  0.00     0.002 A 
HETATM    7  C   UNL     1     -45.153 -53.825  13.052  1.00  0.00     0.002 A 
HETATM    8  C   UNL     1     -43.909 -53.439  12.538  1.00  0.00     0.032 A 
HETATM    9  C   UNL     1     -42.767 -53.839  13.248  1.00  0.00     0.062 A 
HETATM   10  N   UNL     1     -41.412 -53.646  13.062  1.00  0.00    -0.330 N 
ENDROOT
BRANCH  10  11
HETATM   11  C   UNL     1     -40.815 -52.862  11.992  1.00  0.00     0.167 C 
BRANCH  11  12
HETATM   12  C   UNL     1     -40.274 -51.497  12.455  1.00  0.00     0.169 C 
BRANCH  12  13
HETATM   13  O   UNL     1     -38.953 -51.237  11.976  1.00  0.00    -0.389 OA
HETATM   14  H   UNL     1     -38.605 -52.043  11.565  1.00  0.00     0.210 HD
ENDBRANCH  12  13
BRANCH  12  15
HETATM   15  C   UNL     1     -41.121 -50.299  12.051  1.00  0.00    -0.028 A 
HETATM   16  C   UNL     1     -40.663 -49.461  11.019  1.00  0.00     0.011 A 
HETATM   17  C   UNL     1     -41.404 -48.348  10.610  1.00  0.00     0.024 A 
HETATM   18  C   UNL     1     -42.621 -48.068  11.222  1.00  0.00     0.034 A 
HETATM   19 CL   UNL     1     -43.530 -46.690  10.733  1.00  0.00    -0.084 Cl
HETATM   20  C   UNL     1     -43.109 -48.899  12.225  1.00  0.00     0.024 A 
HETATM   21  C   UNL     1     -42.368 -50.014  12.633  1.00  0.00     0.011 A 
ENDBRANCH  12  15
ENDBRANCH  11  12
ENDBRANCH  10  11
BRANCH   1  22
HETATM   22  C   UNL     1     -39.268 -54.267  14.289  1.00  0.00     0.240 C 
BRANCH  22  23
HETATM   23  O   UNL     1     -38.720 -55.241  13.412  1.00  0.00    -0.393 OA
HETATM   24  H   UNL     1     -37.986 -55.660  13.892  1.00  0.00     0.209 HD
ENDBRANCH  22  23
ENDBRANCH   1  22
TORSDOF 6
ENDMDL
MODEL 4
REMARK VINA RESULT:      -6.2      2.732      4.987
REMARK  6 active torsions:
REMARK  status: ('A' for Active; 'I' for Inactive)
REMARK    1  A    between atoms: O_1  and  C_2 
REMARK    2  A    between atoms: C_2  and  C_3 
REMARK    3  A    between atoms: N_12  and  C_13 
REMARK    4  A    between atoms: C_13  and  C_14 
REMARK    5  A    between atoms: C_14  and  O_15 
REMARK    6  A    between atoms: C_14  and  C_16 
ROOT
HETATM    1  C   UNL     1     -40.195 -52.230  13.752  1.00  0.00     0.108 A 
HETATM    2  N   UNL     1     -39.786 -53.085  14.671  1.00  0.00    -0.342 N 
ATOM      3  HN  UNL     1     -38.863 -53.125  15.104  1.00  0.00     0.167 HD
HETATM    4  C   UNL     1     -40.852 -53.906  14.927  1.00  0.00     0.060 A 
HETATM    5  C   UNL     1     -40.956 -54.965  15.842  1.00  0.00     0.032 A 
HETATM    6  C   UNL     1     -42.164 -55.664  15.932  1.00  0.00     0.002 A 
HETATM    7  C   UNL     1     -43.246 -55.317  15.124  1.00  0.00     0.002 A 
HETATM    8  C   UNL     1     -43.161 -54.263  14.206  1.00  0.00     0.032 A 
HETATM    9  C   UNL     1     -41.942 -53.572  14.131  1.00  0.00     0.062 A 
HETATM   10  N   UNL     1     -41.496 -52.504  13.376  1.00  0.00    -0.330 N 
ENDROOT
BRANCH  10  11
HETATM   11  C   UNL     1     -42.300 -51.757  12.422  1.00  0.00     0.167 C 
BRANCH  11  12
HETATM   12  C   UNL     1     -42.938 -50.487  13.012  1.00  0.00     0.169 C 
BRANCH  12  13
HETATM   13  O   UNL     1     -43.359 -49.564  12.007  1.00  0.00    -0.389 OA
HETATM   14  H   UNL     1     -43.589 -50.058  11.204  1.00  0.00     0.210 HD
ENDBRANCH  12  13
BRANCH  12  15
HETATM   15  C   UNL     1     -44.145 -50.730  13.907  1.00  0.00    -0.028 A 
HETATM   16  C   UNL     1     -45.316 -51.262  13.336  1.00  0.00     0.011 A 
HETATM   17  C   UNL     1     -46.452 -51.504  14.114  1.00  0.00     0.024 A 
HETATM   18  C   UNL     1     -46.425 -51.230  15.477  1.00  0.00     0.034 A 
HETATM   19 CL   UNL     1     -47.826 -51.511  16.437  1.00  0.00    -0.084 Cl
HETATM   20  C   UNL     1     -45.269 -50.731  16.069  1.00  0.00     0.024 A 
HETATM   21  C   UNL     1     -44.131 -50.490  15.291  1.00  0.00     0.011 A 
ENDBRANCH  12  15
ENDBRANCH  11  12
ENDBRANCH  10  11
BRANCH   1  22
HETATM   22  C   UNL     1     -39.353 -51.141  13.184  1.00  0.00     0.240 C 
BRANCH  22  23
HETATM   23  O   UNL     1     -38.982 -51.507  11.862  1.00  0.00    -0.393 OA
HETATM   24  H   UNL     1     -39.638 -51.100  11.271  1.00  0.00     0.209 HD
ENDBRANCH  22  23
ENDBRANCH   1  22
TORSDOF 6
ENDMDL
MODEL 5
REMARK VINA RESULT:      -6.1      1.623      2.206
REMARK  6 active torsions:
REMARK  status: ('A' for Active; 'I' for Inactive)
REMARK    1  A    between atoms: O_1  and  C_2 
REMARK    2  A    between atoms: C_2  and  C_3 
REMARK    3  A    between atoms: N_12  and  C_13 
REMARK    4  A    between atoms: C_13  and  C_14 
REMARK    5  A    between atoms: C_14  and  O_15 
REMARK    6  A    between atoms: C_14  and  C_16 
ROOT
HETATM    1  C   UNL     1     -38.906 -49.760  11.620  1.00  0.00     0.108 A 
HETATM    2  N   UNL     1     -39.390 -48.646  11.104  1.00  0.00    -0.342 N 
ATOM      3  HN  UNL     1     -38.885 -47.960  10.543  1.00  0.00     0.167 HD
HETATM    4  C   UNL     1     -40.708 -48.596  11.474  1.00  0.00     0.060 A 
HETATM    5  C   UNL     1     -41.681 -47.634  11.163  1.00  0.00     0.032 A 
HETATM    6  C   UNL     1     -42.980 -47.803  11.655  1.00  0.00     0.002 A 
HETATM    7  C   UNL     1     -43.302 -48.908  12.443  1.00  0.00     0.002 A 
HETATM    8  C   UNL     1     -42.343 -49.878  12.763  1.00  0.00     0.032 A 
HETATM    9  C   UNL     1     -41.048 -49.693  12.260  1.00  0.00     0.062 A 
HETATM   10  N   UNL     1     -39.875 -50.419  12.351  1.00  0.00    -0.330 N 
ENDROOT
BRANCH  10  11
HETATM   11  C   UNL     1     -39.731 -51.697  13.032  1.00  0.00     0.167 C 
BRANCH  11  12
HETATM   12  C   UNL     1     -40.824 -52.717  12.666  1.00  0.00     0.169 C 
BRANCH  12  13
HETATM   13  O   UNL     1     -40.460 -53.538  11.555  1.00  0.00    -0.389 OA
HETATM   14  H   UNL     1     -39.709 -53.131  11.096  1.00  0.00     0.210 HD
ENDBRANCH  12  13
BRANCH  12  15
HETATM   15  C   UNL     1     -41.220 -53.665  13.789  1.00  0.00    -0.028 A 
HETATM   16  C   UNL     1     -40.255 -54.024  14.746  1.00  0.00     0.011 A 
HETATM   17  C   UNL     1     -40.568 -54.891  15.797  1.00  0.00     0.024 A 
HETATM   18  C   UNL     1     -41.858 -55.399  15.911  1.00  0.00     0.034 A 
HETATM   19 CL   UNL     1     -42.245 -56.478  17.194  1.00  0.00    -0.084 Cl
HETATM   20  C   UNL     1     -42.837 -55.035  14.993  1.00  0.00     0.024 A 
HETATM   21  C   UNL     1     -42.524 -54.165  13.941  1.00  0.00     0.011 A 
ENDBRANCH  12  15
ENDBRANCH  11  12
ENDBRANCH  10  11
BRANCH   1  22
HETATM   22  C   UNL     1     -37.500 -50.221  11.453  1.00  0.00     0.240 C 
BRANCH  22  23
HETATM   23  O   UNL     1     -37.151 -50.099  10.081  1.00  0.00    -0.393 OA
HETATM   24  H   UNL     1     -36.373 -50.666   9.945  1.00  0.00     0.209 HD
ENDBRANCH  22  23
ENDBRANCH   1  22
TORSDOF 6
ENDMDL
MODEL 6
REMARK VINA RESULT:      -6.0      3.309      6.147
REMARK  6 active torsions:
REMARK  status: ('A' for Active; 'I' for Inactive)
REMARK    1  A    between atoms: O_1  and  C_2 
REMARK    2  A    between atoms: C_2  and  C_3 
REMARK    3  A    between atoms: N_12  and  C_13 
REMARK    4  A    between atoms: C_13  and  C_14 
REMARK    5  A    between atoms: C_14  and  O_15 
REMARK    6  A    between atoms: C_14  and  C_16 
ROOT
HETATM    1  C   UNL     1     -41.962 -53.582  13.791  1.00  0.00     0.108 A 
HETATM    2  N   UNL     1     -43.070 -54.294  13.711  1.00  0.00    -0.342 N 
ATOM      3  HN  UNL     1     -43.153 -55.309  13.770  1.00  0.00     0.167 HD
HETATM    4  C   UNL     1     -44.088 -53.394  13.532  1.00  0.00     0.060 A 
HETATM    5  C   UNL     1     -45.467 -53.627  13.416  1.00  0.00     0.032 A 
HETATM    6  C   UNL     1     -46.324 -52.535  13.245  1.00  0.00     0.002 A 
HETATM    7  C   UNL     1     -45.817 -51.237  13.187  1.00  0.00     0.002 A 
HETATM    8  C   UNL     1     -44.444 -50.986  13.302  1.00  0.00     0.032 A 
HETATM    9  C   UNL     1     -43.600 -52.093  13.475  1.00  0.00     0.062 A 
HETATM   10  N   UNL     1     -42.235 -52.237  13.629  1.00  0.00    -0.330 N 
ENDROOT
BRANCH  10  11
HETATM   11  C   UNL     1     -41.278 -51.143  13.696  1.00  0.00     0.167 C 
BRANCH  11  12
HETATM   12  C   UNL     1     -40.556 -50.872  12.364  1.00  0.00     0.169 C 
BRANCH  12  13
HETATM   13  O   UNL     1     -41.043 -51.690  11.298  1.00  0.00    -0.389 OA
HETATM   14  H   UNL     1     -41.712 -52.297  11.649  1.00  0.00     0.210 HD
ENDBRANCH  12  13
BRANCH  12  15
HETATM   15  C   UNL     1     -40.631 -49.434  11.872  1.00  0.00    -0.028 A 
HETATM   16  C   UNL     1     -39.650 -48.520  12.295  1.00  0.00     0.011 A 
HETATM   17  C   UNL     1     -39.674 -47.188  11.872  1.00  0.00     0.024 A 
HETATM   18  C   UNL     1     -40.675 -46.757  11.008  1.00  0.00     0.034 A 
HETATM   19 CL   UNL     1     -40.718 -45.114  10.496  1.00  0.00    -0.084 Cl
HETATM   20  C   UNL     1     -41.640 -47.649  10.553  1.00  0.00     0.024 A 
HETATM   21  C   UNL     1     -41.615 -48.984  10.975  1.00  0.00     0.011 A 
ENDBRANCH  12  15
ENDBRANCH  11  12
ENDBRANCH  10  11
BRANCH   1  22
HETATM   22  C   UNL     1     -40.605 -54.159  14.000  1.00  0.00     0.240 C 
BRANCH  22  23
HETATM   23  O   UNL     1     -39.991 -54.326  12.728  1.00  0.00    -0.393 OA
HETATM   24  H   UNL     1     -39.139 -54.764  12.892  1.00  0.00     0.209 HD
ENDBRANCH  22  23
ENDBRANCH   1  22
TORSDOF 6
ENDMDL
MODEL 7
REMARK VINA RESULT:      -6.0      4.022      5.499
REMARK  6 active torsions:
REMARK  status: ('A' for Active; 'I' for Inactive)
REMARK    1  A    between atoms: O_1  and  C_2 
REMARK    2  A    between atoms: C_2  and  C_3 
REMARK    3  A    between atoms: N_12  and  C_13 
REMARK    4  A    between atoms: C_13  and  C_14 
REMARK    5  A    between atoms: C_14  and  O_15 
REMARK    6  A    between atoms: C_14  and  C_16 
ROOT
HETATM    1  C   UNL     1     -42.390 -47.057   9.950  1.00  0.00     0.108 A 
HETATM    2  N   UNL     1     -41.874 -45.873   9.681  1.00  0.00    -0.342 N 
ATOM      3  HN  UNL     1     -42.078 -45.284   8.873  1.00  0.00     0.167 HD
HETATM    4  C   UNL     1     -41.010 -45.593  10.706  1.00  0.00     0.060 A 
HETATM    5  C   UNL     1     -40.227 -44.448  10.918  1.00  0.00     0.032 A 
HETATM    6  C   UNL     1     -39.415 -44.385  12.057  1.00  0.00     0.002 A 
HETATM    7  C   UNL     1     -39.383 -45.444  12.964  1.00  0.00     0.002 A 
HETATM    8  C   UNL     1     -40.158 -46.594  12.768  1.00  0.00     0.032 A 
HETATM    9  C   UNL     1     -40.967 -46.638  11.623  1.00  0.00     0.062 A 
HETATM   10  N   UNL     1     -41.848 -47.572  11.112  1.00  0.00    -0.330 N 
ENDROOT
BRANCH  10  11
HETATM   11  C   UNL     1     -42.198 -48.832  11.750  1.00  0.00     0.167 C 
BRANCH  11  12
HETATM   12  C   UNL     1     -41.167 -49.951  11.511  1.00  0.00     0.169 C 
BRANCH  12  13
HETATM   13  O   UNL     1     -40.555 -49.868  10.223  1.00  0.00    -0.389 OA
HETATM   14  H   UNL     1     -40.297 -50.759   9.941  1.00  0.00     0.210 HD
ENDBRANCH  12  13
BRANCH  12  15
HETATM   15  C   UNL     1     -40.034 -50.007  12.524  1.00  0.00    -0.028 A 
HETATM   16  C   UNL     1     -38.707 -49.925  12.064  1.00  0.00     0.011 A 
HETATM   17  C   UNL     1     -37.630 -49.972  12.953  1.00  0.00     0.024 A 
HETATM   18  C   UNL     1     -37.868 -50.088  14.319  1.00  0.00     0.034 A 
HETATM   19 CL   UNL     1     -36.545 -50.162  15.418  1.00  0.00    -0.084 Cl
HETATM   20  C   UNL     1     -39.172 -50.141  14.800  1.00  0.00     0.024 A 
HETATM   21  C   UNL     1     -40.251 -50.092  13.909  1.00  0.00     0.011 A 
ENDBRANCH  12  15
ENDBRANCH  11  12
ENDBRANCH  10  11
BRANCH   1  22
HETATM   22  C   UNL     1     -43.396 -47.748   9.097  1.00  0.00     0.240 C 
BRANCH  22  23
HETATM   23  O   UNL     1     -42.756 -48.161   7.897  1.00  0.00    -0.393 OA
HETATM   24  H   UNL     1     -41.801 -48.068   8.051  1.00  0.00     0.209 HD
ENDBRANCH  22  23
ENDBRANCH   1  22
TORSDOF 6
ENDMDL
MODEL 8
REMARK VINA RESULT:      -6.0      3.808      6.148
REMARK  6 active torsions:
REMARK  status: ('A' for Active; 'I' for Inactive)
REMARK    1  A    between atoms: O_1  and  C_2 
REMARK    2  A    between atoms: C_2  and  C_3 
REMARK    3  A    between atoms: N_12  and  C_13 
REMARK    4  A    between atoms: C_13  and  C_14 
REMARK    5  A    between atoms: C_14  and  O_15 
REMARK    6  A    between atoms: C_14  and  C_16 
ROOT
HETATM    1  C   UNL     1     -43.401 -54.549  14.388  1.00  0.00     0.108 A 
HETATM    2  N   UNL     1     -42.567 -55.216  15.164  1.00  0.00    -0.342 N 
ATOM      3  HN  UNL     1     -42.783 -56.030  15.739  1.00  0.00     0.167 HD
HETATM    4  C   UNL     1     -41.353 -54.592  15.042  1.00  0.00     0.060 A 
HETATM    5  C   UNL     1     -40.125 -54.919  15.636  1.00  0.00     0.032 A 
HETATM    6  C   UNL     1     -39.005 -54.130  15.352  1.00  0.00     0.002 A 
HETATM    7  C   UNL     1     -39.110 -53.033  14.496  1.00  0.00     0.002 A 
HETATM    8  C   UNL     1     -40.328 -52.692  13.895  1.00  0.00     0.032 A 
HETATM    9  C   UNL     1     -41.438 -53.497  14.190  1.00  0.00     0.062 A 
HETATM   10  N   UNL     1     -42.761 -53.480  13.792  1.00  0.00    -0.330 N 
ENDROOT
BRANCH  10  11
HETATM   11  C   UNL     1     -43.339 -52.542  12.841  1.00  0.00     0.167 C 
BRANCH  11  12
HETATM   12  C   UNL     1     -43.661 -51.165  13.450  1.00  0.00     0.169 C 
BRANCH  12  13
HETATM   13  O   UNL     1     -43.949 -50.179  12.457  1.00  0.00    -0.389 OA
HETATM   14  H   UNL     1     -43.416 -50.362  11.669  1.00  0.00     0.210 HD
ENDBRANCH  12  13
BRANCH  12  15
HETATM   15  C   UNL     1     -44.831 -51.151  14.423  1.00  0.00    -0.028 A 
HETATM   16  C   UNL     1     -44.599 -50.772  15.757  1.00  0.00     0.011 A 
HETATM   17  C   UNL     1     -45.639 -50.742  16.691  1.00  0.00     0.024 A 
HETATM   18  C   UNL     1     -46.930 -51.078  16.296  1.00  0.00     0.034 A 
HETATM   19 CL   UNL     1     -48.212 -51.057  17.444  1.00  0.00    -0.084 Cl
HETATM   20  C   UNL     1     -47.189 -51.427  14.974  1.00  0.00     0.024 A 
HETATM   21  C   UNL     1     -46.148 -51.455  14.039  1.00  0.00     0.011 A 
ENDBRANCH  12  15
ENDBRANCH  11  12
ENDBRANCH  10  11
BRANCH   1  22
HETATM   22  C   UNL     1     -44.838 -54.894  14.207  1.00  0.00     0.240 C 
BRANCH  22  23
HETATM   23  O   UNL     1     -45.515 -54.639  15.430  1.00  0.00    -0.393 OA
HETATM   24  H   UNL     1     -44.838 -54.340  16.061  1.00  0.00     0.209 HD
ENDBRANCH  22  23
ENDBRANCH   1  22
TORSDOF 6
ENDMDL
MODEL 9
REMARK VINA RESULT:      -5.9      3.899      6.845
REMARK  6 active torsions:
REMARK  status: ('A' for Active; 'I' for Inactive)
REMARK    1  A    between atoms: O_1  and  C_2 
REMARK    2  A    between atoms: C_2  and  C_3 
REMARK    3  A    between atoms: N_12  and  C_13 
REMARK    4  A    between atoms: C_13  and  C_14 
REMARK    5  A    between atoms: C_14  and  O_15 
REMARK    6  A    between atoms: C_14  and  C_16 
ROOT
HETATM    1  C   UNL     1     -40.308 -51.042  12.467  1.00  0.00     0.108 A 
HETATM    2  N   UNL     1     -39.196 -51.362  13.101  1.00  0.00    -0.342 N 
ATOM      3  HN  UNL     1     -38.795 -52.294  13.204  1.00  0.00     0.167 HD
HETATM    4  C   UNL     1     -38.688 -50.189  13.594  1.00  0.00     0.060 A 
HETATM    5  C   UNL     1     -37.508 -49.969  14.321  1.00  0.00     0.032 A 
HETATM    6  C   UNL     1     -37.190 -48.665  14.715  1.00  0.00     0.002 A 
HETATM    7  C   UNL     1     -38.033 -47.602  14.395  1.00  0.00     0.002 A 
HETATM    8  C   UNL     1     -39.215 -47.802  13.670  1.00  0.00     0.032 A 
HETATM    9  C   UNL     1     -39.516 -49.116  13.281  1.00  0.00     0.062 A 
HETATM   10  N   UNL     1     -40.554 -49.686  12.570  1.00  0.00    -0.330 N 
ENDROOT
BRANCH  10  11
HETATM   11  C   UNL     1     -41.660 -48.956  11.968  1.00  0.00     0.167 C 
BRANCH  11  12
HETATM   12  C   UNL     1     -41.259 -48.149  10.720  1.00  0.00     0.169 C 
BRANCH  12  13
HETATM   13  O   UNL     1     -42.139 -48.369   9.617  1.00  0.00    -0.389 OA
HETATM   14  H   UNL     1     -42.353 -47.515   9.211  1.00  0.00     0.210 HD
ENDBRANCH  12  13
BRANCH  12  15
HETATM   15  C   UNL     1     -41.192 -46.642  10.924  1.00  0.00    -0.028 A 
HETATM   16  C   UNL     1     -39.990 -45.971  10.637  1.00  0.00     0.011 A 
HETATM   17  C   UNL     1     -39.877 -44.588  10.807  1.00  0.00     0.024 A 
HETATM   18  C   UNL     1     -40.972 -43.856  11.253  1.00  0.00     0.034 A 
HETATM   19 CL   UNL     1     -40.834 -42.156  11.479  1.00  0.00    -0.084 Cl
HETATM   20  C   UNL     1     -42.180 -44.494  11.515  1.00  0.00     0.024 A 
HETATM   21  C   UNL     1     -42.294 -45.879  11.343  1.00  0.00     0.011 A 
ENDBRANCH  12  15
ENDBRANCH  11  12
ENDBRANCH  10  11
BRANCH   1  22
HETATM   22  C   UNL     1     -41.184 -52.018  11.762  1.00  0.00     0.240 C 
BRANCH  22  23
HETATM   23  O   UNL     1     -40.454 -53.225  11.585  1.00  0.00    -0.393 OA
HETATM   24  H   UNL     1     -40.484 -53.691  12.438  1.00  0.00     0.209 HD
ENDBRANCH  22  23
ENDBRANCH   1  22
TORSDOF 6
ENDMDL
