MODEL 1
REMARK VINA RESULT:      -5.8      0.000      0.000
REMARK  4 active torsions:
REMARK  status: ('A' for Active; 'I' for Inactive)
REMARK    1  A    between atoms: C_2  and  C_3 
REMARK    2  A    between atoms: C_2  and  C_14 
REMARK    3  A    between atoms: C_3  and  N_4 
REMARK       I    between atoms: N_4  and  C_5 
REMARK       I    between atoms: C_5  and  N_7 
REMARK    4  A    between atoms: N_7  and  C_8 
ROOT
HETATM    1  N   UNL     1     -41.740 -49.930  11.264  1.00  0.00    -0.342 N 
HETATM    2  C   UNL     1     -42.174 -50.221  12.533  1.00  0.00     0.316 C 
HETATM    3  O   UNL     1     -41.732 -49.656  13.535  1.00  0.00    -0.247 OA
HETATM    4  N   UNL     1     -43.119 -51.218  12.593  1.00  0.00    -0.338 N 
HETATM    5  H   UNL     1     -42.391 -50.101  10.511  1.00  0.00     0.164 HD
HETATM    6  H   UNL     1     -43.214 -51.808  11.785  1.00  0.00     0.164 HD
ENDROOT
BRANCH   1   7
HETATM    7  C   UNL     1     -40.770 -48.848  11.129  1.00  0.00     0.135 C 
BRANCH   7   8
HETATM    8  C   UNL     1     -41.278 -47.469  10.686  1.00  0.00     0.057 C 
HETATM    9  C   UNL     1     -41.409 -46.492  11.851  1.00  0.00     0.018 C 
BRANCH   8  10
HETATM   10  C   UNL     1     -42.546 -47.553   9.875  1.00  0.00     0.056 A 
HETATM   11  N   UNL     1     -42.607 -47.870   8.598  1.00  0.00    -0.362 N 
HETATM   12  C   UNL     1     -43.922 -47.865   8.176  1.00  0.00     0.102 A 
ATOM     13  HN  UNL     1     -41.803 -48.087   8.008  1.00  0.00     0.165 HD
HETATM   14  C   UNL     1     -44.858 -47.536   9.133  1.00  0.00    -0.004 A 
HETATM   15  C   UNL     1     -46.331 -47.397   9.006  1.00  0.00     0.058 C 
HETATM   16  S   UNL     1     -44.072 -47.271  10.630  1.00  0.00    -0.080 SA
ENDBRANCH   8  10
ENDBRANCH   7   8
ENDBRANCH   1   7
BRANCH   4  17
HETATM   17  C   UNL     1     -43.439 -51.793  13.908  1.00  0.00     0.095 C 
HETATM   18  C   UNL     1     -43.214 -53.315  13.919  1.00  0.00     0.027 C 
HETATM   19  C   UNL     1     -44.208 -54.069  13.037  1.00  0.00     0.012 C 
HETATM   20  C   UNL     1     -45.627 -53.961  13.568  1.00  0.00     0.074 C 
HETATM   21  S   UNL     1     -46.213 -52.240  13.516  1.00  0.00    -0.167 SA
HETATM   22  C   UNL     1     -44.845 -51.423  14.407  1.00  0.00     0.099 C 
ENDBRANCH   4  17
TORSDOF 4
ENDMDL
MODEL 2
REMARK VINA RESULT:      -5.5      2.621      3.419
REMARK  4 active torsions:
REMARK  status: ('A' for Active; 'I' for Inactive)
REMARK    1  A    between atoms: C_2  and  C_3 
REMARK    2  A    between atoms: C_2  and  C_14 
REMARK    3  A    between atoms: C_3  and  N_4 
REMARK       I    between atoms: N_4  and  C_5 
REMARK       I    between atoms: C_5  and  N_7 
REMARK    4  A    between atoms: N_7  and  C_8 
ROOT
HETATM    1  N   UNL     1     -40.423 -51.212  13.558  1.00  0.00    -0.342 N 
HETATM    2  C   UNL     1     -40.888 -52.488  13.359  1.00  0.00     0.316 C 
HETATM    3  O   UNL     1     -40.240 -53.349  12.761  1.00  0.00    -0.247 OA
HETATM    4  N   UNL     1     -42.151 -52.714  13.855  1.00  0.00    -0.338 N 
HETATM    5  H   UNL     1     -40.781 -50.718  14.363  1.00  0.00     0.164 HD
HETATM    6  H   UNL     1     -42.710 -51.906  14.068  1.00  0.00     0.164 HD
ENDROOT
BRANCH   1   7
HETATM    7  C   UNL     1     -39.069 -50.922  13.095  1.00  0.00     0.135 C 
BRANCH   7   8
HETATM    8  C   UNL     1     -38.894 -50.319  11.694  1.00  0.00     0.057 C 
HETATM    9  C   UNL     1     -37.471 -49.828  11.443  1.00  0.00     0.018 C 
BRANCH   8  10
HETATM   10  C   UNL     1     -39.920 -49.257  11.389  1.00  0.00     0.056 A 
HETATM   11  N   UNL     1     -40.906 -49.385  10.525  1.00  0.00    -0.362 N 
HETATM   12  C   UNL     1     -41.662 -48.230  10.504  1.00  0.00     0.102 A 
ATOM     13  HN  UNL     1     -41.085 -50.213   9.957  1.00  0.00     0.165 HD
HETATM   14  C   UNL     1     -41.243 -47.222  11.347  1.00  0.00    -0.004 A 
HETATM   15  C   UNL     1     -41.796 -45.856  11.535  1.00  0.00     0.058 C 
HETATM   16  S   UNL     1     -39.883 -47.755  12.238  1.00  0.00    -0.080 SA
ENDBRANCH   8  10
ENDBRANCH   7   8
ENDBRANCH   1   7
BRANCH   4  17
HETATM   17  C   UNL     1     -42.845 -53.946  13.452  1.00  0.00     0.095 C 
HETATM   18  C   UNL     1     -43.932 -53.654  12.404  1.00  0.00     0.027 C 
HETATM   19  C   UNL     1     -45.101 -52.849  12.969  1.00  0.00     0.012 C 
HETATM   20  C   UNL     1     -45.877 -53.638  14.010  1.00  0.00     0.074 C 
HETATM   21  S   UNL     1     -44.843 -53.989  15.465  1.00  0.00    -0.167 SA
HETATM   22  C   UNL     1     -43.401 -54.746  14.641  1.00  0.00     0.099 C 
ENDBRANCH   4  17
TORSDOF 4
ENDMDL
MODEL 3
REMARK VINA RESULT:      -5.4      2.240      3.064
REMARK  4 active torsions:
REMARK  status: ('A' for Active; 'I' for Inactive)
REMARK    1  A    between atoms: C_2  and  C_3 
REMARK    2  A    between atoms: C_2  and  C_14 
REMARK    3  A    between atoms: C_3  and  N_4 
REMARK       I    between atoms: N_4  and  C_5 
REMARK       I    between atoms: C_5  and  N_7 
REMARK    4  A    between atoms: N_7  and  C_8 
ROOT
HETATM    1  N   UNL     1     -41.502 -51.054  13.163  1.00  0.00    -0.342 N 
HETATM    2  C   UNL     1     -42.491 -51.905  12.735  1.00  0.00     0.316 C 
HETATM    3  O   UNL     1     -42.328 -52.708  11.814  1.00  0.00    -0.247 OA
HETATM    4  N   UNL     1     -43.687 -51.762  13.398  1.00  0.00    -0.338 N 
HETATM    5  H   UNL     1     -41.551 -50.748  14.124  1.00  0.00     0.164 HD
HETATM    6  H   UNL     1     -43.819 -50.915  13.924  1.00  0.00     0.164 HD
ENDROOT
BRANCH   1   7
HETATM    7  C   UNL     1     -40.194 -51.189  12.529  1.00  0.00     0.135 C 
BRANCH   7   8
HETATM    8  C   UNL     1     -39.497 -49.918  12.023  1.00  0.00     0.057 C 
HETATM    9  C   UNL     1     -38.596 -49.285  13.079  1.00  0.00     0.018 C 
BRANCH   8  10
HETATM   10  C   UNL     1     -40.466 -48.921  11.439  1.00  0.00     0.056 A 
HETATM   11  N   UNL     1     -41.196 -49.120  10.360  1.00  0.00    -0.362 N 
HETATM   12  C   UNL     1     -41.980 -48.010  10.115  1.00  0.00     0.102 A 
ATOM     13  HN  UNL     1     -41.183 -49.967   9.790  1.00  0.00     0.165 HD
HETATM   14  C   UNL     1     -41.839 -46.966  11.004  1.00  0.00    -0.004 A 
HETATM   15  C   UNL     1     -42.490 -45.631  11.006  1.00  0.00     0.058 C 
HETATM   16  S   UNL     1     -40.721 -47.405  12.223  1.00  0.00    -0.080 SA
ENDBRANCH   8  10
ENDBRANCH   7   8
ENDBRANCH   1   7
BRANCH   4  17
HETATM   17  C   UNL     1     -44.876 -52.418  12.836  1.00  0.00     0.095 C 
HETATM   18  C   UNL     1     -46.128 -51.540  13.006  1.00  0.00     0.027 C 
HETATM   19  C   UNL     1     -46.556 -51.393  14.465  1.00  0.00     0.012 C 
HETATM   20  C   UNL     1     -47.021 -52.715  15.052  1.00  0.00     0.074 C 
HETATM   21  S   UNL     1     -45.656 -53.916  15.115  1.00  0.00    -0.167 SA
HETATM   22  C   UNL     1     -45.099 -53.838  13.378  1.00  0.00     0.099 C 
ENDBRANCH   4  17
TORSDOF 4
ENDMDL
MODEL 4
REMARK VINA RESULT:      -5.4      1.715      6.067
REMARK  4 active torsions:
REMARK  status: ('A' for Active; 'I' for Inactive)
REMARK    1  A    between atoms: C_2  and  C_3 
REMARK    2  A    between atoms: C_2  and  C_14 
REMARK    3  A    between atoms: C_3  and  N_4 
REMARK       I    between atoms: N_4  and  C_5 
REMARK       I    between atoms: C_5  and  N_7 
REMARK    4  A    between atoms: N_7  and  C_8 
ROOT
HETATM    1  N   UNL     1     -41.346 -50.847  11.738  1.00  0.00    -0.342 N 
HETATM    2  C   UNL     1     -41.945 -49.664  12.094  1.00  0.00     0.316 C 
HETATM    3  O   UNL     1     -42.031 -49.284  13.263  1.00  0.00    -0.247 OA
HETATM    4  N   UNL     1     -42.468 -48.954  11.038  1.00  0.00    -0.338 N 
HETATM    5  H   UNL     1     -40.953 -50.895  10.809  1.00  0.00     0.164 HD
HETATM    6  H   UNL     1     -42.606 -49.453  10.176  1.00  0.00     0.164 HD
ENDROOT
BRANCH   1   7
HETATM    7  C   UNL     1     -40.730 -51.624  12.809  1.00  0.00     0.135 C 
BRANCH   7   8
HETATM    8  C   UNL     1     -41.486 -52.847  13.347  1.00  0.00     0.057 C 
HETATM    9  C   UNL     1     -40.983 -54.156  12.747  1.00  0.00     0.018 C 
BRANCH   8  10
HETATM   10  C   UNL     1     -42.981 -52.705  13.217  1.00  0.00     0.056 A 
HETATM   11  N   UNL     1     -43.695 -53.131  12.195  1.00  0.00    -0.362 N 
HETATM   12  C   UNL     1     -45.030 -52.851  12.407  1.00  0.00     0.102 A 
ATOM     13  HN  UNL     1     -43.318 -53.600  11.371  1.00  0.00     0.165 HD
HETATM   14  C   UNL     1     -45.329 -52.202  13.587  1.00  0.00    -0.004 A 
HETATM   15  C   UNL     1     -46.638 -51.722  14.097  1.00  0.00     0.058 C 
HETATM   16  S   UNL     1     -43.893 -51.980  14.491  1.00  0.00    -0.080 SA
ENDBRANCH   8  10
ENDBRANCH   7   8
ENDBRANCH   1   7
BRANCH   4  17
HETATM   17  C   UNL     1     -43.365 -47.828  11.335  1.00  0.00     0.095 C 
HETATM   18  C   UNL     1     -44.440 -47.671  10.246  1.00  0.00     0.027 C 
HETATM   19  C   UNL     1     -43.864 -47.221   8.904  1.00  0.00     0.012 C 
HETATM   20  C   UNL     1     -43.291 -45.816   8.980  1.00  0.00     0.074 C 
HETATM   21  S   UNL     1     -41.867 -45.753  10.111  1.00  0.00    -0.167 SA
HETATM   22  C   UNL     1     -42.620 -46.509  11.593  1.00  0.00     0.099 C 
ENDBRANCH   4  17
TORSDOF 4
ENDMDL
MODEL 5
REMARK VINA RESULT:      -5.3      2.742      6.281
REMARK  4 active torsions:
REMARK  status: ('A' for Active; 'I' for Inactive)
REMARK    1  A    between atoms: C_2  and  C_3 
REMARK    2  A    between atoms: C_2  and  C_14 
REMARK    3  A    between atoms: C_3  and  N_4 
REMARK       I    between atoms: N_4  and  C_5 
REMARK       I    between atoms: C_5  and  N_7 
REMARK    4  A    between atoms: N_7  and  C_8 
ROOT
HETATM    1  N   UNL     1     -41.481 -50.672  11.470  1.00  0.00    -0.342 N 
HETATM    2  C   UNL     1     -40.581 -49.646  11.618  1.00  0.00     0.316 C 
HETATM    3  O   UNL     1     -39.441 -49.816  12.055  1.00  0.00    -0.247 OA
HETATM    4  N   UNL     1     -41.070 -48.410  11.267  1.00  0.00    -0.338 N 
HETATM    5  H   UNL     1     -42.191 -50.556  10.760  1.00  0.00     0.164 HD
HETATM    6  H   UNL     1     -42.069 -48.317  11.195  1.00  0.00     0.164 HD
ENDROOT
BRANCH   1   7
HETATM    7  C   UNL     1     -41.007 -52.018  11.781  1.00  0.00     0.135 C 
BRANCH   7   8
HETATM    8  C   UNL     1     -41.646 -52.758  12.964  1.00  0.00     0.057 C 
HETATM    9  C   UNL     1     -41.222 -54.221  13.037  1.00  0.00     0.018 C 
BRANCH   8  10
HETATM   10  C   UNL     1     -43.146 -52.603  13.000  1.00  0.00     0.056 A 
HETATM   11  N   UNL     1     -43.981 -53.130  12.128  1.00  0.00    -0.362 N 
HETATM   12  C   UNL     1     -45.279 -52.802  12.466  1.00  0.00     0.102 A 
ATOM     13  HN  UNL     1     -43.709 -53.696  11.323  1.00  0.00     0.165 HD
HETATM   14  C   UNL     1     -45.428 -52.019  13.591  1.00  0.00    -0.004 A 
HETATM   15  C   UNL     1     -46.663 -51.459  14.197  1.00  0.00     0.058 C 
HETATM   16  S   UNL     1     -43.891 -51.722  14.283  1.00  0.00    -0.080 SA
ENDBRANCH   8  10
ENDBRANCH   7   8
ENDBRANCH   1   7
BRANCH   4  17
HETATM   17  C   UNL     1     -40.293 -47.222  11.649  1.00  0.00     0.095 C 
HETATM   18  C   UNL     1     -40.576 -46.817  13.106  1.00  0.00     0.027 C 
HETATM   19  C   UNL     1     -41.997 -46.297  13.313  1.00  0.00     0.012 C 
HETATM   20  C   UNL     1     -42.231 -44.989  12.576  1.00  0.00     0.074 C 
HETATM   21  S   UNL     1     -42.107 -45.224  10.776  1.00  0.00    -0.167 SA
HETATM   22  C   UNL     1     -40.477 -46.040  10.685  1.00  0.00     0.099 C 
ENDBRANCH   4  17
TORSDOF 4
ENDMDL
MODEL 6
REMARK VINA RESULT:      -5.3      1.769      3.004
REMARK  4 active torsions:
REMARK  status: ('A' for Active; 'I' for Inactive)
REMARK    1  A    between atoms: C_2  and  C_3 
REMARK    2  A    between atoms: C_2  and  C_14 
REMARK    3  A    between atoms: C_3  and  N_4 
REMARK       I    between atoms: N_4  and  C_5 
REMARK       I    between atoms: C_5  and  N_7 
REMARK    4  A    between atoms: N_7  and  C_8 
ROOT
HETATM    1  N   UNL     1     -41.796 -50.002  11.350  1.00  0.00    -0.342 N 
HETATM    2  C   UNL     1     -42.405 -50.223  12.560  1.00  0.00     0.316 C 
HETATM    3  O   UNL     1     -42.373 -49.407  13.483  1.00  0.00    -0.247 OA
HETATM    4  N   UNL     1     -43.025 -51.446  12.665  1.00  0.00    -0.338 N 
HETATM    5  H   UNL     1     -42.189 -50.477  10.550  1.00  0.00     0.164 HD
HETATM    6  H   UNL     1     -42.769 -52.148  11.993  1.00  0.00     0.164 HD
ENDROOT
BRANCH   1   7
HETATM    7  C   UNL     1     -41.159 -48.702  11.159  1.00  0.00     0.135 C 
BRANCH   7   8
HETATM    8  C   UNL     1     -42.041 -47.515  10.745  1.00  0.00     0.057 C 
HETATM    9  C   UNL     1     -42.735 -47.742   9.405  1.00  0.00     0.018 C 
BRANCH   8  10
HETATM   10  C   UNL     1     -41.299 -46.203  10.781  1.00  0.00     0.056 A 
HETATM   11  N   UNL     1     -40.129 -45.981  10.218  1.00  0.00    -0.362 N 
HETATM   12  C   UNL     1     -39.747 -44.672  10.433  1.00  0.00     0.102 A 
ATOM     13  HN  UNL     1     -39.586 -46.673   9.700  1.00  0.00     0.165 HD
HETATM   14  C   UNL     1     -40.625 -43.902  11.167  1.00  0.00    -0.004 A 
HETATM   15  C   UNL     1     -40.502 -42.490  11.610  1.00  0.00     0.058 C 
HETATM   16  S   UNL     1     -42.005 -44.835  11.561  1.00  0.00    -0.080 SA
ENDBRANCH   8  10
ENDBRANCH   7   8
ENDBRANCH   1   7
BRANCH   4  17
HETATM   17  C   UNL     1     -43.459 -51.892  13.998  1.00  0.00     0.095 C 
HETATM   18  C   UNL     1     -43.194 -53.394  14.194  1.00  0.00     0.027 C 
HETATM   19  C   UNL     1     -44.073 -54.274  13.307  1.00  0.00     0.012 C 
HETATM   20  C   UNL     1     -45.541 -54.165  13.685  1.00  0.00     0.074 C 
HETATM   21  S   UNL     1     -46.167 -52.482  13.391  1.00  0.00    -0.167 SA
HETATM   22  C   UNL     1     -44.917 -51.525  14.316  1.00  0.00     0.099 C 
ENDBRANCH   4  17
TORSDOF 4
ENDMDL
MODEL 7
REMARK VINA RESULT:      -5.1      3.805      6.777
REMARK  4 active torsions:
REMARK  status: ('A' for Active; 'I' for Inactive)
REMARK    1  A    between atoms: C_2  and  C_3 
REMARK    2  A    between atoms: C_2  and  C_14 
REMARK    3  A    between atoms: C_3  and  N_4 
REMARK       I    between atoms: N_4  and  C_5 
REMARK       I    between atoms: C_5  and  N_7 
REMARK    4  A    between atoms: N_7  and  C_8 
ROOT
HETATM    1  N   UNL     1     -42.711 -53.159  12.383  1.00  0.00    -0.342 N 
HETATM    2  C   UNL     1     -42.438 -51.834  12.616  1.00  0.00     0.316 C 
HETATM    3  O   UNL     1     -43.320 -50.995  12.807  1.00  0.00    -0.247 OA
HETATM    4  N   UNL     1     -41.100 -51.518  12.584  1.00  0.00    -0.338 N 
HETATM    5  H   UNL     1     -41.995 -53.823  12.642  1.00  0.00     0.164 HD
HETATM    6  H   UNL     1     -40.483 -52.183  12.151  1.00  0.00     0.164 HD
ENDROOT
BRANCH   1   7
HETATM    7  C   UNL     1     -44.111 -53.567  12.449  1.00  0.00     0.135 C 
BRANCH   7   8
HETATM    8  C   UNL     1     -44.671 -54.021  13.805  1.00  0.00     0.057 C 
HETATM    9  C   UNL     1     -45.307 -55.407  13.740  1.00  0.00     0.018 C 
BRANCH   8  10
HETATM   10  C   UNL     1     -45.600 -53.003  14.416  1.00  0.00     0.056 A 
HETATM   11  N   UNL     1     -46.079 -51.946  13.792  1.00  0.00    -0.362 N 
HETATM   12  C   UNL     1     -46.906 -51.237  14.640  1.00  0.00     0.102 A 
ATOM     13  HN  UNL     1     -45.870 -51.689  12.827  1.00  0.00     0.165 HD
HETATM   14  C   UNL     1     -47.049 -51.752  15.911  1.00  0.00    -0.004 A 
HETATM   15  C   UNL     1     -47.818 -51.222  17.066  1.00  0.00     0.058 C 
HETATM   16  S   UNL     1     -46.156 -53.207  16.037  1.00  0.00    -0.080 SA
ENDBRANCH   8  10
ENDBRANCH   7   8
ENDBRANCH   1   7
BRANCH   4  17
HETATM   17  C   UNL     1     -40.723 -50.097  12.541  1.00  0.00     0.095 C 
HETATM   18  C   UNL     1     -39.539 -49.865  11.588  1.00  0.00     0.027 C 
HETATM   19  C   UNL     1     -38.237 -50.482  12.096  1.00  0.00     0.012 C 
HETATM   20  C   UNL     1     -37.751 -49.805  13.366  1.00  0.00     0.074 C 
HETATM   21  S   UNL     1     -38.922 -50.066  14.733  1.00  0.00    -0.167 SA
HETATM   22  C   UNL     1     -40.461 -49.496  13.931  1.00  0.00     0.099 C 
ENDBRANCH   4  17
TORSDOF 4
ENDMDL
MODEL 8
REMARK VINA RESULT:      -4.9      3.779      7.242
REMARK  4 active torsions:
REMARK  status: ('A' for Active; 'I' for Inactive)
REMARK    1  A    between atoms: C_2  and  C_3 
REMARK    2  A    between atoms: C_2  and  C_14 
REMARK    3  A    between atoms: C_3  and  N_4 
REMARK       I    between atoms: N_4  and  C_5 
REMARK       I    between atoms: C_5  and  N_7 
REMARK    4  A    between atoms: N_7  and  C_8 
ROOT
HETATM    1  N   UNL     1     -38.191 -48.320  13.647  1.00  0.00    -0.342 N 
HETATM    2  C   UNL     1     -39.469 -47.845  13.486  1.00  0.00     0.316 C 
HETATM    3  O   UNL     1     -40.467 -48.553  13.625  1.00  0.00    -0.247 OA
HETATM    4  N   UNL     1     -39.538 -46.519  13.125  1.00  0.00    -0.338 N 
HETATM    5  H   UNL     1     -37.488 -47.649  13.925  1.00  0.00     0.164 HD
HETATM    6  H   UNL     1     -38.699 -46.100  12.763  1.00  0.00     0.164 HD
ENDROOT
BRANCH   1   7
HETATM    7  C   UNL     1     -38.052 -49.708  14.077  1.00  0.00     0.135 C 
BRANCH   7   8
HETATM    8  C   UNL     1     -37.965 -50.797  12.997  1.00  0.00     0.057 C 
HETATM    9  C   UNL     1     -37.413 -50.268  11.677  1.00  0.00     0.018 C 
BRANCH   8  10
HETATM   10  C   UNL     1     -39.269 -51.530  12.810  1.00  0.00     0.056 A 
HETATM   11  N   UNL     1     -40.146 -51.281  11.859  1.00  0.00    -0.362 N 
HETATM   12  C   UNL     1     -41.217 -52.145  11.973  1.00  0.00     0.102 A 
ATOM     13  HN  UNL     1     -40.049 -50.558  11.145  1.00  0.00     0.165 HD
HETATM   14  C   UNL     1     -41.156 -53.044  13.016  1.00  0.00    -0.004 A 
HETATM   15  C   UNL     1     -42.145 -54.067  13.443  1.00  0.00     0.058 C 
HETATM   16  S   UNL     1     -39.680 -52.838  13.858  1.00  0.00    -0.080 SA
ENDBRANCH   8  10
ENDBRANCH   7   8
ENDBRANCH   1   7
BRANCH   4  17
HETATM   17  C   UNL     1     -40.829 -45.993  12.658  1.00  0.00     0.095 C 
HETATM   18  C   UNL     1     -40.857 -45.869  11.126  1.00  0.00     0.027 C 
HETATM   19  C   UNL     1     -39.912 -44.791  10.599  1.00  0.00     0.012 C 
HETATM   20  C   UNL     1     -40.346 -43.401  11.032  1.00  0.00     0.074 C 
HETATM   21  S   UNL     1     -40.253 -43.221  12.840  1.00  0.00    -0.167 SA
HETATM   22  C   UNL     1     -41.232 -44.678  13.343  1.00  0.00     0.099 C 
ENDBRANCH   4  17
TORSDOF 4
ENDMDL
MODEL 9
REMARK VINA RESULT:      -4.8      4.066      4.923
REMARK  4 active torsions:
REMARK  status: ('A' for Active; 'I' for Inactive)
REMARK    1  A    between atoms: C_2  and  C_3 
REMARK    2  A    between atoms: C_2  and  C_14 
REMARK    3  A    between atoms: C_3  and  N_4 
REMARK       I    between atoms: N_4  and  C_5 
REMARK       I    between atoms: C_5  and  N_7 
REMARK    4  A    between atoms: N_7  and  C_8 
ROOT
HETATM    1  N   UNL     1     -40.106 -51.444  13.732  1.00  0.00    -0.342 N 
HETATM    2  C   UNL     1     -40.751 -52.578  13.305  1.00  0.00     0.316 C 
HETATM    3  O   UNL     1     -40.299 -53.312  12.425  1.00  0.00    -0.247 OA
HETATM    4  N   UNL     1     -41.960 -52.806  13.919  1.00  0.00    -0.338 N 
HETATM    5  H   UNL     1     -40.295 -51.143  14.677  1.00  0.00     0.164 HD
HETATM    6  H   UNL     1     -42.380 -52.031  14.404  1.00  0.00     0.164 HD
ENDROOT
BRANCH   1   7
HETATM    7  C   UNL     1     -38.795 -51.171  13.151  1.00  0.00     0.135 C 
BRANCH   7   8
HETATM    8  C   UNL     1     -38.636 -49.925  12.269  1.00  0.00     0.057 C 
HETATM    9  C   UNL     1     -37.500 -50.064  11.259  1.00  0.00     0.018 C 
BRANCH   8  10
HETATM   10  C   UNL     1     -38.521 -48.657  13.076  1.00  0.00     0.056 A 
HETATM   11  N   UNL     1     -37.564 -48.397  13.943  1.00  0.00    -0.362 N 
HETATM   12  C   UNL     1     -37.757 -47.144  14.491  1.00  0.00     0.102 A 
ATOM     13  HN  UNL     1     -36.795 -49.027  14.175  1.00  0.00     0.165 HD
HETATM   14  C   UNL     1     -38.865 -46.457  14.045  1.00  0.00    -0.004 A 
HETATM   15  C   UNL     1     -39.381 -45.125  14.455  1.00  0.00     0.058 C 
HETATM   16  S   UNL     1     -39.672 -47.389  12.858  1.00  0.00    -0.080 SA
ENDBRANCH   8  10
ENDBRANCH   7   8
ENDBRANCH   1   7
BRANCH   4  17
HETATM   17  C   UNL     1     -42.851 -53.824  13.343  1.00  0.00     0.095 C 
HETATM   18  C   UNL     1     -43.878 -53.188  12.389  1.00  0.00     0.027 C 
HETATM   19  C   UNL     1     -44.894 -52.307  13.113  1.00  0.00     0.012 C 
HETATM   20  C   UNL     1     -45.788 -53.119  14.036  1.00  0.00     0.074 C 
HETATM   21  S   UNL     1     -44.823 -53.872  15.382  1.00  0.00    -0.167 SA
HETATM   22  C   UNL     1     -43.529 -54.707  14.402  1.00  0.00     0.099 C 
ENDBRANCH   4  17
TORSDOF 4
ENDMDL
