MODEL 1
REMARK VINA RESULT:      -5.8      0.000      0.000
REMARK  6 active torsions:
REMARK  status: ('A' for Active; 'I' for Inactive)
REMARK    1  A    between atoms: C_2  and  C_4 
REMARK    2  A    between atoms: C_4  and  N_5 
REMARK    3  A    between atoms: C_8  and  N_11 
REMARK    4  A    between atoms: N_11  and  C_12 
REMARK    5  A    between atoms: C_12  and  C_13 
REMARK    6  A    between atoms: C_13  and  C_14 
ROOT
HETATM    1  N   UNL     1     -42.359 -50.415  11.940  1.00  0.00     0.088 N 
HETATM    2  H   UNL     1     -41.422 -50.666  11.621  1.00  0.00     0.316 HD
ENDROOT
BRANCH   1   3
HETATM    3  C   UNL     1     -42.366 -49.030  12.448  1.00  0.00     0.223 C 
HETATM    4  C   UNL     1     -43.036 -48.099  11.422  1.00  0.00     0.066 C 
HETATM    5  C   UNL     1     -42.088 -47.617  10.321  1.00  0.00     0.274 C 
HETATM    6  N   UNL     1     -40.825 -47.052  10.831  1.00  0.00     0.088 N 
HETATM    7  C   UNL     1     -40.147 -48.060  11.652  1.00  0.00     0.274 C 
HETATM    8  C   UNL     1     -40.978 -48.505  12.849  1.00  0.00     0.066 C 
BRANCH   6   9
HETATM    9  C   UNL     1     -41.040 -45.755  11.503  1.00  0.00     0.276 C 
BRANCH   9  10
HETATM   10  C   UNL     1     -40.012 -44.644  11.184  1.00  0.00     0.006 C 
HETATM   11  C   UNL     1     -39.342 -44.843   9.826  1.00  0.00     0.011 C 
HETATM   12  C   UNL     1     -40.694 -43.272  11.229  1.00  0.00     0.011 C 
ENDBRANCH   9  10
ENDBRANCH   6   9
ENDBRANCH   1   3
BRANCH   1  13
HETATM   13  C   UNL     1     -42.826 -51.425  12.904  1.00  0.00     0.274 C 
BRANCH  13  14
HETATM   14  C   UNL     1     -44.255 -51.190  13.422  1.00  0.00     0.069 C 
BRANCH  14  15
HETATM   15  C   UNL     1     -44.986 -52.473  13.730  1.00  0.00    -0.048 A 
HETATM   16  C   UNL     1     -44.445 -53.682  13.286  1.00  0.00     0.024 A 
HETATM   17  C   UNL     1     -45.126 -54.860  13.545  1.00  0.00     0.088 A 
HETATM   18  N   UNL     1     -46.295 -54.916  14.214  1.00  0.00    -0.375 N 
HETATM   19  C   UNL     1     -46.801 -53.739  14.642  1.00  0.00     0.094 A 
ATOM     20  HN  UNL     1     -46.772 -55.800  14.388  1.00  0.00     0.164 HD
HETATM   21  C   UNL     1     -46.203 -52.499  14.441  1.00  0.00    -0.040 A 
HETATM   22  C   UNL     1     -46.876 -51.264  14.964  1.00  0.00     0.050 C 
ENDBRANCH  14  15
ENDBRANCH  13  14
ENDBRANCH   1  13
TORSDOF 6
ENDMDL
MODEL 2
REMARK VINA RESULT:      -5.5      1.310      2.098
REMARK  6 active torsions:
REMARK  status: ('A' for Active; 'I' for Inactive)
REMARK    1  A    between atoms: C_2  and  C_4 
REMARK    2  A    between atoms: C_4  and  N_5 
REMARK    3  A    between atoms: C_8  and  N_11 
REMARK    4  A    between atoms: N_11  and  C_12 
REMARK    5  A    between atoms: C_12  and  C_13 
REMARK    6  A    between atoms: C_13  and  C_14 
ROOT
HETATM    1  N   UNL     1     -41.066 -51.156  11.460  1.00  0.00     0.088 N 
HETATM    2  H   UNL     1     -40.078 -51.242  11.219  1.00  0.00     0.316 HD
ENDROOT
BRANCH   1   3
HETATM    3  C   UNL     1     -41.278 -49.972  12.314  1.00  0.00     0.223 C 
HETATM    4  C   UNL     1     -42.194 -48.965  11.598  1.00  0.00     0.066 C 
HETATM    5  C   UNL     1     -41.452 -48.046  10.625  1.00  0.00     0.274 C 
HETATM    6  N   UNL     1     -40.270 -47.388  11.213  1.00  0.00     0.088 N 
HETATM    7  C   UNL     1     -39.350 -48.415  11.712  1.00  0.00     0.274 C 
HETATM    8  C   UNL     1     -39.977 -49.300  12.782  1.00  0.00     0.066 C 
BRANCH   6   9
HETATM    9  C   UNL     1     -40.655 -46.369  12.211  1.00  0.00     0.276 C 
BRANCH   9  10
HETATM   10  C   UNL     1     -40.162 -44.929  11.938  1.00  0.00     0.006 C 
HETATM   11  C   UNL     1     -39.051 -44.502  12.896  1.00  0.00     0.011 C 
HETATM   12  C   UNL     1     -39.672 -44.809  10.491  1.00  0.00     0.011 C 
ENDBRANCH   9  10
ENDBRANCH   6   9
ENDBRANCH   1   3
BRANCH   1  13
HETATM   13  C   UNL     1     -41.532 -52.425  12.043  1.00  0.00     0.274 C 
BRANCH  13  14
HETATM   14  C   UNL     1     -42.209 -52.278  13.416  1.00  0.00     0.069 C 
BRANCH  14  15
HETATM   15  C   UNL     1     -43.582 -52.902  13.464  1.00  0.00    -0.048 A 
HETATM   16  C   UNL     1     -44.654 -52.222  12.881  1.00  0.00     0.024 A 
HETATM   17  C   UNL     1     -45.920 -52.780  12.944  1.00  0.00     0.088 A 
HETATM   18  N   UNL     1     -46.187 -53.961  13.538  1.00  0.00    -0.375 N 
HETATM   19  C   UNL     1     -45.139 -54.609  14.091  1.00  0.00     0.094 A 
ATOM     20  HN  UNL     1     -47.132 -54.344  13.569  1.00  0.00     0.164 HD
HETATM   21  C   UNL     1     -43.827 -54.143  14.085  1.00  0.00    -0.040 A 
HETATM   22  C   UNL     1     -42.754 -54.961  14.742  1.00  0.00     0.050 C 
ENDBRANCH  14  15
ENDBRANCH  13  14
ENDBRANCH   1  13
TORSDOF 6
ENDMDL
MODEL 3
REMARK VINA RESULT:      -5.5      4.504      7.375
REMARK  6 active torsions:
REMARK  status: ('A' for Active; 'I' for Inactive)
REMARK    1  A    between atoms: C_2  and  C_4 
REMARK    2  A    between atoms: C_4  and  N_5 
REMARK    3  A    between atoms: C_8  and  N_11 
REMARK    4  A    between atoms: N_11  and  C_12 
REMARK    5  A    between atoms: C_12  and  C_13 
REMARK    6  A    between atoms: C_13  and  C_14 
ROOT
HETATM    1  N   UNL     1     -44.080 -52.938  12.418  1.00  0.00     0.088 N 
HETATM    2  H   UNL     1     -43.826 -52.817  11.437  1.00  0.00     0.316 HD
ENDROOT
BRANCH   1   3
HETATM    3  C   UNL     1     -43.511 -54.196  12.937  1.00  0.00     0.223 C 
HETATM    4  C   UNL     1     -44.385 -54.733  14.083  1.00  0.00     0.066 C 
HETATM    5  C   UNL     1     -44.065 -54.107  15.443  1.00  0.00     0.274 C 
HETATM    6  N   UNL     1     -42.631 -54.137  15.787  1.00  0.00     0.088 N 
HETATM    7  C   UNL     1     -41.874 -53.444  14.740  1.00  0.00     0.274 C 
HETATM    8  C   UNL     1     -42.040 -54.084  13.368  1.00  0.00     0.066 C 
BRANCH   6   9
HETATM    9  C   UNL     1     -42.169 -55.510  16.075  1.00  0.00     0.276 C 
BRANCH   9  10
HETATM   10  C   UNL     1     -40.748 -55.638  16.673  1.00  0.00     0.006 C 
HETATM   11  C   UNL     1     -40.556 -54.763  17.911  1.00  0.00     0.011 C 
HETATM   12  C   UNL     1     -40.459 -57.102  17.024  1.00  0.00     0.011 C 
ENDBRANCH   9  10
ENDBRANCH   6   9
ENDBRANCH   1   3
BRANCH   1  13
HETATM   13  C   UNL     1     -45.541 -52.821  12.555  1.00  0.00     0.274 C 
BRANCH  13  14
HETATM   14  C   UNL     1     -46.023 -51.431  13.003  1.00  0.00     0.069 C 
BRANCH  14  15
HETATM   15  C   UNL     1     -46.042 -51.271  14.502  1.00  0.00    -0.048 A 
HETATM   16  C   UNL     1     -47.161 -51.709  15.215  1.00  0.00     0.024 A 
HETATM   17  C   UNL     1     -47.193 -51.542  16.589  1.00  0.00     0.088 A 
HETATM   18  N   UNL     1     -46.193 -50.978  17.296  1.00  0.00    -0.375 N 
HETATM   19  C   UNL     1     -45.115 -50.565  16.594  1.00  0.00     0.094 A 
ATOM     20  HN  UNL     1     -46.248 -50.869  18.309  1.00  0.00     0.164 HD
HETATM   21  C   UNL     1     -44.976 -50.685  15.215  1.00  0.00    -0.040 A 
HETATM   22  C   UNL     1     -43.727 -50.179  14.556  1.00  0.00     0.050 C 
ENDBRANCH  14  15
ENDBRANCH  13  14
ENDBRANCH   1  13
TORSDOF 6
ENDMDL
MODEL 4
REMARK VINA RESULT:      -5.5      3.660      4.645
REMARK  6 active torsions:
REMARK  status: ('A' for Active; 'I' for Inactive)
REMARK    1  A    between atoms: C_2  and  C_4 
REMARK    2  A    between atoms: C_4  and  N_5 
REMARK    3  A    between atoms: C_8  and  N_11 
REMARK    4  A    between atoms: N_11  and  C_12 
REMARK    5  A    between atoms: C_12  and  C_13 
REMARK    6  A    between atoms: C_13  and  C_14 
ROOT
HETATM    1  N   UNL     1     -42.409 -54.129  13.435  1.00  0.00     0.088 N 
HETATM    2  H   UNL     1     -42.449 -53.791  14.397  1.00  0.00     0.316 HD
ENDROOT
BRANCH   1   3
HETATM    3  C   UNL     1     -41.139 -53.719  12.807  1.00  0.00     0.223 C 
HETATM    4  C   UNL     1     -39.972 -53.950  13.783  1.00  0.00     0.066 C 
HETATM    5  C   UNL     1     -39.770 -52.806  14.778  1.00  0.00     0.274 C 
HETATM    6  N   UNL     1     -39.700 -51.475  14.146  1.00  0.00     0.088 N 
HETATM    7  C   UNL     1     -40.928 -51.244  13.380  1.00  0.00     0.274 C 
HETATM    8  C   UNL     1     -41.141 -52.275  12.279  1.00  0.00     0.066 C 
BRANCH   6   9
HETATM    9  C   UNL     1     -38.452 -51.304  13.375  1.00  0.00     0.276 C 
BRANCH   9  10
HETATM   10  C   UNL     1     -38.310 -49.975  12.596  1.00  0.00     0.006 C 
HETATM   11  C   UNL     1     -37.768 -48.844  13.469  1.00  0.00     0.011 C 
HETATM   12  C   UNL     1     -37.395 -50.175  11.383  1.00  0.00     0.011 C 
ENDBRANCH   9  10
ENDBRANCH   6   9
ENDBRANCH   1   3
BRANCH   1  13
HETATM   13  C   UNL     1     -43.618 -53.688  12.720  1.00  0.00     0.274 C 
BRANCH  13  14
HETATM   14  C   UNL     1     -44.931 -54.238  13.302  1.00  0.00     0.069 C 
BRANCH  14  15
HETATM   15  C   UNL     1     -45.572 -53.300  14.295  1.00  0.00    -0.048 A 
HETATM   16  C   UNL     1     -45.406 -53.545  15.661  1.00  0.00     0.024 A 
HETATM   17  C   UNL     1     -46.012 -52.700  16.575  1.00  0.00     0.088 A 
HETATM   18  N   UNL     1     -46.761 -51.634  16.226  1.00  0.00    -0.375 N 
HETATM   19  C   UNL     1     -46.906 -51.407  14.902  1.00  0.00     0.094 A 
ATOM     20  HN  UNL     1     -47.195 -51.032  16.925  1.00  0.00     0.164 HD
HETATM   21  C   UNL     1     -46.341 -52.188  13.898  1.00  0.00    -0.040 A 
HETATM   22  C   UNL     1     -46.586 -51.828  12.462  1.00  0.00     0.050 C 
ENDBRANCH  14  15
ENDBRANCH  13  14
ENDBRANCH   1  13
TORSDOF 6
ENDMDL
MODEL 5
REMARK VINA RESULT:      -5.4      2.964      7.638
REMARK  6 active torsions:
REMARK  status: ('A' for Active; 'I' for Inactive)
REMARK    1  A    between atoms: C_2  and  C_4 
REMARK    2  A    between atoms: C_4  and  N_5 
REMARK    3  A    between atoms: C_8  and  N_11 
REMARK    4  A    between atoms: N_11  and  C_12 
REMARK    5  A    between atoms: C_12  and  C_13 
REMARK    6  A    between atoms: C_13  and  C_14 
ROOT
HETATM    1  N   UNL     1     -40.195 -52.611  14.026  1.00  0.00     0.088 N 
HETATM    2  H   UNL     1     -40.381 -51.705  13.594  1.00  0.00     0.316 HD
ENDROOT
BRANCH   1   3
HETATM    3  C   UNL     1     -41.442 -53.178  14.571  1.00  0.00     0.223 C 
HETATM    4  C   UNL     1     -42.197 -53.941  13.469  1.00  0.00     0.066 C 
HETATM    5  C   UNL     1     -43.070 -53.043  12.589  1.00  0.00     0.274 C 
HETATM    6  N   UNL     1     -43.967 -52.155  13.354  1.00  0.00     0.088 N 
HETATM    7  C   UNL     1     -43.162 -51.323  14.254  1.00  0.00     0.274 C 
HETATM    8  C   UNL     1     -42.353 -52.143  15.251  1.00  0.00     0.066 C 
BRANCH   6   9
HETATM    9  C   UNL     1     -45.047 -52.912  14.016  1.00  0.00     0.276 C 
BRANCH   9  10
HETATM   10  C   UNL     1     -46.477 -52.348  13.847  1.00  0.00     0.006 C 
HETATM   11  C   UNL     1     -46.872 -51.410  14.986  1.00  0.00     0.011 C 
HETATM   12  C   UNL     1     -46.594 -51.612  12.507  1.00  0.00     0.011 C 
ENDBRANCH   9  10
ENDBRANCH   6   9
ENDBRANCH   1   3
BRANCH   1  13
HETATM   13  C   UNL     1     -39.107 -52.461  15.008  1.00  0.00     0.274 C 
BRANCH  13  14
HETATM   14  C   UNL     1     -38.439 -51.076  15.003  1.00  0.00     0.069 C 
BRANCH  14  15
HETATM   15  C   UNL     1     -38.384 -50.455  13.629  1.00  0.00    -0.048 A 
HETATM   16  C   UNL     1     -37.436 -50.921  12.715  1.00  0.00     0.024 A 
HETATM   17  C   UNL     1     -37.365 -50.338  11.460  1.00  0.00     0.088 A 
HETATM   18  N   UNL     1     -38.171 -49.335  11.057  1.00  0.00    -0.375 N 
HETATM   19  C   UNL     1     -39.087 -48.900  11.950  1.00  0.00     0.094 A 
ATOM     20  HN  UNL     1     -38.093 -48.926  10.126  1.00  0.00     0.164 HD
HETATM   21  C   UNL     1     -39.247 -49.414  13.233  1.00  0.00    -0.040 A 
HETATM   22  C   UNL     1     -40.302 -48.835  14.130  1.00  0.00     0.050 C 
ENDBRANCH  14  15
ENDBRANCH  13  14
ENDBRANCH   1  13
TORSDOF 6
ENDMDL
MODEL 6
REMARK VINA RESULT:      -5.4      3.109      4.161
REMARK  6 active torsions:
REMARK  status: ('A' for Active; 'I' for Inactive)
REMARK    1  A    between atoms: C_2  and  C_4 
REMARK    2  A    between atoms: C_4  and  N_5 
REMARK    3  A    between atoms: C_8  and  N_11 
REMARK    4  A    between atoms: N_11  and  C_12 
REMARK    5  A    between atoms: C_12  and  C_13 
REMARK    6  A    between atoms: C_13  and  C_14 
ROOT
HETATM    1  N   UNL     1     -44.331 -51.986  12.514  1.00  0.00     0.088 N 
HETATM    2  H   UNL     1     -44.566 -52.979  12.517  1.00  0.00     0.316 HD
ENDROOT
BRANCH   1   3
HETATM    3  C   UNL     1     -43.152 -51.742  13.366  1.00  0.00     0.223 C 
HETATM    4  C   UNL     1     -42.781 -50.250  13.335  1.00  0.00     0.066 C 
HETATM    5  C   UNL     1     -41.912 -49.859  12.138  1.00  0.00     0.274 C 
HETATM    6  N   UNL     1     -40.728 -50.721  11.957  1.00  0.00     0.088 N 
HETATM    7  C   UNL     1     -41.168 -52.111  11.807  1.00  0.00     0.274 C 
HETATM    8  C   UNL     1     -41.939 -52.621  13.018  1.00  0.00     0.066 C 
BRANCH   6   9
HETATM    9  C   UNL     1     -39.728 -50.503  13.021  1.00  0.00     0.276 C 
BRANCH   9  10
HETATM   10  C   UNL     1     -38.257 -50.790  12.642  1.00  0.00     0.006 C 
HETATM   11  C   UNL     1     -37.812 -50.012  11.404  1.00  0.00     0.011 C 
HETATM   12  C   UNL     1     -37.337 -50.455  13.822  1.00  0.00     0.011 C 
ENDBRANCH   9  10
ENDBRANCH   6   9
ENDBRANCH   1   3
BRANCH   1  13
HETATM   13  C   UNL     1     -45.525 -51.207  12.880  1.00  0.00     0.274 C 
BRANCH  13  14
HETATM   14  C   UNL     1     -46.700 -52.056  13.394  1.00  0.00     0.069 C 
BRANCH  14  15
HETATM   15  C   UNL     1     -46.525 -52.496  14.826  1.00  0.00    -0.048 A 
HETATM   16  C   UNL     1     -46.830 -51.596  15.851  1.00  0.00     0.024 A 
HETATM   17  C   UNL     1     -46.648 -51.987  17.167  1.00  0.00     0.088 A 
HETATM   18  N   UNL     1     -46.192 -53.203  17.529  1.00  0.00    -0.375 N 
HETATM   19  C   UNL     1     -45.907 -54.063  16.527  1.00  0.00     0.094 A 
ATOM     20  HN  UNL     1     -46.068 -53.459  18.508  1.00  0.00     0.164 HD
HETATM   21  C   UNL     1     -46.054 -53.778  15.173  1.00  0.00    -0.040 A 
HETATM   22  C   UNL     1     -45.696 -54.824  14.159  1.00  0.00     0.050 C 
ENDBRANCH  14  15
ENDBRANCH  13  14
ENDBRANCH   1  13
TORSDOF 6
ENDMDL
MODEL 7
REMARK VINA RESULT:      -5.4      4.461      6.899
REMARK  6 active torsions:
REMARK  status: ('A' for Active; 'I' for Inactive)
REMARK    1  A    between atoms: C_2  and  C_4 
REMARK    2  A    between atoms: C_4  and  N_5 
REMARK    3  A    between atoms: C_8  and  N_11 
REMARK    4  A    between atoms: N_11  and  C_12 
REMARK    5  A    between atoms: C_12  and  C_13 
REMARK    6  A    between atoms: C_13  and  C_14 
ROOT
HETATM    1  N   UNL     1     -41.584 -51.790  13.520  1.00  0.00     0.088 N 
HETATM    2  H   UNL     1     -41.273 -50.843  13.303  1.00  0.00     0.316 HD
ENDROOT
BRANCH   1   3
HETATM    3  C   UNL     1     -40.453 -52.731  13.423  1.00  0.00     0.223 C 
HETATM    4  C   UNL     1     -40.942 -54.169  13.666  1.00  0.00     0.066 C 
HETATM    5  C   UNL     1     -41.036 -54.542  15.147  1.00  0.00     0.274 C 
HETATM    6  N   UNL     1     -39.812 -54.244  15.913  1.00  0.00     0.088 N 
HETATM    7  C   UNL     1     -39.506 -52.815  15.789  1.00  0.00     0.274 C 
HETATM    8  C   UNL     1     -39.273 -52.384  14.346  1.00  0.00     0.066 C 
BRANCH   6   9
HETATM    9  C   UNL     1     -38.703 -55.146  15.541  1.00  0.00     0.276 C 
BRANCH   9  10
HETATM   10  C   UNL     1     -38.104 -55.997  16.684  1.00  0.00     0.006 C 
HETATM   11  C   UNL     1     -37.445 -55.140  17.764  1.00  0.00     0.011 C 
HETATM   12  C   UNL     1     -39.195 -56.871  17.312  1.00  0.00     0.011 C 
ENDBRANCH   9  10
ENDBRANCH   6   9
ENDBRANCH   1   3
BRANCH   1  13
HETATM   13  C   UNL     1     -42.737 -52.125  12.667  1.00  0.00     0.274 C 
BRANCH  13  14
HETATM   14  C   UNL     1     -44.091 -51.654  13.223  1.00  0.00     0.069 C 
BRANCH  14  15
HETATM   15  C   UNL     1     -44.978 -52.795  13.656  1.00  0.00    -0.048 A 
HETATM   16  C   UNL     1     -44.592 -54.103  13.351  1.00  0.00     0.024 A 
HETATM   17  C   UNL     1     -45.415 -55.152  13.726  1.00  0.00     0.088 A 
HETATM   18  N   UNL     1     -46.581 -54.990  14.381  1.00  0.00    -0.375 N 
HETATM   19  C   UNL     1     -46.937 -53.719  14.675  1.00  0.00     0.094 A 
ATOM     20  HN  UNL     1     -47.165 -55.784  14.642  1.00  0.00     0.164 HD
HETATM   21  C   UNL     1     -46.188 -52.593  14.349  1.00  0.00    -0.040 A 
HETATM   22  C   UNL     1     -46.701 -51.235  14.729  1.00  0.00     0.050 C 
ENDBRANCH  14  15
ENDBRANCH  13  14
ENDBRANCH   1  13
TORSDOF 6
ENDMDL
MODEL 8
REMARK VINA RESULT:      -5.0      2.133      7.977
REMARK  6 active torsions:
REMARK  status: ('A' for Active; 'I' for Inactive)
REMARK    1  A    between atoms: C_2  and  C_4 
REMARK    2  A    between atoms: C_4  and  N_5 
REMARK    3  A    between atoms: C_8  and  N_11 
REMARK    4  A    between atoms: N_11  and  C_12 
REMARK    5  A    between atoms: C_12  and  C_13 
REMARK    6  A    between atoms: C_13  and  C_14 
ROOT
HETATM    1  N   UNL     1     -39.710 -50.853  11.966  1.00  0.00     0.088 N 
HETATM    2  H   UNL     1     -39.618 -51.742  11.473  1.00  0.00     0.316 HD
ENDROOT
BRANCH   1   3
HETATM    3  C   UNL     1     -40.521 -51.031  13.184  1.00  0.00     0.223 C 
HETATM    4  C   UNL     1     -40.107 -52.324  13.907  1.00  0.00     0.066 C 
HETATM    5  C   UNL     1     -40.785 -53.580  13.354  1.00  0.00     0.274 C 
HETATM    6  N   UNL     1     -42.251 -53.462  13.241  1.00  0.00     0.088 N 
HETATM    7  C   UNL     1     -42.573 -52.316  12.385  1.00  0.00     0.274 C 
HETATM    8  C   UNL     1     -42.038 -50.999  12.933  1.00  0.00     0.066 C 
BRANCH   6   9
HETATM    9  C   UNL     1     -42.899 -53.441  14.568  1.00  0.00     0.276 C 
BRANCH   9  10
HETATM   10  C   UNL     1     -44.008 -54.494  14.800  1.00  0.00     0.006 C 
HETATM   11  C   UNL     1     -44.893 -54.153  15.998  1.00  0.00     0.011 C 
HETATM   12  C   UNL     1     -44.872 -54.631  13.541  1.00  0.00     0.011 C 
ENDBRANCH   9  10
ENDBRANCH   6   9
ENDBRANCH   1   3
BRANCH   1  13
HETATM   13  C   UNL     1     -40.218 -49.835  11.032  1.00  0.00     0.274 C 
BRANCH  13  14
HETATM   14  C   UNL     1     -40.048 -48.387  11.524  1.00  0.00     0.069 C 
BRANCH  14  15
HETATM   15  C   UNL     1     -41.171 -47.481  11.082  1.00  0.00    -0.048 A 
HETATM   16  C   UNL     1     -42.342 -48.054  10.578  1.00  0.00     0.024 A 
HETATM   17  C   UNL     1     -43.365 -47.225  10.148  1.00  0.00     0.088 A 
HETATM   18  N   UNL     1     -43.305 -45.879  10.192  1.00  0.00    -0.375 N 
HETATM   19  C   UNL     1     -42.169 -45.342  10.689  1.00  0.00     0.094 A 
ATOM     20  HN  UNL     1     -44.077 -45.297   9.867  1.00  0.00     0.164 HD
HETATM   21  C   UNL     1     -41.081 -46.076  11.150  1.00  0.00    -0.040 A 
HETATM   22  C   UNL     1     -39.875 -45.354  11.672  1.00  0.00     0.050 C 
ENDBRANCH  14  15
ENDBRANCH  13  14
ENDBRANCH   1  13
TORSDOF 6
ENDMDL
MODEL 9
REMARK VINA RESULT:      -4.9      1.136      2.148
REMARK  6 active torsions:
REMARK  status: ('A' for Active; 'I' for Inactive)
REMARK    1  A    between atoms: C_2  and  C_4 
REMARK    2  A    between atoms: C_4  and  N_5 
REMARK    3  A    between atoms: C_8  and  N_11 
REMARK    4  A    between atoms: N_11  and  C_12 
REMARK    5  A    between atoms: C_12  and  C_13 
REMARK    6  A    between atoms: C_13  and  C_14 
ROOT
HETATM    1  N   UNL     1     -42.378 -49.675  13.783  1.00  0.00     0.088 N 
HETATM    2  H   UNL     1     -41.863 -49.240  14.549  1.00  0.00     0.316 HD
ENDROOT
BRANCH   1   3
HETATM    3  C   UNL     1     -42.728 -48.664  12.768  1.00  0.00     0.223 C 
HETATM    4  C   UNL     1     -41.676 -48.659  11.646  1.00  0.00     0.066 C 
HETATM    5  C   UNL     1     -40.443 -47.811  11.966  1.00  0.00     0.274 C 
HETATM    6  N   UNL     1     -40.764 -46.445  12.422  1.00  0.00     0.088 N 
HETATM    7  C   UNL     1     -41.622 -46.526  13.608  1.00  0.00     0.274 C 
HETATM    8  C   UNL     1     -42.935 -47.252  13.340  1.00  0.00     0.066 C 
BRANCH   6   9
HETATM    9  C   UNL     1     -41.307 -45.619  11.325  1.00  0.00     0.276 C 
BRANCH   9  10
HETATM   10  C   UNL     1     -40.468 -44.384  10.923  1.00  0.00     0.006 C 
HETATM   11  C   UNL     1     -39.811 -43.710  12.127  1.00  0.00     0.011 C 
HETATM   12  C   UNL     1     -39.394 -44.789   9.908  1.00  0.00     0.011 C 
ENDBRANCH   9  10
ENDBRANCH   6   9
ENDBRANCH   1   3
BRANCH   1  13
HETATM   13  C   UNL     1     -43.524 -50.416  14.334  1.00  0.00     0.274 C 
BRANCH  13  14
HETATM   14  C   UNL     1     -44.556 -50.856  13.282  1.00  0.00     0.069 C 
BRANCH  14  15
HETATM   15  C   UNL     1     -45.293 -52.114  13.671  1.00  0.00    -0.048 A 
HETATM   16  C   UNL     1     -46.467 -52.004  14.420  1.00  0.00     0.024 A 
HETATM   17  C   UNL     1     -47.134 -53.158  14.801  1.00  0.00     0.088 A 
HETATM   18  N   UNL     1     -46.717 -54.400  14.484  1.00  0.00    -0.375 N 
HETATM   19  C   UNL     1     -45.583 -54.488  13.753  1.00  0.00     0.094 A 
ATOM     20  HN  UNL     1     -47.230 -55.230  14.780  1.00  0.00     0.164 HD
HETATM   21  C   UNL     1     -44.836 -53.399  13.316  1.00  0.00    -0.040 A 
HETATM   22  C   UNL     1     -43.590 -53.637  12.515  1.00  0.00     0.050 C 
ENDBRANCH  14  15
ENDBRANCH  13  14
ENDBRANCH   1  13
TORSDOF 6
ENDMDL
