MODEL 1
REMARK VINA RESULT:      -6.4      0.000      0.000
REMARK  4 active torsions:
REMARK  status: ('A' for Active; 'I' for Inactive)
REMARK    1  A    between atoms: N_6  and  C_7 
REMARK    2  A    between atoms: C_7  and  C_8 
REMARK    3  A    between atoms: C_8  and  O_9 
REMARK    4  A    between atoms: C_8  and  C_10 
ROOT
HETATM    1  C   UNL     1     -40.275 -51.666  12.932  1.00  0.00     0.169 C 
ENDROOT
BRANCH   1   2
HETATM    2  N   UNL     1     -40.233 -50.264  12.525  1.00  0.00    -0.307 N 
HETATM    3  C   UNL     1     -40.694 -49.887  11.294  1.00  0.00     0.186 A 
HETATM    4  N   UNL     1     -40.639 -48.690  10.820  1.00  0.00    -0.355 N 
HETATM    5  C   UNL     1     -40.080 -47.721  11.617  1.00  0.00     0.017 A 
ATOM      6  HN  UNL     1     -40.995 -48.470   9.890  1.00  0.00     0.166 HD
HETATM    7  C   UNL     1     -39.987 -46.362  10.973  1.00  0.00     0.069 C 
HETATM    8  C   UNL     1     -39.639 -47.939  12.870  1.00  0.00     0.028 A 
HETATM    9  C   UNL     1     -39.748 -49.322  13.404  1.00  0.00     0.256 A 
HETATM   10  C   UNL     1     -39.030 -46.893  13.751  1.00  0.00     0.056 C 
HETATM   11  O   UNL     1     -39.405 -49.593  14.553  1.00  0.00    -0.267 OA
ENDBRANCH   1   2
BRANCH   1  12
HETATM   12  C   UNL     1     -41.287 -52.516  12.132  1.00  0.00     0.169 C 
BRANCH  12  13
HETATM   13  O   UNL     1     -40.541 -53.430  11.315  1.00  0.00    -0.389 OA
HETATM   14  H   UNL     1     -41.173 -54.029  10.880  1.00  0.00     0.210 HD
ENDBRANCH  12  13
BRANCH  12  15
HETATM   15  C   UNL     1     -42.261 -53.329  12.979  1.00  0.00    -0.025 A 
HETATM   16  C   UNL     1     -41.857 -54.170  14.032  1.00  0.00     0.010 A 
HETATM   17  C   UNL     1     -42.789 -54.921  14.757  1.00  0.00     0.004 A 
HETATM   18  C   UNL     1     -44.143 -54.844  14.446  1.00  0.00     0.042 A 
HETATM   19  C   UNL     1     -44.556 -54.007  13.419  1.00  0.00     0.117 A 
HETATM   20  F   UNL     1     -45.858 -53.933  13.116  1.00  0.00    -0.206 F 
HETATM   21  C   UNL     1     -43.637 -53.252  12.692  1.00  0.00     0.052 A 
ENDBRANCH  12  15
ENDBRANCH   1  12
TORSDOF 4
ENDMDL
MODEL 2
REMARK VINA RESULT:      -6.3      1.036      1.513
REMARK  4 active torsions:
REMARK  status: ('A' for Active; 'I' for Inactive)
REMARK    1  A    between atoms: N_6  and  C_7 
REMARK    2  A    between atoms: C_7  and  C_8 
REMARK    3  A    between atoms: C_8  and  O_9 
REMARK    4  A    between atoms: C_8  and  C_10 
ROOT
HETATM    1  C   UNL     1     -40.458 -51.662  12.955  1.00  0.00     0.169 C 
ENDROOT
BRANCH   1   2
HETATM    2  N   UNL     1     -40.351 -50.262  12.552  1.00  0.00    -0.307 N 
HETATM    3  C   UNL     1     -40.814 -49.858  11.330  1.00  0.00     0.186 A 
HETATM    4  N   UNL     1     -40.705 -48.662  10.859  1.00  0.00    -0.355 N 
HETATM    5  C   UNL     1     -40.086 -47.727  11.649  1.00  0.00     0.017 A 
ATOM      6  HN  UNL     1     -41.066 -48.421   9.936  1.00  0.00     0.166 HD
HETATM    7  C   UNL     1     -39.934 -46.371  11.009  1.00  0.00     0.069 C 
HETATM    8  C   UNL     1     -39.635 -47.972  12.895  1.00  0.00     0.028 A 
HETATM    9  C   UNL     1     -39.805 -49.349  13.426  1.00  0.00     0.256 A 
HETATM   10  C   UNL     1     -38.959 -46.961  13.769  1.00  0.00     0.056 C 
HETATM   11  O   UNL     1     -39.458 -49.642  14.568  1.00  0.00    -0.267 OA
ENDBRANCH   1   2
BRANCH   1  12
HETATM   12  C   UNL     1     -41.392 -52.500  12.054  1.00  0.00     0.169 C 
BRANCH  12  13
HETATM   13  O   UNL     1     -40.574 -53.414  11.308  1.00  0.00    -0.389 OA
HETATM   14  H   UNL     1     -41.051 -54.260  11.245  1.00  0.00     0.210 HD
ENDBRANCH  12  13
BRANCH  12  15
HETATM   15  C   UNL     1     -42.449 -53.311  12.795  1.00  0.00    -0.025 A 
HETATM   16  C   UNL     1     -43.819 -53.273  12.478  1.00  0.00     0.010 A 
HETATM   17  C   UNL     1     -44.753 -54.013  13.212  1.00  0.00     0.004 A 
HETATM   18  C   UNL     1     -44.336 -54.808  14.275  1.00  0.00     0.042 A 
HETATM   19  C   UNL     1     -42.985 -54.866  14.588  1.00  0.00     0.117 A 
HETATM   20  F   UNL     1     -42.581 -55.629  15.612  1.00  0.00    -0.206 F 
HETATM   21  C   UNL     1     -42.046 -54.136  13.862  1.00  0.00     0.052 A 
ENDBRANCH  12  15
ENDBRANCH   1  12
TORSDOF 4
ENDMDL
MODEL 3
REMARK VINA RESULT:      -6.1      4.534      6.021
REMARK  4 active torsions:
REMARK  status: ('A' for Active; 'I' for Inactive)
REMARK    1  A    between atoms: N_6  and  C_7 
REMARK    2  A    between atoms: C_7  and  C_8 
REMARK    3  A    between atoms: C_8  and  O_9 
REMARK    4  A    between atoms: C_8  and  C_10 
ROOT
HETATM    1  C   UNL     1     -45.255 -53.322  12.992  1.00  0.00     0.169 C 
ENDROOT
BRANCH   1   2
HETATM    2  N   UNL     1     -43.856 -53.594  13.310  1.00  0.00    -0.307 N 
HETATM    3  C   UNL     1     -42.861 -53.146  12.484  1.00  0.00     0.186 A 
HETATM    4  N   UNL     1     -41.605 -53.390  12.643  1.00  0.00    -0.355 N 
HETATM    5  C   UNL     1     -41.242 -54.150  13.727  1.00  0.00     0.017 A 
ATOM      6  HN  UNL     1     -40.908 -53.033  11.990  1.00  0.00     0.166 HD
HETATM    7  C   UNL     1     -39.769 -54.452  13.812  1.00  0.00     0.069 C 
HETATM    8  C   UNL     1     -42.110 -54.607  14.651  1.00  0.00     0.028 A 
HETATM    9  C   UNL     1     -43.547 -54.281  14.462  1.00  0.00     0.256 A 
HETATM   10  C   UNL     1     -41.728 -55.435  15.839  1.00  0.00     0.056 C 
HETATM   11  O   UNL     1     -44.395 -54.626  15.283  1.00  0.00    -0.267 OA
ENDBRANCH   1   2
BRANCH   1  12
HETATM   12  C   UNL     1     -45.650 -51.836  13.136  1.00  0.00     0.169 C 
BRANCH  12  13
HETATM   13  O   UNL     1     -46.878 -51.638  12.420  1.00  0.00    -0.389 OA
HETATM   14  H   UNL     1     -47.565 -52.182  12.845  1.00  0.00     0.210 HD
ENDBRANCH  12  13
BRANCH  12  15
HETATM   15  C   UNL     1     -45.860 -51.358  14.570  1.00  0.00    -0.025 A 
HETATM   16  C   UNL     1     -44.844 -50.776  15.349  1.00  0.00     0.010 A 
HETATM   17  C   UNL     1     -45.081 -50.385  16.672  1.00  0.00     0.004 A 
HETATM   18  C   UNL     1     -46.338 -50.566  17.240  1.00  0.00     0.042 A 
HETATM   19  C   UNL     1     -47.353 -51.126  16.476  1.00  0.00     0.117 A 
HETATM   20  F   UNL     1     -48.563 -51.302  17.021  1.00  0.00    -0.206 F 
HETATM   21  C   UNL     1     -47.129 -51.516  15.157  1.00  0.00     0.052 A 
ENDBRANCH  12  15
ENDBRANCH   1  12
TORSDOF 4
ENDMDL
MODEL 4
REMARK VINA RESULT:      -6.0      2.442      3.445
REMARK  4 active torsions:
REMARK  status: ('A' for Active; 'I' for Inactive)
REMARK    1  A    between atoms: N_6  and  C_7 
REMARK    2  A    between atoms: C_7  and  C_8 
REMARK    3  A    between atoms: C_8  and  O_9 
REMARK    4  A    between atoms: C_8  and  C_10 
ROOT
HETATM    1  C   UNL     1     -42.443 -53.324  13.465  1.00  0.00     0.169 C 
ENDROOT
BRANCH   1   2
HETATM    2  N   UNL     1     -41.391 -52.388  13.080  1.00  0.00    -0.307 N 
HETATM    3  C   UNL     1     -41.410 -51.799  11.845  1.00  0.00     0.186 A 
HETATM    4  N   UNL     1     -40.495 -51.013  11.389  1.00  0.00    -0.355 N 
HETATM    5  C   UNL     1     -39.428 -50.743  12.210  1.00  0.00     0.017 A 
ATOM      6  HN  UNL     1     -40.561 -50.607  10.456  1.00  0.00     0.166 HD
HETATM    7  C   UNL     1     -38.367 -49.873  11.587  1.00  0.00     0.069 C 
HETATM    8  C   UNL     1     -39.310 -51.207  13.468  1.00  0.00     0.028 A 
HETATM    9  C   UNL     1     -40.396 -52.083  13.981  1.00  0.00     0.256 A 
HETATM   10  C   UNL     1     -38.154 -50.920  14.375  1.00  0.00     0.056 C 
HETATM   11  O   UNL     1     -40.382 -52.513  15.132  1.00  0.00    -0.267 OA
ENDBRANCH   1   2
BRANCH   1  12
HETATM   12  C   UNL     1     -43.808 -53.036  12.803  1.00  0.00     0.169 C 
BRANCH  12  13
HETATM   13  O   UNL     1     -44.193 -54.207  12.067  1.00  0.00    -0.389 OA
HETATM   14  H   UNL     1     -44.376 -54.917  12.707  1.00  0.00     0.210 HD
ENDBRANCH  12  13
BRANCH  12  15
HETATM   15  C   UNL     1     -44.938 -52.697  13.770  1.00  0.00    -0.025 A 
HETATM   16  C   UNL     1     -45.835 -51.633  13.571  1.00  0.00     0.010 A 
HETATM   17  C   UNL     1     -46.835 -51.344  14.507  1.00  0.00     0.004 A 
HETATM   18  C   UNL     1     -46.957 -52.114  15.660  1.00  0.00     0.042 A 
HETATM   19  C   UNL     1     -46.086 -53.175  15.861  1.00  0.00     0.117 A 
HETATM   20  F   UNL     1     -46.202 -53.917  16.970  1.00  0.00    -0.206 F 
HETATM   21  C   UNL     1     -45.090 -53.475  14.934  1.00  0.00     0.052 A 
ENDBRANCH  12  15
ENDBRANCH   1  12
TORSDOF 4
ENDMDL
MODEL 5
REMARK VINA RESULT:      -5.9      3.396      6.442
REMARK  4 active torsions:
REMARK  status: ('A' for Active; 'I' for Inactive)
REMARK    1  A    between atoms: N_6  and  C_7 
REMARK    2  A    between atoms: C_7  and  C_8 
REMARK    3  A    between atoms: C_8  and  O_9 
REMARK    4  A    between atoms: C_8  and  C_10 
ROOT
HETATM    1  C   UNL     1     -42.188 -51.898  12.308  1.00  0.00     0.169 C 
ENDROOT
BRANCH   1   2
HETATM    2  N   UNL     1     -43.330 -52.473  13.014  1.00  0.00    -0.307 N 
HETATM    3  C   UNL     1     -43.376 -53.816  13.274  1.00  0.00     0.186 A 
HETATM    4  N   UNL     1     -44.366 -54.426  13.830  1.00  0.00    -0.355 N 
HETATM    5  C   UNL     1     -45.451 -53.666  14.194  1.00  0.00     0.017 A 
ATOM      6  HN  UNL     1     -44.346 -55.432  13.994  1.00  0.00     0.166 HD
HETATM    7  C   UNL     1     -46.596 -54.454  14.775  1.00  0.00     0.069 C 
HETATM    8  C   UNL     1     -45.516 -52.329  14.050  1.00  0.00     0.028 A 
HETATM    9  C   UNL     1     -44.345 -51.647  13.439  1.00  0.00     0.256 A 
HETATM   10  C   UNL     1     -46.691 -51.488  14.444  1.00  0.00     0.056 C 
HETATM   11  O   UNL     1     -44.312 -50.425  13.311  1.00  0.00    -0.267 OA
ENDBRANCH   1   2
BRANCH   1  12
HETATM   12  C   UNL     1     -40.853 -52.622  12.588  1.00  0.00     0.169 C 
BRANCH  12  13
HETATM   13  O   UNL     1     -40.432 -53.251  11.368  1.00  0.00    -0.389 OA
HETATM   14  H   UNL     1     -39.579 -53.690  11.535  1.00  0.00     0.210 HD
ENDBRANCH  12  13
BRANCH  12  15
HETATM   15  C   UNL     1     -39.718 -51.723  13.070  1.00  0.00    -0.025 A 
HETATM   16  C   UNL     1     -39.077 -50.778  12.250  1.00  0.00     0.010 A 
HETATM   17  C   UNL     1     -38.018 -50.001  12.733  1.00  0.00     0.004 A 
HETATM   18  C   UNL     1     -37.581 -50.152  14.045  1.00  0.00     0.042 A 
HETATM   19  C   UNL     1     -38.216 -51.071  14.869  1.00  0.00     0.117 A 
HETATM   20  F   UNL     1     -37.797 -51.219  16.132  1.00  0.00    -0.206 F 
HETATM   21  C   UNL     1     -39.273 -51.848  14.400  1.00  0.00     0.052 A 
ENDBRANCH  12  15
ENDBRANCH   1  12
TORSDOF 4
ENDMDL
MODEL 6
REMARK VINA RESULT:      -5.8      2.677      3.470
REMARK  4 active torsions:
REMARK  status: ('A' for Active; 'I' for Inactive)
REMARK    1  A    between atoms: N_6  and  C_7 
REMARK    2  A    between atoms: C_7  and  C_8 
REMARK    3  A    between atoms: C_8  and  O_9 
REMARK    4  A    between atoms: C_8  and  C_10 
ROOT
HETATM    1  C   UNL     1     -39.780 -53.652  13.759  1.00  0.00     0.169 C 
ENDROOT
BRANCH   1   2
HETATM    2  N   UNL     1     -39.099 -52.624  14.541  1.00  0.00    -0.307 N 
HETATM    3  C   UNL     1     -39.031 -52.724  15.904  1.00  0.00     0.186 A 
HETATM    4  N   UNL     1     -38.511 -51.839  16.684  1.00  0.00    -0.355 N 
HETATM    5  C   UNL     1     -37.981 -50.716  16.098  1.00  0.00     0.017 A 
ATOM      6  HN  UNL     1     -38.494 -51.967  17.695  1.00  0.00     0.166 HD
HETATM    7  C   UNL     1     -37.453 -49.695  17.073  1.00  0.00     0.069 C 
HETATM    8  C   UNL     1     -37.928 -50.514  14.768  1.00  0.00     0.028 A 
HETATM    9  C   UNL     1     -38.503 -51.567  13.891  1.00  0.00     0.256 A 
HETATM   10  C   UNL     1     -37.351 -49.295  14.116  1.00  0.00     0.056 C 
HETATM   11  O   UNL     1     -38.456 -51.475  12.666  1.00  0.00    -0.267 OA
ENDBRANCH   1   2
BRANCH   1  12
HETATM   12  C   UNL     1     -40.911 -53.105  12.861  1.00  0.00     0.169 C 
BRANCH  12  13
HETATM   13  O   UNL     1     -40.635 -53.515  11.513  1.00  0.00    -0.389 OA
HETATM   14  H   UNL     1     -40.985 -54.416  11.396  1.00  0.00     0.210 HD
ENDBRANCH  12  13
BRANCH  12  15
HETATM   15  C   UNL     1     -42.313 -53.584  13.221  1.00  0.00    -0.025 A 
HETATM   16  C   UNL     1     -42.573 -54.540  14.218  1.00  0.00     0.010 A 
HETATM   17  C   UNL     1     -43.878 -54.970  14.487  1.00  0.00     0.004 A 
HETATM   18  C   UNL     1     -44.947 -54.450  13.766  1.00  0.00     0.042 A 
HETATM   19  C   UNL     1     -44.706 -53.495  12.788  1.00  0.00     0.117 A 
HETATM   20  F   UNL     1     -45.734 -52.994  12.092  1.00  0.00    -0.206 F 
HETATM   21  C   UNL     1     -43.411 -53.057  12.515  1.00  0.00     0.052 A 
ENDBRANCH  12  15
ENDBRANCH   1  12
TORSDOF 4
ENDMDL
MODEL 7
REMARK VINA RESULT:      -5.8      2.664      3.220
REMARK  4 active torsions:
REMARK  status: ('A' for Active; 'I' for Inactive)
REMARK    1  A    between atoms: N_6  and  C_7 
REMARK    2  A    between atoms: C_7  and  C_8 
REMARK    3  A    between atoms: C_8  and  O_9 
REMARK    4  A    between atoms: C_8  and  C_10 
ROOT
HETATM    1  C   UNL     1     -39.961 -51.651  12.817  1.00  0.00     0.169 C 
ENDROOT
BRANCH   1   2
HETATM    2  N   UNL     1     -40.669 -50.455  12.370  1.00  0.00    -0.307 N 
HETATM    3  C   UNL     1     -42.027 -50.477  12.204  1.00  0.00     0.186 A 
HETATM    4  N   UNL     1     -42.731 -49.496  11.752  1.00  0.00    -0.355 N 
HETATM    5  C   UNL     1     -42.066 -48.342  11.420  1.00  0.00     0.017 A 
ATOM      6  HN  UNL     1     -43.742 -49.574  11.645  1.00  0.00     0.166 HD
HETATM    7  C   UNL     1     -42.941 -47.264  10.835  1.00  0.00     0.069 C 
HETATM    8  C   UNL     1     -40.741 -48.162  11.586  1.00  0.00     0.028 A 
HETATM    9  C   UNL     1     -39.960 -49.297  12.142  1.00  0.00     0.256 A 
HETATM   10  C   UNL     1     -40.003 -46.909  11.230  1.00  0.00     0.056 C 
HETATM   11  O   UNL     1     -38.754 -49.197  12.361  1.00  0.00    -0.267 OA
ENDBRANCH   1   2
BRANCH   1  12
HETATM   12  C   UNL     1     -40.817 -52.936  12.769  1.00  0.00     0.169 C 
BRANCH  12  13
HETATM   13  O   UNL     1     -40.458 -53.656  11.579  1.00  0.00    -0.389 OA
HETATM   14  H   UNL     1     -40.599 -53.066  10.818  1.00  0.00     0.210 HD
ENDBRANCH  12  13
BRANCH  12  15
HETATM   15  C   UNL     1     -40.641 -53.876  13.958  1.00  0.00    -0.025 A 
HETATM   16  C   UNL     1     -41.704 -54.301  14.774  1.00  0.00     0.010 A 
HETATM   17  C   UNL     1     -41.483 -55.138  15.873  1.00  0.00     0.004 A 
HETATM   18  C   UNL     1     -40.195 -55.568  16.177  1.00  0.00     0.042 A 
HETATM   19  C   UNL     1     -39.139 -55.168  15.370  1.00  0.00     0.117 A 
HETATM   20  F   UNL     1     -37.898 -55.580  15.661  1.00  0.00    -0.206 F 
HETATM   21  C   UNL     1     -39.348 -54.337  14.271  1.00  0.00     0.052 A 
ENDBRANCH  12  15
ENDBRANCH   1  12
TORSDOF 4
ENDMDL
MODEL 8
REMARK VINA RESULT:      -5.8      2.667      6.253
REMARK  4 active torsions:
REMARK  status: ('A' for Active; 'I' for Inactive)
REMARK    1  A    between atoms: N_6  and  C_7 
REMARK    2  A    between atoms: C_7  and  C_8 
REMARK    3  A    between atoms: C_8  and  O_9 
REMARK    4  A    between atoms: C_8  and  C_10 
ROOT
HETATM    1  C   UNL     1     -40.371 -49.408  12.963  1.00  0.00     0.169 C 
ENDROOT
BRANCH   1   2
HETATM    2  N   UNL     1     -41.217 -50.591  12.841  1.00  0.00    -0.307 N 
HETATM    3  C   UNL     1     -42.573 -50.461  12.712  1.00  0.00     0.186 A 
HETATM    4  N   UNL     1     -43.407 -51.443  12.664  1.00  0.00    -0.355 N 
HETATM    5  C   UNL     1     -42.892 -52.713  12.740  1.00  0.00     0.017 A 
ATOM      6  HN  UNL     1     -44.410 -51.283  12.572  1.00  0.00     0.166 HD
HETATM    7  C   UNL     1     -43.928 -53.807  12.746  1.00  0.00     0.069 C 
HETATM    8  C   UNL     1     -41.575 -52.989  12.811  1.00  0.00     0.028 A 
HETATM    9  C   UNL     1     -40.634 -51.838  12.829  1.00  0.00     0.256 A 
HETATM   10  C   UNL     1     -40.999 -54.368  12.893  1.00  0.00     0.056 C 
HETATM   11  O   UNL     1     -39.417 -52.008  12.851  1.00  0.00    -0.267 OA
ENDBRANCH   1   2
BRANCH   1  12
HETATM   12  C   UNL     1     -39.945 -48.803  11.607  1.00  0.00     0.169 C 
BRANCH  12  13
HETATM   13  O   UNL     1     -39.825 -49.882  10.666  1.00  0.00    -0.389 OA
HETATM   14  H   UNL     1     -40.610 -49.867  10.091  1.00  0.00     0.210 HD
ENDBRANCH  12  13
BRANCH  12  15
HETATM   15  C   UNL     1     -40.910 -47.776  11.024  1.00  0.00    -0.025 A 
HETATM   16  C   UNL     1     -40.834 -46.399  11.299  1.00  0.00     0.010 A 
HETATM   17  C   UNL     1     -41.766 -45.502  10.764  1.00  0.00     0.004 A 
HETATM   18  C   UNL     1     -42.789 -45.964   9.943  1.00  0.00     0.042 A 
HETATM   19  C   UNL     1     -42.867 -47.319   9.653  1.00  0.00     0.117 A 
HETATM   20  F   UNL     1     -43.852 -47.766   8.864  1.00  0.00    -0.206 F 
HETATM   21  C   UNL     1     -41.942 -48.221  10.177  1.00  0.00     0.052 A 
ENDBRANCH  12  15
ENDBRANCH   1  12
TORSDOF 4
ENDMDL
MODEL 9
REMARK VINA RESULT:      -5.8      2.964      3.290
REMARK  4 active torsions:
REMARK  status: ('A' for Active; 'I' for Inactive)
REMARK    1  A    between atoms: N_6  and  C_7 
REMARK    2  A    between atoms: C_7  and  C_8 
REMARK    3  A    between atoms: C_8  and  O_9 
REMARK    4  A    between atoms: C_8  and  C_10 
ROOT
HETATM    1  C   UNL     1     -42.446 -49.168  13.441  1.00  0.00     0.169 C 
ENDROOT
BRANCH   1   2
HETATM    2  N   UNL     1     -41.107 -49.257  12.865  1.00  0.00    -0.307 N 
HETATM    3  C   UNL     1     -40.919 -49.829  11.636  1.00  0.00     0.186 A 
HETATM    4  N   UNL     1     -39.773 -50.012  11.075  1.00  0.00    -0.355 N 
HETATM    5  C   UNL     1     -38.661 -49.594  11.762  1.00  0.00     0.017 A 
ATOM      6  HN  UNL     1     -39.696 -50.451  10.158  1.00  0.00     0.166 HD
HETATM    7  C   UNL     1     -37.354 -49.901  11.078  1.00  0.00     0.069 C 
HETATM    8  C   UNL     1     -38.702 -48.965  12.952  1.00  0.00     0.028 A 
HETATM    9  C   UNL     1     -40.039 -48.735  13.559  1.00  0.00     0.256 A 
HETATM   10  C   UNL     1     -37.497 -48.501  13.711  1.00  0.00     0.056 C 
HETATM   11  O   UNL     1     -40.163 -48.131  14.623  1.00  0.00    -0.267 OA
ENDBRANCH   1   2
BRANCH   1  12
HETATM   12  C   UNL     1     -42.762 -50.286  14.459  1.00  0.00     0.169 C 
BRANCH  12  13
HETATM   13  O   UNL     1     -42.365 -49.819  15.757  1.00  0.00    -0.389 OA
HETATM   14  H   UNL     1     -43.026 -49.172  16.059  1.00  0.00     0.210 HD
ENDBRANCH  12  13
BRANCH  12  15
HETATM   15  C   UNL     1     -44.229 -50.696  14.535  1.00  0.00    -0.025 A 
HETATM   16  C   UNL     1     -44.945 -50.792  15.741  1.00  0.00     0.010 A 
HETATM   17  C   UNL     1     -46.283 -51.205  15.759  1.00  0.00     0.004 A 
HETATM   18  C   UNL     1     -46.930 -51.528  14.571  1.00  0.00     0.042 A 
HETATM   19  C   UNL     1     -46.238 -51.424  13.372  1.00  0.00     0.117 A 
HETATM   20  F   UNL     1     -46.859 -51.736  12.227  1.00  0.00    -0.206 F 
HETATM   21  C   UNL     1     -44.908 -51.010  13.342  1.00  0.00     0.052 A 
ENDBRANCH  12  15
ENDBRANCH   1  12
TORSDOF 4
ENDMDL
