MODEL 1
REMARK VINA RESULT:      -6.7      0.000      0.000
REMARK  4 active torsions:
REMARK  status: ('A' for Active; 'I' for Inactive)
REMARK    1  A    between atoms: C_2  and  C_3 
REMARK    2  A    between atoms: N_9  and  C_10 
REMARK    3  A    between atoms: C_10  and  C_11 
REMARK    4  A    between atoms: C_11  and  N_12 
REMARK       I    between atoms: N_12  and  C_13 
REMARK       I    between atoms: C_13  and  N_15 
ROOT
HETATM    1  N   UNL     1     -41.862 -49.611  11.461  1.00  0.00    -0.341 N 
HETATM    2  C   UNL     1     -42.612 -50.277  12.398  1.00  0.00     0.318 C 
HETATM    3  O   UNL     1     -43.492 -49.709  13.033  1.00  0.00    -0.247 OA
HETATM    4  N   UNL     1     -42.258 -51.587  12.603  1.00  0.00    -0.329 N 
HETATM    5  C   UNL     1     -41.173 -52.308  11.931  1.00  0.00     0.128 C 
HETATM    6  C   UNL     1     -41.018 -53.630  12.689  1.00  0.00     0.026 C 
HETATM    7  C   UNL     1     -42.360 -53.770  13.393  1.00  0.00     0.010 C 
HETATM    8  C   UNL     1     -42.419 -54.687  14.604  1.00  0.00     0.007 C 
HETATM    9  C   UNL     1     -43.814 -54.605  15.236  1.00  0.00     0.001 C 
HETATM   10  C   UNL     1     -44.240 -53.164  15.536  1.00  0.00     0.002 C 
HETATM   11  C   UNL     1     -44.095 -52.235  14.321  1.00  0.00     0.026 C 
HETATM   12  C   UNL     1     -42.666 -52.324  13.789  1.00  0.00     0.093 C 
HETATM   13  H   UNL     1     -41.526 -50.181  10.698  1.00  0.00     0.164 HD
ENDROOT
BRANCH   1  14
HETATM   14  C   UNL     1     -42.138 -48.215  11.158  1.00  0.00     0.144 C 
BRANCH  14  15
HETATM   15  C   UNL     1     -42.499 -47.959   9.691  1.00  0.00     0.151 C 
BRANCH  15  16
HETATM   16  N   UNL     1     -43.343 -46.799   9.530  1.00  0.00    -0.329 N 
HETATM   17  C   UNL     1     -44.600 -46.740   8.978  1.00  0.00     0.098 A 
HETATM   18  N   UNL     1     -45.024 -45.492   9.051  1.00  0.00    -0.288 N 
HETATM   19  N   UNL     1     -44.050 -44.739   9.667  1.00  0.00    -0.295 N 
ATOM     20  HN  UNL     1     -45.920 -45.145   8.709  1.00  0.00     0.188 HD
HETATM   21  C   UNL     1     -43.053 -45.540   9.955  1.00  0.00     0.201 A 
ATOM     22  HN  UNL     1     -44.096 -43.739   9.865  1.00  0.00     0.187 HD
BRANCH  17  23
HETATM   23  C   UNL     1     -45.344 -47.888   8.391  1.00  0.00     0.073 C 
HETATM   24  C   UNL     1     -46.718 -48.055   9.020  1.00  0.00     0.013 C 
ENDBRANCH  17  23
ENDBRANCH  15  16
ENDBRANCH  14  15
ENDBRANCH   1  14
TORSDOF 4
ENDMDL
MODEL 2
REMARK VINA RESULT:      -6.6      1.129      1.932
REMARK  4 active torsions:
REMARK  status: ('A' for Active; 'I' for Inactive)
REMARK    1  A    between atoms: C_2  and  C_3 
REMARK    2  A    between atoms: N_9  and  C_10 
REMARK    3  A    between atoms: C_10  and  C_11 
REMARK    4  A    between atoms: C_11  and  N_12 
REMARK       I    between atoms: N_12  and  C_13 
REMARK       I    between atoms: C_13  and  N_15 
ROOT
HETATM    1  N   UNL     1     -43.381 -49.253  12.195  1.00  0.00    -0.341 N 
HETATM    2  C   UNL     1     -42.809 -50.379  12.732  1.00  0.00     0.318 C 
HETATM    3  O   UNL     1     -41.594 -50.537  12.740  1.00  0.00    -0.247 OA
HETATM    4  N   UNL     1     -43.697 -51.320  13.192  1.00  0.00    -0.329 N 
HETATM    5  C   UNL     1     -45.158 -51.227  13.148  1.00  0.00     0.128 C 
HETATM    6  C   UNL     1     -45.676 -52.618  13.528  1.00  0.00     0.026 C 
HETATM    7  C   UNL     1     -44.486 -53.230  14.252  1.00  0.00     0.010 C 
HETATM    8  C   UNL     1     -44.436 -54.746  14.353  1.00  0.00     0.007 C 
HETATM    9  C   UNL     1     -43.117 -55.169  15.010  1.00  0.00     0.001 C 
HETATM   10  C   UNL     1     -41.893 -54.560  14.316  1.00  0.00     0.002 C 
HETATM   11  C   UNL     1     -42.000 -53.037  14.151  1.00  0.00     0.026 C 
HETATM   12  C   UNL     1     -43.306 -52.700  13.435  1.00  0.00     0.093 C 
HETATM   13  H   UNL     1     -44.256 -48.975  12.614  1.00  0.00     0.164 HD
ENDROOT
BRANCH   1  14
HETATM   14  C   UNL     1     -42.543 -48.185  11.669  1.00  0.00     0.144 C 
BRANCH  14  15
HETATM   15  C   UNL     1     -42.660 -47.995  10.153  1.00  0.00     0.151 C 
BRANCH  15  16
HETATM   16  N   UNL     1     -43.408 -46.809   9.807  1.00  0.00    -0.329 N 
HETATM   17  C   UNL     1     -44.643 -46.735   9.209  1.00  0.00     0.098 A 
HETATM   18  N   UNL     1     -44.970 -45.461   9.097  1.00  0.00    -0.288 N 
HETATM   19  N   UNL     1     -43.957 -44.704   9.638  1.00  0.00    -0.295 N 
ATOM     20  HN  UNL     1     -45.828 -45.100   8.681  1.00  0.00     0.188 HD
HETATM   21  C   UNL     1     -43.031 -45.529  10.066  1.00  0.00     0.201 A 
ATOM     22  HN  UNL     1     -43.930 -43.686   9.696  1.00  0.00     0.187 HD
BRANCH  17  23
HETATM   23  C   UNL     1     -45.460 -47.895   8.759  1.00  0.00     0.073 C 
HETATM   24  C   UNL     1     -46.940 -47.689   9.036  1.00  0.00     0.013 C 
ENDBRANCH  17  23
ENDBRANCH  15  16
ENDBRANCH  14  15
ENDBRANCH   1  14
TORSDOF 4
ENDMDL
MODEL 3
REMARK VINA RESULT:      -6.3      2.925      4.251
REMARK  4 active torsions:
REMARK  status: ('A' for Active; 'I' for Inactive)
REMARK    1  A    between atoms: C_2  and  C_3 
REMARK    2  A    between atoms: N_9  and  C_10 
REMARK    3  A    between atoms: C_10  and  C_11 
REMARK    4  A    between atoms: C_11  and  N_12 
REMARK       I    between atoms: N_12  and  C_13 
REMARK       I    between atoms: C_13  and  N_15 
ROOT
HETATM    1  N   UNL     1     -41.262 -50.149  14.411  1.00  0.00    -0.341 N 
HETATM    2  C   UNL     1     -42.501 -50.730  14.296  1.00  0.00     0.318 C 
HETATM    3  O   UNL     1     -43.524 -50.056  14.292  1.00  0.00    -0.247 OA
HETATM    4  N   UNL     1     -42.497 -52.102  14.248  1.00  0.00    -0.329 N 
HETATM    5  C   UNL     1     -41.319 -52.969  14.319  1.00  0.00     0.128 C 
HETATM    6  C   UNL     1     -41.858 -54.393  14.494  1.00  0.00     0.026 C 
HETATM    7  C   UNL     1     -43.289 -54.271  13.991  1.00  0.00     0.010 C 
HETATM    8  C   UNL     1     -44.281 -55.330  14.445  1.00  0.00     0.007 C 
HETATM    9  C   UNL     1     -45.679 -54.971  13.931  1.00  0.00     0.001 C 
HETATM   10  C   UNL     1     -46.094 -53.543  14.301  1.00  0.00     0.002 C 
HETATM   11  C   UNL     1     -45.042 -52.496  13.906  1.00  0.00     0.026 C 
HETATM   12  C   UNL     1     -43.694 -52.888  14.507  1.00  0.00     0.093 C 
HETATM   13  H   UNL     1     -40.511 -50.648  13.958  1.00  0.00     0.164 HD
ENDROOT
BRANCH   1  14
HETATM   14  C   UNL     1     -41.135 -48.701  14.475  1.00  0.00     0.144 C 
BRANCH  14  15
HETATM   15  C   UNL     1     -40.182 -48.116  13.427  1.00  0.00     0.151 C 
BRANCH  15  16
HETATM   16  N   UNL     1     -40.424 -48.652  12.108  1.00  0.00    -0.329 N 
HETATM   17  C   UNL     1     -39.718 -49.632  11.454  1.00  0.00     0.098 A 
HETATM   18  N   UNL     1     -40.289 -49.839  10.282  1.00  0.00    -0.288 N 
HETATM   19  N   UNL     1     -41.380 -49.005  10.179  1.00  0.00    -0.295 N 
ATOM     20  HN  UNL     1     -39.976 -50.503   9.575  1.00  0.00     0.188 HD
HETATM   21  C   UNL     1     -41.450 -48.306  11.286  1.00  0.00     0.201 A 
ATOM     22  HN  UNL     1     -42.018 -48.943   9.385  1.00  0.00     0.187 HD
BRANCH  17  23
HETATM   23  C   UNL     1     -38.512 -50.329  11.978  1.00  0.00     0.073 C 
HETATM   24  C   UNL     1     -37.279 -50.042  11.136  1.00  0.00     0.013 C 
ENDBRANCH  17  23
ENDBRANCH  15  16
ENDBRANCH  14  15
ENDBRANCH   1  14
TORSDOF 4
ENDMDL
MODEL 4
REMARK VINA RESULT:      -6.2      1.822      3.033
REMARK  4 active torsions:
REMARK  status: ('A' for Active; 'I' for Inactive)
REMARK    1  A    between atoms: C_2  and  C_3 
REMARK    2  A    between atoms: N_9  and  C_10 
REMARK    3  A    between atoms: C_10  and  C_11 
REMARK    4  A    between atoms: C_11  and  N_12 
REMARK       I    between atoms: N_12  and  C_13 
REMARK       I    between atoms: C_13  and  N_15 
ROOT
HETATM    1  N   UNL     1     -41.629 -50.445  12.418  1.00  0.00    -0.341 N 
HETATM    2  C   UNL     1     -42.893 -50.541  12.943  1.00  0.00     0.318 C 
HETATM    3  O   UNL     1     -43.521 -49.545  13.282  1.00  0.00    -0.247 OA
HETATM    4  N   UNL     1     -43.358 -51.821  13.111  1.00  0.00    -0.329 N 
HETATM    5  C   UNL     1     -42.634 -53.055  12.794  1.00  0.00     0.128 C 
HETATM    6  C   UNL     1     -43.461 -54.192  13.403  1.00  0.00     0.026 C 
HETATM    7  C   UNL     1     -44.835 -53.558  13.560  1.00  0.00     0.010 C 
HETATM    8  C   UNL     1     -45.787 -54.196  14.558  1.00  0.00     0.007 C 
HETATM    9  C   UNL     1     -47.063 -53.352  14.655  1.00  0.00     0.001 C 
HETATM   10  C   UNL     1     -46.771 -51.876  14.945  1.00  0.00     0.002 C 
HETATM   11  C   UNL     1     -45.745 -51.271  13.975  1.00  0.00     0.026 C 
HETATM   12  C   UNL     1     -44.482 -52.129  13.982  1.00  0.00     0.093 C 
HETATM   13  H   UNL     1     -41.380 -51.174  11.765  1.00  0.00     0.164 HD
ENDROOT
BRANCH   1  14
HETATM   14  C   UNL     1     -41.024 -49.140  12.196  1.00  0.00     0.144 C 
BRANCH  14  15
HETATM   15  C   UNL     1     -41.163 -48.628  10.758  1.00  0.00     0.151 C 
BRANCH  15  16
HETATM   16  N   UNL     1     -42.067 -47.507  10.662  1.00  0.00    -0.329 N 
HETATM   17  C   UNL     1     -41.794 -46.181  10.895  1.00  0.00     0.098 A 
HETATM   18  N   UNL     1     -42.895 -45.488  10.668  1.00  0.00    -0.288 N 
HETATM   19  N   UNL     1     -43.882 -46.361  10.268  1.00  0.00    -0.295 N 
ATOM     20  HN  UNL     1     -42.996 -44.479  10.771  1.00  0.00     0.188 HD
HETATM   21  C   UNL     1     -43.365 -47.567  10.263  1.00  0.00     0.201 A 
ATOM     22  HN  UNL     1     -44.840 -46.115  10.022  1.00  0.00     0.187 HD
BRANCH  17  23
HETATM   23  C   UNL     1     -40.484 -45.629  11.338  1.00  0.00     0.073 C 
HETATM   24  C   UNL     1     -39.724 -44.983  10.192  1.00  0.00     0.013 C 
ENDBRANCH  17  23
ENDBRANCH  15  16
ENDBRANCH  14  15
ENDBRANCH   1  14
TORSDOF 4
ENDMDL
MODEL 5
REMARK VINA RESULT:      -6.1      2.720      7.367
REMARK  4 active torsions:
REMARK  status: ('A' for Active; 'I' for Inactive)
REMARK    1  A    between atoms: C_2  and  C_3 
REMARK    2  A    between atoms: N_9  and  C_10 
REMARK    3  A    between atoms: C_10  and  C_11 
REMARK    4  A    between atoms: C_11  and  N_12 
REMARK       I    between atoms: N_12  and  C_13 
REMARK       I    between atoms: C_13  and  N_15 
ROOT
HETATM    1  N   UNL     1     -42.281 -50.434  11.907  1.00  0.00    -0.341 N 
HETATM    2  C   UNL     1     -41.430 -49.456  12.359  1.00  0.00     0.318 C 
HETATM    3  O   UNL     1     -40.744 -49.619  13.360  1.00  0.00    -0.247 OA
HETATM    4  N   UNL     1     -41.461 -48.284  11.645  1.00  0.00    -0.329 N 
HETATM    5  C   UNL     1     -42.307 -47.998  10.483  1.00  0.00     0.128 C 
HETATM    6  C   UNL     1     -42.165 -46.494  10.224  1.00  0.00     0.026 C 
HETATM    7  C   UNL     1     -40.860 -46.156  10.931  1.00  0.00     0.010 C 
HETATM    8  C   UNL     1     -40.628 -44.702  11.308  1.00  0.00     0.007 C 
HETATM    9  C   UNL     1     -39.324 -44.585  12.105  1.00  0.00     0.001 C 
HETATM   10  C   UNL     1     -39.277 -45.544  13.300  1.00  0.00     0.002 C 
HETATM   11  C   UNL     1     -39.594 -46.996  12.911  1.00  0.00     0.026 C 
HETATM   12  C   UNL     1     -40.934 -47.038  12.179  1.00  0.00     0.093 C 
HETATM   13  H   UNL     1     -42.434 -50.441  10.910  1.00  0.00     0.164 HD
ENDROOT
BRANCH   1  14
HETATM   14  C   UNL     1     -42.343 -51.721  12.584  1.00  0.00     0.144 C 
BRANCH  14  15
HETATM   15  C   UNL     1     -43.312 -51.751  13.772  1.00  0.00     0.151 C 
BRANCH  15  16
HETATM   16  N   UNL     1     -44.247 -52.848  13.688  1.00  0.00    -0.329 N 
HETATM   17  C   UNL     1     -45.619 -52.789  13.693  1.00  0.00     0.098 A 
HETATM   18  N   UNL     1     -46.085 -54.018  13.572  1.00  0.00    -0.288 N 
HETATM   19  N   UNL     1     -45.015 -54.879  13.469  1.00  0.00    -0.295 N 
ATOM     20  HN  UNL     1     -47.069 -54.285  13.557  1.00  0.00     0.188 HD
HETATM   21  C   UNL     1     -43.921 -54.159  13.532  1.00  0.00     0.201 A 
ATOM     22  HN  UNL     1     -45.065 -55.892  13.363  1.00  0.00     0.187 HD
BRANCH  17  23
HETATM   23  C   UNL     1     -46.434 -51.550  13.825  1.00  0.00     0.073 C 
HETATM   24  C   UNL     1     -46.957 -51.362  15.240  1.00  0.00     0.013 C 
ENDBRANCH  17  23
ENDBRANCH  15  16
ENDBRANCH  14  15
ENDBRANCH   1  14
TORSDOF 4
ENDMDL
MODEL 6
REMARK VINA RESULT:      -6.1      3.136      6.946
REMARK  4 active torsions:
REMARK  status: ('A' for Active; 'I' for Inactive)
REMARK    1  A    between atoms: C_2  and  C_3 
REMARK    2  A    between atoms: N_9  and  C_10 
REMARK    3  A    between atoms: C_10  and  C_11 
REMARK    4  A    between atoms: C_11  and  N_12 
REMARK       I    between atoms: N_12  and  C_13 
REMARK       I    between atoms: C_13  and  N_15 
ROOT
HETATM    1  N   UNL     1     -42.867 -51.280  12.670  1.00  0.00    -0.341 N 
HETATM    2  C   UNL     1     -41.795 -50.509  13.045  1.00  0.00     0.318 C 
HETATM    3  O   UNL     1     -40.855 -50.983  13.670  1.00  0.00    -0.247 OA
HETATM    4  N   UNL     1     -41.896 -49.178  12.724  1.00  0.00    -0.329 N 
HETATM    5  C   UNL     1     -43.021 -48.533  12.042  1.00  0.00     0.128 C 
HETATM    6  C   UNL     1     -42.771 -47.026  12.159  1.00  0.00     0.026 C 
HETATM    7  C   UNL     1     -41.277 -46.956  12.440  1.00  0.00     0.010 C 
HETATM    8  C   UNL     1     -40.747 -45.687  13.087  1.00  0.00     0.007 C 
HETATM    9  C   UNL     1     -39.254 -45.856  13.391  1.00  0.00     0.001 C 
HETATM   10  C   UNL     1     -38.958 -47.125  14.198  1.00  0.00     0.002 C 
HETATM   11  C   UNL     1     -39.571 -48.386  13.570  1.00  0.00     0.026 C 
HETATM   12  C   UNL     1     -41.067 -48.164  13.357  1.00  0.00     0.093 C 
HETATM   13  H   UNL     1     -43.328 -50.988  11.821  1.00  0.00     0.164 HD
ENDROOT
BRANCH   1  14
HETATM   14  C   UNL     1     -42.881 -52.706  12.959  1.00  0.00     0.144 C 
BRANCH  14  15
HETATM   15  C   UNL     1     -43.999 -53.473  12.244  1.00  0.00     0.151 C 
BRANCH  15  16
HETATM   16  N   UNL     1     -45.130 -53.721  13.106  1.00  0.00    -0.329 N 
HETATM   17  C   UNL     1     -46.225 -52.918  13.312  1.00  0.00     0.098 A 
HETATM   18  N   UNL     1     -47.033 -53.532  14.157  1.00  0.00    -0.288 N 
HETATM   19  N   UNL     1     -46.473 -54.745  14.488  1.00  0.00    -0.295 N 
ATOM     20  HN  UNL     1     -47.921 -53.170  14.504  1.00  0.00     0.188 HD
HETATM   21  C   UNL     1     -45.335 -54.845  13.843  1.00  0.00     0.201 A 
ATOM     22  HN  UNL     1     -46.870 -55.440  15.121  1.00  0.00     0.187 HD
BRANCH  17  23
HETATM   23  C   UNL     1     -46.451 -51.582  12.695  1.00  0.00     0.073 C 
HETATM   24  C   UNL     1     -47.190 -51.687  11.370  1.00  0.00     0.013 C 
ENDBRANCH  17  23
ENDBRANCH  15  16
ENDBRANCH  14  15
ENDBRANCH   1  14
TORSDOF 4
ENDMDL
MODEL 7
REMARK VINA RESULT:      -6.0      2.392      3.444
REMARK  4 active torsions:
REMARK  status: ('A' for Active; 'I' for Inactive)
REMARK    1  A    between atoms: C_2  and  C_3 
REMARK    2  A    between atoms: N_9  and  C_10 
REMARK    3  A    between atoms: C_10  and  C_11 
REMARK    4  A    between atoms: C_11  and  N_12 
REMARK       I    between atoms: N_12  and  C_13 
REMARK       I    between atoms: C_13  and  N_15 
ROOT
HETATM    1  N   UNL     1     -39.434 -50.730  12.381  1.00  0.00    -0.341 N 
HETATM    2  C   UNL     1     -40.535 -51.521  12.602  1.00  0.00     0.318 C 
HETATM    3  O   UNL     1     -41.586 -51.334  12.002  1.00  0.00    -0.247 OA
HETATM    4  N   UNL     1     -40.379 -52.475  13.576  1.00  0.00    -0.329 N 
HETATM    5  C   UNL     1     -39.176 -52.705  14.380  1.00  0.00     0.128 C 
HETATM    6  C   UNL     1     -39.593 -53.681  15.486  1.00  0.00     0.026 C 
HETATM    7  C   UNL     1     -40.851 -54.317  14.912  1.00  0.00     0.010 C 
HETATM    8  C   UNL     1     -41.812 -54.969  15.892  1.00  0.00     0.007 C 
HETATM    9  C   UNL     1     -43.060 -55.446  15.140  1.00  0.00     0.001 C 
HETATM   10  C   UNL     1     -43.700 -54.335  14.300  1.00  0.00     0.002 C 
HETATM   11  C   UNL     1     -42.695 -53.634  13.375  1.00  0.00     0.026 C 
HETATM   12  C   UNL     1     -41.514 -53.133  14.204  1.00  0.00     0.093 C 
HETATM   13  H   UNL     1     -38.545 -51.187  12.519  1.00  0.00     0.164 HD
ENDROOT
BRANCH   1  14
HETATM   14  C   UNL     1     -39.477 -49.679  11.376  1.00  0.00     0.144 C 
BRANCH  14  15
HETATM   15  C   UNL     1     -39.927 -48.318  11.920  1.00  0.00     0.151 C 
BRANCH  15  16
HETATM   16  N   UNL     1     -40.806 -47.627  11.006  1.00  0.00    -0.329 N 
HETATM   17  C   UNL     1     -40.763 -46.307  10.631  1.00  0.00     0.098 A 
HETATM   18  N   UNL     1     -41.732 -46.095   9.760  1.00  0.00    -0.288 N 
HETATM   19  N   UNL     1     -42.396 -47.282   9.552  1.00  0.00    -0.295 N 
ATOM     20  HN  UNL     1     -41.951 -45.203   9.316  1.00  0.00     0.188 HD
HETATM   21  C   UNL     1     -41.822 -48.193  10.302  1.00  0.00     0.201 A 
ATOM     22  HN  UNL     1     -43.190 -47.428   8.929  1.00  0.00     0.187 HD
BRANCH  17  23
HETATM   23  C   UNL     1     -39.796 -45.293  11.133  1.00  0.00     0.073 C 
HETATM   24  C   UNL     1     -40.449 -43.935  11.334  1.00  0.00     0.013 C 
ENDBRANCH  17  23
ENDBRANCH  15  16
ENDBRANCH  14  15
ENDBRANCH   1  14
TORSDOF 4
ENDMDL
MODEL 8
REMARK VINA RESULT:      -6.0      4.158      8.375
REMARK  4 active torsions:
REMARK  status: ('A' for Active; 'I' for Inactive)
REMARK    1  A    between atoms: C_2  and  C_3 
REMARK    2  A    between atoms: N_9  and  C_10 
REMARK    3  A    between atoms: C_10  and  C_11 
REMARK    4  A    between atoms: C_11  and  N_12 
REMARK       I    between atoms: N_12  and  C_13 
REMARK       I    between atoms: C_13  and  N_15 
ROOT
HETATM    1  N   UNL     1     -38.889 -48.959  13.977  1.00  0.00    -0.341 N 
HETATM    2  C   UNL     1     -39.172 -48.084  12.958  1.00  0.00     0.318 C 
HETATM    3  O   UNL     1     -39.087 -48.422  11.784  1.00  0.00    -0.247 OA
HETATM    4  N   UNL     1     -39.489 -46.810  13.358  1.00  0.00    -0.329 N 
HETATM    5  C   UNL     1     -39.540 -46.321  14.739  1.00  0.00     0.128 C 
HETATM    6  C   UNL     1     -39.675 -44.798  14.638  1.00  0.00     0.026 C 
HETATM    7  C   UNL     1     -40.207 -44.604  13.226  1.00  0.00     0.010 C 
HETATM    8  C   UNL     1     -40.015 -43.236  12.591  1.00  0.00     0.007 C 
HETATM    9  C   UNL     1     -40.509 -43.274  11.140  1.00  0.00     0.001 C 
HETATM   10  C   UNL     1     -39.882 -44.418  10.335  1.00  0.00     0.002 C 
HETATM   11  C   UNL     1     -40.015 -45.780  11.033  1.00  0.00     0.026 C 
HETATM   12  C   UNL     1     -39.445 -45.678  12.446  1.00  0.00     0.093 C 
HETATM   13  H   UNL     1     -39.398 -48.799  14.834  1.00  0.00     0.164 HD
ENDROOT
BRANCH   1  14
HETATM   14  C   UNL     1     -38.533 -50.339  13.680  1.00  0.00     0.144 C 
BRANCH  14  15
HETATM   15  C   UNL     1     -39.540 -51.366  14.211  1.00  0.00     0.151 C 
BRANCH  15  16
HETATM   16  N   UNL     1     -40.172 -52.112  13.148  1.00  0.00    -0.329 N 
HETATM   17  C   UNL     1     -40.411 -53.464  13.093  1.00  0.00     0.098 A 
HETATM   18  N   UNL     1     -41.031 -53.726  11.958  1.00  0.00    -0.288 N 
HETATM   19  N   UNL     1     -41.213 -52.542  11.279  1.00  0.00    -0.295 N 
ATOM     20  HN  UNL     1     -41.325 -54.649  11.638  1.00  0.00     0.188 HD
HETATM   21  C   UNL     1     -40.699 -51.584  12.012  1.00  0.00     0.201 A 
ATOM     22  HN  UNL     1     -41.666 -52.431  10.372  1.00  0.00     0.187 HD
BRANCH  17  23
HETATM   23  C   UNL     1     -40.024 -54.457  14.133  1.00  0.00     0.073 C 
HETATM   24  C   UNL     1     -41.092 -54.601  15.205  1.00  0.00     0.013 C 
ENDBRANCH  17  23
ENDBRANCH  15  16
ENDBRANCH  14  15
ENDBRANCH   1  14
TORSDOF 4
ENDMDL
MODEL 9
REMARK VINA RESULT:      -6.0      2.258      3.465
REMARK  4 active torsions:
REMARK  status: ('A' for Active; 'I' for Inactive)
REMARK    1  A    between atoms: C_2  and  C_3 
REMARK    2  A    between atoms: N_9  and  C_10 
REMARK    3  A    between atoms: C_10  and  C_11 
REMARK    4  A    between atoms: C_11  and  N_12 
REMARK       I    between atoms: N_12  and  C_13 
REMARK       I    between atoms: C_13  and  N_15 
ROOT
HETATM    1  N   UNL     1     -41.294 -50.882  11.699  1.00  0.00    -0.341 N 
HETATM    2  C   UNL     1     -40.995 -51.686  12.771  1.00  0.00     0.318 C 
HETATM    3  O   UNL     1     -39.892 -51.657  13.303  1.00  0.00    -0.247 OA
HETATM    4  N   UNL     1     -41.994 -52.549  13.146  1.00  0.00    -0.329 N 
HETATM    5  C   UNL     1     -43.308 -52.685  12.511  1.00  0.00     0.128 C 
HETATM    6  C   UNL     1     -43.937 -53.943  13.118  1.00  0.00     0.026 C 
HETATM    7  C   UNL     1     -43.152 -54.117  14.410  1.00  0.00     0.010 C 
HETATM    8  C   UNL     1     -43.149 -55.499  15.043  1.00  0.00     0.007 C 
HETATM    9  C   UNL     1     -42.219 -55.499  16.261  1.00  0.00     0.001 C 
HETATM   10  C   UNL     1     -40.818 -54.973  15.931  1.00  0.00     0.002 C 
HETATM   11  C   UNL     1     -40.846 -53.612  15.219  1.00  0.00     0.026 C 
HETATM   12  C   UNL     1     -41.740 -53.710  13.985  1.00  0.00     0.093 C 
HETATM   13  H   UNL     1     -42.264 -50.613  11.622  1.00  0.00     0.164 HD
ENDROOT
BRANCH   1  14
HETATM   14  C   UNL     1     -40.314 -49.927  11.203  1.00  0.00     0.144 C 
BRANCH  14  15
HETATM   15  C   UNL     1     -40.468 -48.519  11.790  1.00  0.00     0.151 C 
BRANCH  15  16
HETATM   16  N   UNL     1     -41.141 -47.619  10.883  1.00  0.00    -0.329 N 
HETATM   17  C   UNL     1     -40.851 -46.300  10.634  1.00  0.00     0.098 A 
HETATM   18  N   UNL     1     -41.693 -45.858   9.720  1.00  0.00    -0.288 N 
HETATM   19  N   UNL     1     -42.523 -46.896   9.358  1.00  0.00    -0.295 N 
ATOM     20  HN  UNL     1     -41.724 -44.911   9.345  1.00  0.00     0.188 HD
HETATM   21  C   UNL     1     -42.172 -47.946  10.060  1.00  0.00     0.201 A 
ATOM     22  HN  UNL     1     -43.274 -46.854   8.669  1.00  0.00     0.187 HD
BRANCH  17  23
HETATM   23  C   UNL     1     -39.776 -45.508  11.295  1.00  0.00     0.073 C 
HETATM   24  C   UNL     1     -40.183 -44.057  11.495  1.00  0.00     0.013 C 
ENDBRANCH  17  23
ENDBRANCH  15  16
ENDBRANCH  14  15
ENDBRANCH   1  14
TORSDOF 4
ENDMDL
