MODEL 1
REMARK VINA RESULT:      -6.7      0.000      0.000
REMARK  3 active torsions:
REMARK  status: ('A' for Active; 'I' for Inactive)
REMARK       I    between atoms: C_2  and  N_4 
REMARK    1  A    between atoms: C_7  and  N_10 
REMARK       I    between atoms: N_10  and  C_11 
REMARK       I    between atoms: C_11  and  N_13 
REMARK    2  A    between atoms: N_13  and  C_14 
REMARK    3  A    between atoms: C_20  and  N_21 
ROOT
HETATM    1  N   UNL     1     -43.704 -50.278  12.680  1.00  0.00    -0.338 N 
HETATM    2  C   UNL     1     -43.098 -49.041  12.637  1.00  0.00     0.321 C 
HETATM    3  O   UNL     1     -43.153 -48.269  13.585  1.00  0.00    -0.247 OA
HETATM    4  N   UNL     1     -42.470 -48.813  11.441  1.00  0.00    -0.306 N 
HETATM    5  H   UNL     1     -43.392 -50.971  12.013  1.00  0.00     0.164 HD
HETATM    6  H   UNL     1     -42.857 -49.252  10.614  1.00  0.00     0.171 HD
ENDROOT
BRANCH   4   7
HETATM    7  C   UNL     1     -41.647 -47.696  11.156  1.00  0.00     0.075 A 
HETATM    8  C   UNL     1     -42.154 -46.519  10.603  1.00  0.00     0.034 A 
HETATM    9  C   UNL     1     -41.289 -45.484  10.274  1.00  0.00     0.019 A 
HETATM   10  C   UNL     1     -39.944 -45.661  10.535  1.00  0.00     0.089 A 
HETATM   11  N   UNL     1     -39.422 -46.767  11.111  1.00  0.00    -0.355 N 
HETATM   12  C   UNL     1     -40.262 -47.780  11.432  1.00  0.00     0.109 A 
ATOM     13  HN  UNL     1     -38.423 -46.837  11.300  1.00  0.00     0.166 HD
BRANCH  12  14
HETATM   14  N   UNL     1     -39.756 -48.944  12.067  1.00  0.00    -0.267 NA
HETATM   15  C   UNL     1     -38.628 -49.575  11.356  1.00  0.00     0.097 C 
HETATM   16  C   UNL     1     -37.701 -50.077  12.456  1.00  0.00     0.016 C 
HETATM   17  C   UNL     1     -37.877 -49.046  13.552  1.00  0.00     0.016 C 
HETATM   18  C   UNL     1     -39.352 -48.665  13.460  1.00  0.00     0.097 C 
ENDBRANCH  12  14
ENDBRANCH   4   7
BRANCH   1  19
HETATM   19  C   UNL     1     -44.415 -50.686  13.887  1.00  0.00     0.089 C 
HETATM   20  C   UNL     1     -43.517 -51.444  14.868  1.00  0.00     0.045 C 
HETATM   21  C   UNL     1     -43.207 -52.862  14.404  1.00  0.00     0.127 C 
HETATM   22  N   UNL     1     -44.416 -53.578  14.010  1.00  0.00    -0.352 N 
HETATM   23  C   UNL     1     -44.541 -54.918  14.347  1.00  0.00     0.215 C 
HETATM   24  C   UNL     1     -45.262 -52.897  13.031  1.00  0.00     0.127 C 
HETATM   25  C   UNL     1     -45.772 -55.635  13.850  1.00  0.00     0.117 C 
HETATM   26  O   UNL     1     -43.708 -55.517  15.028  1.00  0.00    -0.274 OA
HETATM   27  C   UNL     1     -45.654 -51.513  13.526  1.00  0.00     0.045 C 
ENDBRANCH   1  19
TORSDOF 3
ENDMDL
MODEL 2
REMARK VINA RESULT:      -6.4      2.524      7.736
REMARK  3 active torsions:
REMARK  status: ('A' for Active; 'I' for Inactive)
REMARK       I    between atoms: C_2  and  N_4 
REMARK    1  A    between atoms: C_7  and  N_10 
REMARK       I    between atoms: N_10  and  C_11 
REMARK       I    between atoms: C_11  and  N_13 
REMARK    2  A    between atoms: N_13  and  C_14 
REMARK    3  A    between atoms: C_20  and  N_21 
ROOT
HETATM    1  N   UNL     1     -41.490 -48.294  11.598  1.00  0.00    -0.338 N 
HETATM    2  C   UNL     1     -41.148 -49.503  12.164  1.00  0.00     0.321 C 
HETATM    3  O   UNL     1     -40.129 -49.633  12.829  1.00  0.00    -0.247 OA
HETATM    4  N   UNL     1     -42.061 -50.484  11.879  1.00  0.00    -0.306 N 
HETATM    5  H   UNL     1     -42.453 -48.168  11.318  1.00  0.00     0.164 HD
HETATM    6  H   UNL     1     -42.560 -50.423  10.999  1.00  0.00     0.171 HD
ENDROOT
BRANCH   4   7
HETATM    7  C   UNL     1     -42.053 -51.786  12.435  1.00  0.00     0.075 A 
HETATM    8  C   UNL     1     -40.951 -52.638  12.325  1.00  0.00     0.034 A 
HETATM    9  C   UNL     1     -41.027 -53.931  12.823  1.00  0.00     0.019 A 
HETATM   10  C   UNL     1     -42.203 -54.316  13.437  1.00  0.00     0.089 A 
HETATM   11  N   UNL     1     -43.273 -53.507  13.603  1.00  0.00    -0.355 N 
HETATM   12  C   UNL     1     -43.204 -52.245  13.117  1.00  0.00     0.109 A 
ATOM     13  HN  UNL     1     -44.110 -53.838  14.082  1.00  0.00     0.166 HD
BRANCH  12  14
HETATM   14  N   UNL     1     -44.296 -51.356  13.300  1.00  0.00    -0.267 NA
HETATM   15  C   UNL     1     -45.608 -51.936  12.957  1.00  0.00     0.097 C 
HETATM   16  C   UNL     1     -46.573 -51.362  13.987  1.00  0.00     0.016 C 
HETATM   17  C   UNL     1     -45.714 -51.230  15.228  1.00  0.00     0.016 C 
HETATM   18  C   UNL     1     -44.344 -50.840  14.683  1.00  0.00     0.097 C 
ENDBRANCH  12  14
ENDBRANCH   4   7
BRANCH   1  19
HETATM   19  C   UNL     1     -40.628 -47.135  11.809  1.00  0.00     0.089 C 
HETATM   20  C   UNL     1     -40.860 -46.470  13.167  1.00  0.00     0.045 C 
HETATM   21  C   UNL     1     -42.164 -45.682  13.219  1.00  0.00     0.127 C 
HETATM   22  N   UNL     1     -42.302 -44.789  12.073  1.00  0.00    -0.352 N 
HETATM   23  C   UNL     1     -42.839 -43.524  12.270  1.00  0.00     0.215 C 
HETATM   24  C   UNL     1     -42.137 -45.414  10.761  1.00  0.00     0.127 C 
HETATM   25  C   UNL     1     -43.033 -42.668  11.044  1.00  0.00     0.117 C 
HETATM   26  O   UNL     1     -43.140 -43.092  13.382  1.00  0.00    -0.274 OA
HETATM   27  C   UNL     1     -40.797 -46.127  10.667  1.00  0.00     0.045 C 
ENDBRANCH   1  19
TORSDOF 3
ENDMDL
MODEL 3
REMARK VINA RESULT:      -6.4      2.378      7.361
REMARK  3 active torsions:
REMARK  status: ('A' for Active; 'I' for Inactive)
REMARK       I    between atoms: C_2  and  N_4 
REMARK    1  A    between atoms: C_7  and  N_10 
REMARK       I    between atoms: N_10  and  C_11 
REMARK       I    between atoms: C_11  and  N_13 
REMARK    2  A    between atoms: N_13  and  C_14 
REMARK    3  A    between atoms: C_20  and  N_21 
ROOT
HETATM    1  N   UNL     1     -42.857 -49.486  12.038  1.00  0.00    -0.338 N 
HETATM    2  C   UNL     1     -43.353 -50.470  12.866  1.00  0.00     0.321 C 
HETATM    3  O   UNL     1     -44.114 -50.208  13.788  1.00  0.00    -0.247 OA
HETATM    4  N   UNL     1     -42.888 -51.714  12.528  1.00  0.00    -0.306 N 
HETATM    5  H   UNL     1     -42.484 -49.775  11.145  1.00  0.00     0.164 HD
HETATM    6  H   UNL     1     -41.966 -51.774  12.110  1.00  0.00     0.171 HD
ENDROOT
BRANCH   4   7
HETATM    7  C   UNL     1     -43.329 -52.930  13.103  1.00  0.00     0.075 A 
HETATM    8  C   UNL     1     -44.591 -53.465  12.838  1.00  0.00     0.034 A 
HETATM    9  C   UNL     1     -45.000 -54.621  13.488  1.00  0.00     0.019 A 
HETATM   10  C   UNL     1     -44.113 -55.213  14.367  1.00  0.00     0.089 A 
HETATM   11  N   UNL     1     -42.868 -54.751  14.615  1.00  0.00    -0.355 N 
HETATM   12  C   UNL     1     -42.466 -53.622  13.984  1.00  0.00     0.109 A 
ATOM     13  HN  UNL     1     -42.247 -55.239  15.260  1.00  0.00     0.166 HD
BRANCH  12  14
HETATM   14  N   UNL     1     -41.153 -53.123  14.195  1.00  0.00    -0.267 NA
HETATM   15  C   UNL     1     -40.750 -53.070  15.613  1.00  0.00     0.097 C 
HETATM   16  C   UNL     1     -39.273 -53.445  15.616  1.00  0.00     0.016 C 
HETATM   17  C   UNL     1     -39.166 -54.434  14.473  1.00  0.00     0.016 C 
HETATM   18  C   UNL     1     -40.153 -53.903  13.439  1.00  0.00     0.097 C 
ENDBRANCH  12  14
ENDBRANCH   4   7
BRANCH   1  19
HETATM   19  C   UNL     1     -43.259 -48.100  12.254  1.00  0.00     0.089 C 
HETATM   20  C   UNL     1     -43.379 -47.313  10.947  1.00  0.00     0.045 C 
HETATM   21  C   UNL     1     -42.023 -46.971  10.341  1.00  0.00     0.127 C 
HETATM   22  N   UNL     1     -41.125 -46.378  11.327  1.00  0.00    -0.352 N 
HETATM   23  C   UNL     1     -40.305 -45.327  10.939  1.00  0.00     0.215 C 
HETATM   24  C   UNL     1     -40.952 -47.140  12.563  1.00  0.00     0.127 C 
HETATM   25  C   UNL     1     -39.340 -44.800  11.971  1.00  0.00     0.117 C 
HETATM   26  O   UNL     1     -40.350 -44.823   9.818  1.00  0.00    -0.274 OA
HETATM   27  C   UNL     1     -42.295 -47.408  13.225  1.00  0.00     0.045 C 
ENDBRANCH   1  19
TORSDOF 3
ENDMDL
MODEL 4
REMARK VINA RESULT:      -6.3      2.126      7.970
REMARK  3 active torsions:
REMARK  status: ('A' for Active; 'I' for Inactive)
REMARK       I    between atoms: C_2  and  N_4 
REMARK    1  A    between atoms: C_7  and  N_10 
REMARK       I    between atoms: N_10  and  C_11 
REMARK       I    between atoms: C_11  and  N_13 
REMARK    2  A    between atoms: N_13  and  C_14 
REMARK    3  A    between atoms: C_20  and  N_21 
ROOT
HETATM    1  N   UNL     1     -41.094 -49.485  13.195  1.00  0.00    -0.338 N 
HETATM    2  C   UNL     1     -41.454 -50.478  14.079  1.00  0.00     0.321 C 
HETATM    3  O   UNL     1     -41.545 -50.264  15.281  1.00  0.00    -0.247 OA
HETATM    4  N   UNL     1     -41.675 -51.676  13.451  1.00  0.00    -0.306 N 
HETATM    5  H   UNL     1     -41.313 -49.630  12.219  1.00  0.00     0.164 HD
HETATM    6  H   UNL     1     -41.147 -51.870  12.608  1.00  0.00     0.171 HD
ENDROOT
BRANCH   4   7
HETATM    7  C   UNL     1     -42.192 -52.837  14.075  1.00  0.00     0.075 A 
HETATM    8  C   UNL     1     -41.373 -53.758  14.731  1.00  0.00     0.034 A 
HETATM    9  C   UNL     1     -41.924 -54.917  15.259  1.00  0.00     0.019 A 
HETATM   10  C   UNL     1     -43.288 -55.099  15.128  1.00  0.00     0.089 A 
HETATM   11  N   UNL     1     -44.119 -54.209  14.540  1.00  0.00    -0.355 N 
HETATM   12  C   UNL     1     -43.585 -53.078  14.022  1.00  0.00     0.109 A 
ATOM     13  HN  UNL     1     -45.122 -54.386  14.488  1.00  0.00     0.166 HD
BRANCH  12  14
HETATM   14  N   UNL     1     -44.429 -52.106  13.425  1.00  0.00    -0.267 NA
HETATM   15  C   UNL     1     -45.451 -52.670  12.523  1.00  0.00     0.097 C 
HETATM   16  C   UNL     1     -46.688 -51.808  12.742  1.00  0.00     0.016 C 
HETATM   17  C   UNL     1     -46.593 -51.435  14.208  1.00  0.00     0.016 C 
HETATM   18  C   UNL     1     -45.095 -51.272  14.445  1.00  0.00     0.097 C 
ENDBRANCH  12  14
ENDBRANCH   4   7
BRANCH   1  19
HETATM   19  C   UNL     1     -40.828 -48.141  13.698  1.00  0.00     0.089 C 
HETATM   20  C   UNL     1     -41.999 -47.184  13.462  1.00  0.00     0.045 C 
HETATM   21  C   UNL     1     -42.127 -46.763  12.003  1.00  0.00     0.127 C 
HETATM   22  N   UNL     1     -40.852 -46.308  11.457  1.00  0.00    -0.352 N 
HETATM   23  C   UNL     1     -40.840 -45.215  10.603  1.00  0.00     0.215 C 
HETATM   24  C   UNL     1     -39.730 -47.231  11.623  1.00  0.00     0.127 C 
HETATM   25  C   UNL     1     -39.510 -44.832  10.004  1.00  0.00     0.117 C 
HETATM   26  O   UNL     1     -41.850 -44.563  10.338  1.00  0.00    -0.274 OA
HETATM   27  C   UNL     1     -39.535 -47.587  13.089  1.00  0.00     0.045 C 
ENDBRANCH   1  19
TORSDOF 3
ENDMDL
MODEL 5
REMARK VINA RESULT:      -6.3      2.270      3.984
REMARK  3 active torsions:
REMARK  status: ('A' for Active; 'I' for Inactive)
REMARK       I    between atoms: C_2  and  N_4 
REMARK    1  A    between atoms: C_7  and  N_10 
REMARK       I    between atoms: N_10  and  C_11 
REMARK       I    between atoms: C_11  and  N_13 
REMARK    2  A    between atoms: N_13  and  C_14 
REMARK    3  A    between atoms: C_20  and  N_21 
ROOT
HETATM    1  N   UNL     1     -41.574 -50.910  12.596  1.00  0.00    -0.338 N 
HETATM    2  C   UNL     1     -40.974 -49.913  11.858  1.00  0.00     0.321 C 
HETATM    3  O   UNL     1     -40.248 -50.170  10.906  1.00  0.00    -0.247 OA
HETATM    4  N   UNL     1     -41.285 -48.663  12.326  1.00  0.00    -0.306 N 
HETATM    5  H   UNL     1     -42.369 -50.652  13.164  1.00  0.00     0.164 HD
HETATM    6  H   UNL     1     -41.468 -48.564  13.318  1.00  0.00     0.171 HD
ENDROOT
BRANCH   4   7
HETATM    7  C   UNL     1     -40.934 -47.448  11.691  1.00  0.00     0.075 A 
HETATM    8  C   UNL     1     -39.838 -46.684  12.097  1.00  0.00     0.034 A 
HETATM    9  C   UNL     1     -39.586 -45.463  11.488  1.00  0.00     0.019 A 
HETATM   10  C   UNL     1     -40.433 -45.062  10.472  1.00  0.00     0.089 A 
HETATM   11  N   UNL     1     -41.475 -45.795  10.021  1.00  0.00    -0.355 N 
HETATM   12  C   UNL     1     -41.726 -46.986  10.614  1.00  0.00     0.109 A 
ATOM     13  HN  UNL     1     -42.057 -45.459   9.253  1.00  0.00     0.166 HD
BRANCH  12  14
HETATM   14  N   UNL     1     -42.793 -47.797  10.146  1.00  0.00    -0.267 NA
HETATM   15  C   UNL     1     -44.081 -47.545  10.820  1.00  0.00     0.097 C 
HETATM   16  C   UNL     1     -45.133 -47.693   9.727  1.00  0.00     0.016 C 
HETATM   17  C   UNL     1     -44.416 -47.191   8.490  1.00  0.00     0.016 C 
HETATM   18  C   UNL     1     -42.978 -47.658   8.688  1.00  0.00     0.097 C 
ENDBRANCH  12  14
ENDBRANCH   4   7
BRANCH   1  19
HETATM   19  C   UNL     1     -41.354 -52.305  12.228  1.00  0.00     0.089 C 
HETATM   20  C   UNL     1     -42.662 -53.058  11.974  1.00  0.00     0.045 C 
HETATM   21  C   UNL     1     -43.417 -53.373  13.261  1.00  0.00     0.127 C 
HETATM   22  N   UNL     1     -42.548 -53.983  14.262  1.00  0.00    -0.352 N 
HETATM   23  C   UNL     1     -43.047 -55.016  15.042  1.00  0.00     0.215 C 
HETATM   24  C   UNL     1     -41.317 -53.252  14.560  1.00  0.00     0.127 C 
HETATM   25  C   UNL     1     -42.138 -55.562  16.115  1.00  0.00     0.117 C 
HETATM   26  O   UNL     1     -44.171 -55.492  14.882  1.00  0.00    -0.274 OA
HETATM   27  C   UNL     1     -40.510 -53.013  13.293  1.00  0.00     0.045 C 
ENDBRANCH   1  19
TORSDOF 3
ENDMDL
MODEL 6
REMARK VINA RESULT:      -6.1      2.994      4.885
REMARK  3 active torsions:
REMARK  status: ('A' for Active; 'I' for Inactive)
REMARK       I    between atoms: C_2  and  N_4 
REMARK    1  A    between atoms: C_7  and  N_10 
REMARK       I    between atoms: N_10  and  C_11 
REMARK       I    between atoms: C_11  and  N_13 
REMARK    2  A    between atoms: N_13  and  C_14 
REMARK    3  A    between atoms: C_20  and  N_21 
ROOT
HETATM    1  N   UNL     1     -40.380 -52.150  14.295  1.00  0.00    -0.338 N 
HETATM    2  C   UNL     1     -39.142 -51.545  14.316  1.00  0.00     0.321 C 
HETATM    3  O   UNL     1     -38.314 -51.751  13.438  1.00  0.00    -0.247 OA
HETATM    4  N   UNL     1     -38.981 -50.733  15.408  1.00  0.00    -0.306 N 
HETATM    5  H   UNL     1     -41.109 -51.735  14.859  1.00  0.00     0.164 HD
HETATM    6  H   UNL     1     -39.473 -50.982  16.258  1.00  0.00     0.171 HD
ENDROOT
BRANCH   4   7
HETATM    7  C   UNL     1     -37.876 -49.875  15.626  1.00  0.00     0.075 A 
HETATM    8  C   UNL     1     -36.661 -50.339  16.136  1.00  0.00     0.034 A 
HETATM    9  C   UNL     1     -35.638 -49.441  16.401  1.00  0.00     0.019 A 
HETATM   10  C   UNL     1     -35.862 -48.106  16.120  1.00  0.00     0.089 A 
HETATM   11  N   UNL     1     -37.006 -47.627  15.584  1.00  0.00    -0.355 N 
HETATM   12  C   UNL     1     -38.009 -48.499  15.326  1.00  0.00     0.109 A 
ATOM     13  HN  UNL     1     -37.111 -46.633  15.378  1.00  0.00     0.166 HD
BRANCH  12  14
HETATM   14  N   UNL     1     -39.213 -48.038  14.733  1.00  0.00    -0.267 NA
HETATM   15  C   UNL     1     -39.797 -46.857  15.397  1.00  0.00     0.097 C 
HETATM   16  C   UNL     1     -40.371 -46.013  14.266  1.00  0.00     0.016 C 
HETATM   17  C   UNL     1     -39.416 -46.276  13.120  1.00  0.00     0.016 C 
HETATM   18  C   UNL     1     -39.028 -47.740  13.298  1.00  0.00     0.097 C 
ENDBRANCH  12  14
ENDBRANCH   4   7
BRANCH   1  19
HETATM   19  C   UNL     1     -40.721 -53.044  13.194  1.00  0.00     0.089 C 
HETATM   20  C   UNL     1     -41.672 -52.396  12.185  1.00  0.00     0.045 C 
HETATM   21  C   UNL     1     -43.097 -52.278  12.713  1.00  0.00     0.127 C 
HETATM   22  N   UNL     1     -43.572 -53.540  13.272  1.00  0.00    -0.352 N 
HETATM   23  C   UNL     1     -44.886 -53.922  13.042  1.00  0.00     0.215 C 
HETATM   24  C   UNL     1     -42.705 -54.150  14.279  1.00  0.00     0.127 C 
HETATM   25  C   UNL     1     -45.353 -55.193  13.706  1.00  0.00     0.117 C 
HETATM   26  O   UNL     1     -45.654 -53.279  12.326  1.00  0.00    -0.274 OA
HETATM   27  C   UNL     1     -41.302 -54.357  13.731  1.00  0.00     0.045 C 
ENDBRANCH   1  19
TORSDOF 3
ENDMDL
MODEL 7
REMARK VINA RESULT:      -6.0      3.288      5.377
REMARK  3 active torsions:
REMARK  status: ('A' for Active; 'I' for Inactive)
REMARK       I    between atoms: C_2  and  N_4 
REMARK    1  A    between atoms: C_7  and  N_10 
REMARK       I    between atoms: N_10  and  C_11 
REMARK       I    between atoms: C_11  and  N_13 
REMARK    2  A    between atoms: N_13  and  C_14 
REMARK    3  A    between atoms: C_20  and  N_21 
ROOT
HETATM    1  N   UNL     1     -40.874 -53.275  15.701  1.00  0.00    -0.338 N 
HETATM    2  C   UNL     1     -39.520 -53.024  15.758  1.00  0.00     0.321 C 
HETATM    3  O   UNL     1     -38.704 -53.801  15.282  1.00  0.00    -0.247 OA
HETATM    4  N   UNL     1     -39.239 -51.845  16.398  1.00  0.00    -0.306 N 
HETATM    5  H   UNL     1     -41.498 -52.492  15.838  1.00  0.00     0.164 HD
HETATM    6  H   UNL     1     -39.875 -51.541  17.126  1.00  0.00     0.171 HD
ENDROOT
BRANCH   4   7
HETATM    7  C   UNL     1     -37.955 -51.255  16.486  1.00  0.00     0.075 A 
HETATM    8  C   UNL     1     -37.113 -51.460  17.581  1.00  0.00     0.034 A 
HETATM    9  C   UNL     1     -35.897 -50.796  17.649  1.00  0.00     0.019 A 
HETATM   10  C   UNL     1     -35.558 -49.964  16.599  1.00  0.00     0.089 A 
HETATM   11  N   UNL     1     -36.325 -49.775  15.502  1.00  0.00    -0.355 N 
HETATM   12  C   UNL     1     -37.513 -50.420  15.433  1.00  0.00     0.109 A 
ATOM     13  HN  UNL     1     -36.016 -49.163  14.747  1.00  0.00     0.166 HD
BRANCH  12  14
HETATM   14  N   UNL     1     -38.332 -50.272  14.282  1.00  0.00    -0.267 NA
HETATM   15  C   UNL     1     -38.569 -48.870  13.889  1.00  0.00     0.097 C 
HETATM   16  C   UNL     1     -38.571 -48.884  12.365  1.00  0.00     0.016 C 
HETATM   17  C   UNL     1     -37.571 -49.972  12.029  1.00  0.00     0.016 C 
HETATM   18  C   UNL     1     -37.779 -51.009  13.129  1.00  0.00     0.097 C 
ENDBRANCH  12  14
ENDBRANCH   4   7
BRANCH   1  19
HETATM   19  C   UNL     1     -41.349 -54.489  15.045  1.00  0.00     0.089 C 
HETATM   20  C   UNL     1     -41.710 -54.259  13.576  1.00  0.00     0.045 C 
HETATM   21  C   UNL     1     -43.015 -53.490  13.406  1.00  0.00     0.127 C 
HETATM   22  N   UNL     1     -44.088 -54.061  14.212  1.00  0.00    -0.352 N 
HETATM   23  C   UNL     1     -45.366 -54.130  13.676  1.00  0.00     0.215 C 
HETATM   24  C   UNL     1     -43.785 -54.240  15.632  1.00  0.00     0.127 C 
HETATM   25  C   UNL     1     -46.456 -54.656  14.576  1.00  0.00     0.117 C 
HETATM   26  O   UNL     1     -45.625 -53.795  12.520  1.00  0.00    -0.274 OA
HETATM   27  C   UNL     1     -42.533 -55.085  15.814  1.00  0.00     0.045 C 
ENDBRANCH   1  19
TORSDOF 3
ENDMDL
MODEL 8
REMARK VINA RESULT:      -5.9      2.849      4.383
REMARK  3 active torsions:
REMARK  status: ('A' for Active; 'I' for Inactive)
REMARK       I    between atoms: C_2  and  N_4 
REMARK    1  A    between atoms: C_7  and  N_10 
REMARK       I    between atoms: N_10  and  C_11 
REMARK       I    between atoms: C_11  and  N_13 
REMARK    2  A    between atoms: N_13  and  C_14 
REMARK    3  A    between atoms: C_20  and  N_21 
ROOT
HETATM    1  N   UNL     1     -41.467 -50.006  12.422  1.00  0.00    -0.338 N 
HETATM    2  C   UNL     1     -41.751 -49.130  11.397  1.00  0.00     0.321 C 
HETATM    3  O   UNL     1     -41.106 -49.132  10.356  1.00  0.00    -0.247 OA
HETATM    4  N   UNL     1     -42.798 -48.300  11.700  1.00  0.00    -0.306 N 
HETATM    5  H   UNL     1     -42.187 -50.160  13.114  1.00  0.00     0.164 HD
HETATM    6  H   UNL     1     -42.937 -48.053  12.673  1.00  0.00     0.171 HD
ENDROOT
BRANCH   4   7
HETATM    7  C   UNL     1     -43.407 -47.397  10.795  1.00  0.00     0.075 A 
HETATM    8  C   UNL     1     -44.533 -47.740  10.043  1.00  0.00     0.034 A 
HETATM    9  C   UNL     1     -45.042 -46.842   9.116  1.00  0.00     0.019 A 
HETATM   10  C   UNL     1     -44.414 -45.617   8.993  1.00  0.00     0.089 A 
HETATM   11  N   UNL     1     -43.352 -45.232   9.735  1.00  0.00    -0.355 N 
HETATM   12  C   UNL     1     -42.850 -46.106  10.639  1.00  0.00     0.109 A 
ATOM     13  HN  UNL     1     -42.939 -44.307   9.616  1.00  0.00     0.166 HD
BRANCH  12  14
HETATM   14  N   UNL     1     -41.755 -45.726  11.459  1.00  0.00    -0.267 NA
HETATM   15  C   UNL     1     -40.469 -45.637  10.741  1.00  0.00     0.097 C 
HETATM   16  C   UNL     1     -39.750 -44.448  11.367  1.00  0.00     0.016 C 
HETATM   17  C   UNL     1     -40.884 -43.508  11.722  1.00  0.00     0.016 C 
HETATM   18  C   UNL     1     -42.014 -44.443  12.142  1.00  0.00     0.097 C 
ENDBRANCH  12  14
ENDBRANCH   4   7
BRANCH   1  19
HETATM   19  C   UNL     1     -40.381 -50.968  12.262  1.00  0.00     0.089 C 
HETATM   20  C   UNL     1     -40.887 -52.408  12.153  1.00  0.00     0.045 C 
HETATM   21  C   UNL     1     -41.368 -52.964  13.488  1.00  0.00     0.127 C 
HETATM   22  N   UNL     1     -40.392 -52.742  14.550  1.00  0.00    -0.352 N 
HETATM   23  C   UNL     1     -40.180 -53.744  15.486  1.00  0.00     0.215 C 
HETATM   24  C   UNL     1     -39.935 -51.362  14.708  1.00  0.00     0.127 C 
HETATM   25  C   UNL     1     -39.220 -53.436  16.608  1.00  0.00     0.117 C 
HETATM   26  O   UNL     1     -40.728 -54.844  15.423  1.00  0.00    -0.274 OA
HETATM   27  C   UNL     1     -39.368 -50.826  13.403  1.00  0.00     0.045 C 
ENDBRANCH   1  19
TORSDOF 3
ENDMDL
MODEL 9
REMARK VINA RESULT:      -5.8      2.798      8.183
REMARK  3 active torsions:
REMARK  status: ('A' for Active; 'I' for Inactive)
REMARK       I    between atoms: C_2  and  N_4 
REMARK    1  A    between atoms: C_7  and  N_10 
REMARK       I    between atoms: N_10  and  C_11 
REMARK       I    between atoms: C_11  and  N_13 
REMARK    2  A    between atoms: N_13  and  C_14 
REMARK    3  A    between atoms: C_20  and  N_21 
ROOT
HETATM    1  N   UNL     1     -39.964 -50.887  13.512  1.00  0.00    -0.338 N 
HETATM    2  C   UNL     1     -40.132 -52.231  13.764  1.00  0.00     0.321 C 
HETATM    3  O   UNL     1     -39.801 -53.081  12.947  1.00  0.00    -0.247 OA
HETATM    4  N   UNL     1     -40.699 -52.462  14.989  1.00  0.00    -0.306 N 
HETATM    5  H   UNL     1     -39.977 -50.261  14.306  1.00  0.00     0.164 HD
HETATM    6  H   UNL     1     -41.336 -51.763  15.353  1.00  0.00     0.171 HD
ENDROOT
BRANCH   4   7
HETATM    7  C   UNL     1     -40.863 -53.738  15.581  1.00  0.00     0.075 A 
HETATM    8  C   UNL     1     -39.854 -54.349  16.329  1.00  0.00     0.034 A 
HETATM    9  C   UNL     1     -40.043 -55.632  16.822  1.00  0.00     0.019 A 
HETATM   10  C   UNL     1     -41.252 -56.250  16.565  1.00  0.00     0.089 A 
HETATM   11  N   UNL     1     -42.268 -55.674  15.884  1.00  0.00    -0.355 N 
HETATM   12  C   UNL     1     -42.088 -54.423  15.400  1.00  0.00     0.109 A 
ATOM     13  HN  UNL     1     -43.148 -56.170  15.740  1.00  0.00     0.166 HD
BRANCH  12  14
HETATM   14  N   UNL     1     -43.144 -53.774  14.708  1.00  0.00    -0.267 NA
HETATM   15  C   UNL     1     -43.288 -54.193  13.301  1.00  0.00     0.097 C 
HETATM   16  C   UNL     1     -44.791 -54.208  13.047  1.00  0.00     0.016 C 
HETATM   17  C   UNL     1     -45.363 -54.622  14.388  1.00  0.00     0.016 C 
HETATM   18  C   UNL     1     -44.435 -53.957  15.400  1.00  0.00     0.097 C 
ENDBRANCH  12  14
ENDBRANCH   4   7
BRANCH   1  19
HETATM   19  C   UNL     1     -39.365 -50.464  12.251  1.00  0.00     0.089 C 
HETATM   20  C   UNL     1     -38.413 -49.277  12.422  1.00  0.00     0.045 C 
HETATM   21  C   UNL     1     -39.150 -47.966  12.672  1.00  0.00     0.127 C 
HETATM   22  N   UNL     1     -40.218 -47.753  11.701  1.00  0.00    -0.352 N 
HETATM   23  C   UNL     1     -40.426 -46.474  11.204  1.00  0.00     0.215 C 
HETATM   24  C   UNL     1     -41.171 -48.853  11.559  1.00  0.00     0.127 C 
HETATM   25  C   UNL     1     -41.591 -46.289  10.263  1.00  0.00     0.117 C 
HETATM   26  O   UNL     1     -39.704 -45.520  11.491  1.00  0.00    -0.274 OA
HETATM   27  C   UNL     1     -40.454 -50.150  11.219  1.00  0.00     0.045 C 
ENDBRANCH   1  19
TORSDOF 3
ENDMDL
