MODEL 1
REMARK VINA RESULT:      -6.0      0.000      0.000
REMARK  4 active torsions:
REMARK  status: ('A' for Active; 'I' for Inactive)
REMARK       I    between atoms: C_2  and  N_3 
REMARK       I    between atoms: C_2  and  N_12 
REMARK    1  A    between atoms: N_3  and  C_4 
REMARK    2  A    between atoms: C_4  and  C_5 
REMARK    3  A    between atoms: C_5  and  C_6 
REMARK    4  A    between atoms: N_12  and  C_13 
ROOT
HETATM    1  O   UNL     1     -42.200 -51.097  13.337  1.00  0.00    -0.247 OA
HETATM    2  C   UNL     1     -41.739 -51.626  12.332  1.00  0.00     0.320 C 
HETATM    3  N   UNL     1     -41.845 -52.979  12.099  1.00  0.00    -0.343 N 
HETATM    4  N   UNL     1     -41.089 -50.982  11.300  1.00  0.00    -0.308 N 
HETATM    5  H   UNL     1     -41.119 -53.390  11.532  1.00  0.00     0.164 HD
HETATM    6  H   UNL     1     -41.137 -51.440  10.401  1.00  0.00     0.170 HD
ENDROOT
BRANCH   3   7
HETATM    7  C   UNL     1     -42.452 -53.827  13.113  1.00  0.00     0.128 C 
BRANCH   7   8
HETATM    8  C   UNL     1     -43.898 -54.195  12.762  1.00  0.00     0.053 C 
BRANCH   8   9
HETATM    9  C   UNL     1     -44.908 -53.269  13.407  1.00  0.00    -0.082 A 
HETATM   10  C   UNL     1     -45.679 -52.459  12.668  1.00  0.00    -0.024 A 
HETATM   11  C   UNL     1     -46.693 -51.517  13.216  1.00  0.00     0.027 A 
HETATM   12  C   UNL     1     -46.811 -51.426  14.734  1.00  0.00     0.004 A 
HETATM   13  C   UNL     1     -45.961 -52.359  15.591  1.00  0.00     0.005 A 
HETATM   14  C   UNL     1     -44.967 -53.298  14.905  1.00  0.00     0.034 A 
ENDBRANCH   8   9
ENDBRANCH   7   8
ENDBRANCH   3   7
BRANCH   4  15
HETATM   15  C   UNL     1     -40.678 -49.630  11.319  1.00  0.00     0.051 A 
HETATM   16  C   UNL     1     -39.590 -49.175  12.061  1.00  0.00     0.032 A 
HETATM   17  C   UNL     1     -39.249 -47.824  12.044  1.00  0.00     0.019 A 
HETATM   18  C   UNL     1     -40.006 -46.965  11.266  1.00  0.00     0.088 A 
HETATM   19  N   UNL     1     -41.049 -47.365  10.508  1.00  0.00    -0.373 N 
HETATM   20  C   UNL     1     -41.356 -48.686  10.550  1.00  0.00     0.117 A 
ATOM     21  HN  UNL     1     -41.579 -46.709   9.934  1.00  0.00     0.164 HD
ENDBRANCH   4  15
TORSDOF 4
ENDMDL
MODEL 2
REMARK VINA RESULT:      -5.8      1.804      3.120
REMARK  4 active torsions:
REMARK  status: ('A' for Active; 'I' for Inactive)
REMARK       I    between atoms: C_2  and  N_3 
REMARK       I    between atoms: C_2  and  N_12 
REMARK    1  A    between atoms: N_3  and  C_4 
REMARK    2  A    between atoms: C_4  and  C_5 
REMARK    3  A    between atoms: C_5  and  C_6 
REMARK    4  A    between atoms: N_12  and  C_13 
ROOT
HETATM    1  O   UNL     1     -41.942 -49.887  12.709  1.00  0.00    -0.247 OA
HETATM    2  C   UNL     1     -41.171 -50.111  11.784  1.00  0.00     0.320 C 
HETATM    3  N   UNL     1     -40.367 -51.229  11.752  1.00  0.00    -0.343 N 
HETATM    4  N   UNL     1     -41.004 -49.333  10.657  1.00  0.00    -0.308 N 
HETATM    5  H   UNL     1     -39.503 -51.140  11.237  1.00  0.00     0.164 HD
HETATM    6  H   UNL     1     -40.676 -49.820   9.835  1.00  0.00     0.170 HD
ENDROOT
BRANCH   3   7
HETATM    7  C   UNL     1     -40.368 -52.136  12.889  1.00  0.00     0.128 C 
BRANCH   7   8
HETATM    8  C   UNL     1     -40.872 -53.532  12.508  1.00  0.00     0.053 C 
BRANCH   8   9
HETATM    9  C   UNL     1     -42.193 -53.875  13.163  1.00  0.00    -0.082 A 
HETATM   10  C   UNL     1     -42.242 -54.582  14.300  1.00  0.00    -0.024 A 
HETATM   11  C   UNL     1     -43.492 -54.967  15.011  1.00  0.00     0.027 A 
HETATM   12  C   UNL     1     -44.813 -54.579  14.354  1.00  0.00     0.004 A 
HETATM   13  C   UNL     1     -44.779 -53.750  13.074  1.00  0.00     0.005 A 
HETATM   14  C   UNL     1     -43.425 -53.402  12.451  1.00  0.00     0.034 A 
ENDBRANCH   8   9
ENDBRANCH   7   8
ENDBRANCH   3   7
BRANCH   4  15
HETATM   15  C   UNL     1     -41.558 -48.046  10.472  1.00  0.00     0.051 A 
HETATM   16  C   UNL     1     -42.755 -47.823   9.795  1.00  0.00     0.032 A 
HETATM   17  C   UNL     1     -43.236 -46.524   9.637  1.00  0.00     0.019 A 
HETATM   18  C   UNL     1     -42.504 -45.482  10.180  1.00  0.00     0.088 A 
HETATM   19  N   UNL     1     -41.356 -45.654  10.869  1.00  0.00    -0.373 N 
HETATM   20  C   UNL     1     -40.915 -46.930  11.001  1.00  0.00     0.117 A 
ATOM     21  HN  UNL     1     -40.847 -44.865  11.270  1.00  0.00     0.164 HD
ENDBRANCH   4  15
TORSDOF 4
ENDMDL
MODEL 3
REMARK VINA RESULT:      -5.8      1.371      1.940
REMARK  4 active torsions:
REMARK  status: ('A' for Active; 'I' for Inactive)
REMARK       I    between atoms: C_2  and  N_3 
REMARK       I    between atoms: C_2  and  N_12 
REMARK    1  A    between atoms: N_3  and  C_4 
REMARK    2  A    between atoms: C_4  and  C_5 
REMARK    3  A    between atoms: C_5  and  C_6 
REMARK    4  A    between atoms: N_12  and  C_13 
ROOT
HETATM    1  O   UNL     1     -42.436 -51.741  13.540  1.00  0.00    -0.247 OA
HETATM    2  C   UNL     1     -42.286 -52.134  12.389  1.00  0.00     0.320 C 
HETATM    3  N   UNL     1     -43.121 -53.066  11.815  1.00  0.00    -0.343 N 
HETATM    4  N   UNL     1     -41.316 -51.709  11.505  1.00  0.00    -0.308 N 
HETATM    5  H   UNL     1     -42.717 -53.636  11.087  1.00  0.00     0.164 HD
HETATM    6  H   UNL     1     -41.552 -51.790  10.526  1.00  0.00     0.170 HD
ENDROOT
BRANCH   3   7
HETATM    7  C   UNL     1     -44.170 -53.670  12.623  1.00  0.00     0.128 C 
BRANCH   7   8
HETATM    8  C   UNL     1     -45.428 -52.795  12.675  1.00  0.00     0.053 C 
BRANCH   8   9
HETATM    9  C   UNL     1     -45.929 -52.579  14.088  1.00  0.00    -0.082 A 
HETATM   10  C   UNL     1     -46.701 -51.529  14.397  1.00  0.00    -0.024 A 
HETATM   11  C   UNL     1     -47.235 -51.236  15.756  1.00  0.00     0.027 A 
HETATM   12  C   UNL     1     -46.815 -52.170  16.885  1.00  0.00     0.004 A 
HETATM   13  C   UNL     1     -45.959 -53.388  16.548  1.00  0.00     0.005 A 
HETATM   14  C   UNL     1     -45.489 -53.588  15.106  1.00  0.00     0.034 A 
ENDBRANCH   8   9
ENDBRANCH   7   8
ENDBRANCH   3   7
BRANCH   4  15
HETATM   15  C   UNL     1     -40.216 -50.888  11.842  1.00  0.00     0.051 A 
HETATM   16  C   UNL     1     -39.220 -51.279  12.735  1.00  0.00     0.032 A 
HETATM   17  C   UNL     1     -38.170 -50.412  13.032  1.00  0.00     0.019 A 
HETATM   18  C   UNL     1     -38.141 -49.177  12.409  1.00  0.00     0.088 A 
HETATM   19  N   UNL     1     -39.066 -48.768  11.514  1.00  0.00    -0.373 N 
HETATM   20  C   UNL     1     -40.076 -49.635  11.251  1.00  0.00     0.117 A 
ATOM     21  HN  UNL     1     -39.008 -47.856  11.061  1.00  0.00     0.164 HD
ENDBRANCH   4  15
TORSDOF 4
ENDMDL
MODEL 4
REMARK VINA RESULT:      -5.8      1.648      7.203
REMARK  4 active torsions:
REMARK  status: ('A' for Active; 'I' for Inactive)
REMARK       I    between atoms: C_2  and  N_3 
REMARK       I    between atoms: C_2  and  N_12 
REMARK    1  A    between atoms: N_3  and  C_4 
REMARK    2  A    between atoms: C_4  and  C_5 
REMARK    3  A    between atoms: C_5  and  C_6 
REMARK    4  A    between atoms: N_12  and  C_13 
ROOT
HETATM    1  O   UNL     1     -41.698 -51.089  13.383  1.00  0.00    -0.247 OA
HETATM    2  C   UNL     1     -41.773 -51.519  12.238  1.00  0.00     0.320 C 
HETATM    3  N   UNL     1     -41.054 -50.972  11.198  1.00  0.00    -0.343 N 
HETATM    4  N   UNL     1     -42.533 -52.592  11.820  1.00  0.00    -0.308 N 
HETATM    5  H   UNL     1     -41.462 -51.064  10.280  1.00  0.00     0.164 HD
HETATM    6  H   UNL     1     -42.197 -53.071  10.998  1.00  0.00     0.170 HD
ENDROOT
BRANCH   3   7
HETATM    7  C   UNL     1     -40.240 -49.791  11.444  1.00  0.00     0.128 C 
BRANCH   7   8
HETATM    8  C   UNL     1     -40.977 -48.500  11.076  1.00  0.00     0.053 C 
BRANCH   8   9
HETATM    9  C   UNL     1     -40.337 -47.269  11.683  1.00  0.00    -0.082 A 
HETATM   10  C   UNL     1     -39.870 -47.277  12.939  1.00  0.00    -0.024 A 
HETATM   11  C   UNL     1     -39.231 -46.115  13.617  1.00  0.00     0.027 A 
HETATM   12  C   UNL     1     -39.165 -44.806  12.838  1.00  0.00     0.004 A 
HETATM   13  C   UNL     1     -39.666 -44.783  11.397  1.00  0.00     0.005 A 
HETATM   14  C   UNL     1     -40.286 -46.052  10.808  1.00  0.00     0.034 A 
ENDBRANCH   8   9
ENDBRANCH   7   8
ENDBRANCH   3   7
BRANCH   4  15
HETATM   15  C   UNL     1     -43.501 -53.255  12.608  1.00  0.00     0.051 A 
HETATM   16  C   UNL     1     -43.175 -54.208  13.571  1.00  0.00     0.032 A 
HETATM   17  C   UNL     1     -44.183 -54.834  14.303  1.00  0.00     0.019 A 
HETATM   18  C   UNL     1     -45.496 -54.471  14.056  1.00  0.00     0.088 A 
HETATM   19  N   UNL     1     -45.856 -53.531  13.156  1.00  0.00    -0.373 N 
HETATM   20  C   UNL     1     -44.851 -52.945  12.458  1.00  0.00     0.117 A 
ATOM     21  HN  UNL     1     -46.833 -53.276  13.007  1.00  0.00     0.164 HD
ENDBRANCH   4  15
TORSDOF 4
ENDMDL
MODEL 5
REMARK VINA RESULT:      -5.7      2.194      7.065
REMARK  4 active torsions:
REMARK  status: ('A' for Active; 'I' for Inactive)
REMARK       I    between atoms: C_2  and  N_3 
REMARK       I    between atoms: C_2  and  N_12 
REMARK    1  A    between atoms: N_3  and  C_4 
REMARK    2  A    between atoms: C_4  and  C_5 
REMARK    3  A    between atoms: C_5  and  C_6 
REMARK    4  A    between atoms: N_12  and  C_13 
ROOT
HETATM    1  O   UNL     1     -41.624 -51.067  13.391  1.00  0.00    -0.247 OA
HETATM    2  C   UNL     1     -41.702 -51.493  12.245  1.00  0.00     0.320 C 
HETATM    3  N   UNL     1     -41.002 -50.929  11.202  1.00  0.00    -0.343 N 
HETATM    4  N   UNL     1     -42.447 -52.577  11.830  1.00  0.00    -0.308 N 
HETATM    5  H   UNL     1     -41.416 -51.025  10.286  1.00  0.00     0.164 HD
HETATM    6  H   UNL     1     -42.109 -53.047  11.002  1.00  0.00     0.170 HD
ENDROOT
BRANCH   3   7
HETATM    7  C   UNL     1     -40.206 -49.736  11.445  1.00  0.00     0.128 C 
BRANCH   7   8
HETATM    8  C   UNL     1     -38.722 -50.068  11.639  1.00  0.00     0.053 C 
BRANCH   8   9
HETATM    9  C   UNL     1     -38.178 -49.561  12.958  1.00  0.00    -0.082 A 
HETATM   10  C   UNL     1     -38.277 -48.269  13.299  1.00  0.00    -0.024 A 
HETATM   11  C   UNL     1     -37.768 -47.682  14.570  1.00  0.00     0.027 A 
HETATM   12  C   UNL     1     -37.025 -48.616  15.519  1.00  0.00     0.004 A 
HETATM   13  C   UNL     1     -36.926 -50.097  15.161  1.00  0.00     0.005 A 
HETATM   14  C   UNL     1     -37.508 -50.579  13.831  1.00  0.00     0.034 A 
ENDBRANCH   8   9
ENDBRANCH   7   8
ENDBRANCH   3   7
BRANCH   4  15
HETATM   15  C   UNL     1     -43.396 -53.260  12.623  1.00  0.00     0.051 A 
HETATM   16  C   UNL     1     -43.043 -54.170  13.618  1.00  0.00     0.032 A 
HETATM   17  C   UNL     1     -44.033 -54.819  14.354  1.00  0.00     0.019 A 
HETATM   18  C   UNL     1     -45.357 -54.523  14.078  1.00  0.00     0.088 A 
HETATM   19  N   UNL     1     -45.745 -53.626  13.145  1.00  0.00    -0.373 N 
HETATM   20  C   UNL     1     -44.756 -53.016  12.445  1.00  0.00     0.117 A 
ATOM     21  HN  UNL     1     -46.729 -53.420  12.976  1.00  0.00     0.164 HD
ENDBRANCH   4  15
TORSDOF 4
ENDMDL
MODEL 6
REMARK VINA RESULT:      -5.4      1.927      7.055
REMARK  4 active torsions:
REMARK  status: ('A' for Active; 'I' for Inactive)
REMARK       I    between atoms: C_2  and  N_3 
REMARK       I    between atoms: C_2  and  N_12 
REMARK    1  A    between atoms: N_3  and  C_4 
REMARK    2  A    between atoms: C_4  and  C_5 
REMARK    3  A    between atoms: C_5  and  C_6 
REMARK    4  A    between atoms: N_12  and  C_13 
ROOT
HETATM    1  O   UNL     1     -42.153 -52.277  13.858  1.00  0.00    -0.247 OA
HETATM    2  C   UNL     1     -42.607 -51.849  12.803  1.00  0.00     0.320 C 
HETATM    3  N   UNL     1     -41.809 -51.280  11.836  1.00  0.00    -0.343 N 
HETATM    4  N   UNL     1     -43.930 -51.887  12.413  1.00  0.00    -0.308 N 
HETATM    5  H   UNL     1     -42.252 -50.597  11.240  1.00  0.00     0.164 HD
HETATM    6  H   UNL     1     -44.090 -51.891  11.416  1.00  0.00     0.170 HD
ENDROOT
BRANCH   3   7
HETATM    7  C   UNL     1     -40.389 -51.104  12.102  1.00  0.00     0.128 C 
BRANCH   7   8
HETATM    8  C   UNL     1     -39.830 -49.851  11.419  1.00  0.00     0.053 C 
BRANCH   8   9
HETATM    9  C   UNL     1     -39.298 -48.836  12.409  1.00  0.00    -0.082 A 
HETATM   10  C   UNL     1     -39.884 -47.640  12.559  1.00  0.00    -0.024 A 
HETATM   11  C   UNL     1     -39.428 -46.581  13.501  1.00  0.00     0.027 A 
HETATM   12  C   UNL     1     -38.163 -46.863  14.305  1.00  0.00     0.004 A 
HETATM   13  C   UNL     1     -37.498 -48.229  14.169  1.00  0.00     0.005 A 
HETATM   14  C   UNL     1     -38.075 -49.240  13.177  1.00  0.00     0.034 A 
ENDBRANCH   8   9
ENDBRANCH   7   8
ENDBRANCH   3   7
BRANCH   4  15
HETATM   15  C   UNL     1     -45.010 -52.254  13.246  1.00  0.00     0.051 A 
HETATM   16  C   UNL     1     -45.728 -51.337  14.010  1.00  0.00     0.032 A 
HETATM   17  C   UNL     1     -46.775 -51.771  14.821  1.00  0.00     0.019 A 
HETATM   18  C   UNL     1     -47.083 -53.121  14.830  1.00  0.00     0.088 A 
HETATM   19  N   UNL     1     -46.435 -54.041  14.084  1.00  0.00    -0.373 N 
HETATM   20  C   UNL     1     -45.419 -53.584  13.308  1.00  0.00     0.117 A 
ATOM     21  HN  UNL     1     -46.696 -55.027  14.102  1.00  0.00     0.164 HD
ENDBRANCH   4  15
TORSDOF 4
ENDMDL
MODEL 7
REMARK VINA RESULT:      -5.4      2.005      6.284
REMARK  4 active torsions:
REMARK  status: ('A' for Active; 'I' for Inactive)
REMARK       I    between atoms: C_2  and  N_3 
REMARK       I    between atoms: C_2  and  N_12 
REMARK    1  A    between atoms: N_3  and  C_4 
REMARK    2  A    between atoms: C_4  and  C_5 
REMARK    3  A    between atoms: C_5  and  C_6 
REMARK    4  A    between atoms: N_12  and  C_13 
ROOT
HETATM    1  O   UNL     1     -41.773 -52.104  13.619  1.00  0.00    -0.247 OA
HETATM    2  C   UNL     1     -42.037 -52.254  12.431  1.00  0.00     0.320 C 
HETATM    3  N   UNL     1     -41.224 -51.769  11.432  1.00  0.00    -0.343 N 
HETATM    4  N   UNL     1     -43.127 -52.926  11.919  1.00  0.00    -0.308 N 
HETATM    5  H   UNL     1     -41.679 -51.545  10.559  1.00  0.00     0.164 HD
HETATM    6  H   UNL     1     -43.004 -53.315  10.995  1.00  0.00     0.170 HD
ENDROOT
BRANCH   3   7
HETATM    7  C   UNL     1     -40.054 -50.981  11.789  1.00  0.00     0.128 C 
BRANCH   7   8
HETATM    8  C   UNL     1     -40.045 -49.618  11.087  1.00  0.00     0.053 C 
BRANCH   8   9
HETATM    9  C   UNL     1     -41.054 -48.653  11.674  1.00  0.00    -0.082 A 
HETATM   10  C   UNL     1     -41.056 -48.362  12.982  1.00  0.00    -0.024 A 
HETATM   11  C   UNL     1     -42.010 -47.431  13.645  1.00  0.00     0.027 A 
HETATM   12  C   UNL     1     -43.102 -46.818  12.775  1.00  0.00     0.004 A 
HETATM   13  C   UNL     1     -43.100 -47.115  11.279  1.00  0.00     0.005 A 
HETATM   14  C   UNL     1     -42.052 -48.077  10.715  1.00  0.00     0.034 A 
ENDBRANCH   8   9
ENDBRANCH   7   8
ENDBRANCH   3   7
BRANCH   4  15
HETATM   15  C   UNL     1     -44.224 -53.390  12.679  1.00  0.00     0.051 A 
HETATM   16  C   UNL     1     -44.205 -54.587  13.392  1.00  0.00     0.032 A 
HETATM   17  C   UNL     1     -45.329 -54.990  14.110  1.00  0.00     0.019 A 
HETATM   18  C   UNL     1     -46.442 -54.168  14.104  1.00  0.00     0.088 A 
HETATM   19  N   UNL     1     -46.496 -52.985  13.454  1.00  0.00    -0.373 N 
HETATM   20  C   UNL     1     -45.385 -52.625  12.762  1.00  0.00     0.117 A 
ATOM     21  HN  UNL     1     -47.327 -52.395  13.481  1.00  0.00     0.164 HD
ENDBRANCH   4  15
TORSDOF 4
ENDMDL
MODEL 8
REMARK VINA RESULT:      -5.3      3.862      5.202
REMARK  4 active torsions:
REMARK  status: ('A' for Active; 'I' for Inactive)
REMARK       I    between atoms: C_2  and  N_3 
REMARK       I    between atoms: C_2  and  N_12 
REMARK    1  A    between atoms: N_3  and  C_4 
REMARK    2  A    between atoms: C_4  and  C_5 
REMARK    3  A    between atoms: C_5  and  C_6 
REMARK    4  A    between atoms: N_12  and  C_13 
ROOT
HETATM    1  O   UNL     1     -42.848 -51.778  14.562  1.00  0.00    -0.247 OA
HETATM    2  C   UNL     1     -43.289 -52.682  13.862  1.00  0.00     0.320 C 
HETATM    3  N   UNL     1     -44.535 -52.618  13.278  1.00  0.00    -0.343 N 
HETATM    4  N   UNL     1     -42.632 -53.849  13.532  1.00  0.00    -0.308 N 
HETATM    5  H   UNL     1     -44.988 -53.502  13.102  1.00  0.00     0.164 HD
HETATM    6  H   UNL     1     -42.918 -54.279  12.664  1.00  0.00     0.170 HD
ENDROOT
BRANCH   3   7
HETATM    7  C   UNL     1     -45.395 -51.480  13.564  1.00  0.00     0.128 C 
BRANCH   7   8
HETATM    8  C   UNL     1     -46.662 -51.895  14.319  1.00  0.00     0.053 C 
BRANCH   8   9
HETATM    9  C   UNL     1     -46.743 -51.287  15.703  1.00  0.00    -0.082 A 
HETATM   10  C   UNL     1     -47.882 -51.313  16.408  1.00  0.00    -0.024 A 
HETATM   11  C   UNL     1     -48.054 -50.738  17.770  1.00  0.00     0.027 A 
HETATM   12  C   UNL     1     -46.857 -50.012  18.375  1.00  0.00     0.004 A 
HETATM   13  C   UNL     1     -45.542 -49.996  17.600  1.00  0.00     0.005 A 
HETATM   14  C   UNL     1     -45.490 -50.640  16.214  1.00  0.00     0.034 A 
ENDBRANCH   8   9
ENDBRANCH   7   8
ENDBRANCH   3   7
BRANCH   4  15
HETATM   15  C   UNL     1     -41.415 -54.283  14.104  1.00  0.00     0.051 A 
HETATM   16  C   UNL     1     -41.312 -54.747  15.414  1.00  0.00     0.032 A 
HETATM   17  C   UNL     1     -40.076 -55.147  15.917  1.00  0.00     0.019 A 
HETATM   18  C   UNL     1     -38.974 -55.084  15.081  1.00  0.00     0.088 A 
HETATM   19  N   UNL     1     -39.033 -54.671  13.797  1.00  0.00    -0.373 N 
HETATM   20  C   UNL     1     -40.251 -54.286  13.340  1.00  0.00     0.117 A 
ATOM     21  HN  UNL     1     -38.204 -54.650  13.202  1.00  0.00     0.164 HD
ENDBRANCH   4  15
TORSDOF 4
ENDMDL
MODEL 9
REMARK VINA RESULT:      -5.2      1.916      2.344
REMARK  4 active torsions:
REMARK  status: ('A' for Active; 'I' for Inactive)
REMARK       I    between atoms: C_2  and  N_3 
REMARK       I    between atoms: C_2  and  N_12 
REMARK    1  A    between atoms: N_3  and  C_4 
REMARK    2  A    between atoms: C_4  and  C_5 
REMARK    3  A    between atoms: C_5  and  C_6 
REMARK    4  A    between atoms: N_12  and  C_13 
ROOT
HETATM    1  O   UNL     1     -41.776 -52.133  14.737  1.00  0.00    -0.247 OA
HETATM    2  C   UNL     1     -41.438 -52.921  13.861  1.00  0.00     0.320 C 
HETATM    3  N   UNL     1     -41.916 -54.211  13.808  1.00  0.00    -0.343 N 
HETATM    4  N   UNL     1     -40.581 -52.653  12.814  1.00  0.00    -0.308 N 
HETATM    5  H   UNL     1     -41.311 -54.890  13.372  1.00  0.00     0.164 HD
HETATM    6  H   UNL     1     -40.715 -53.216  11.986  1.00  0.00     0.170 HD
ENDROOT
BRANCH   3   7
HETATM    7  C   UNL     1     -42.790 -54.687  14.870  1.00  0.00     0.128 C 
BRANCH   7   8
HETATM    8  C   UNL     1     -44.192 -55.022  14.350  1.00  0.00     0.053 C 
BRANCH   8   9
HETATM    9  C   UNL     1     -45.072 -53.797  14.215  1.00  0.00    -0.082 A 
HETATM   10  C   UNL     1     -45.448 -53.340  13.013  1.00  0.00    -0.024 A 
HETATM   11  C   UNL     1     -46.306 -52.145  12.785  1.00  0.00     0.027 A 
HETATM   12  C   UNL     1     -46.730 -51.349  14.015  1.00  0.00     0.004 A 
HETATM   13  C   UNL     1     -46.335 -51.868  15.395  1.00  0.00     0.005 A 
HETATM   14  C   UNL     1     -45.465 -53.122  15.496  1.00  0.00     0.034 A 
ENDBRANCH   8   9
ENDBRANCH   7   8
ENDBRANCH   3   7
BRANCH   4  15
HETATM   15  C   UNL     1     -39.801 -51.482  12.684  1.00  0.00     0.051 A 
HETATM   16  C   UNL     1     -40.192 -50.388  11.915  1.00  0.00     0.032 A 
HETATM   17  C   UNL     1     -39.365 -49.270  11.820  1.00  0.00     0.019 A 
HETATM   18  C   UNL     1     -38.169 -49.276  12.517  1.00  0.00     0.088 A 
HETATM   19  N   UNL     1     -37.764 -50.300  13.298  1.00  0.00    -0.373 N 
HETATM   20  C   UNL     1     -38.591 -51.373  13.365  1.00  0.00     0.117 A 
ATOM     21  HN  UNL     1     -36.882 -50.267  13.811  1.00  0.00     0.164 HD
ENDBRANCH   4  15
TORSDOF 4
ENDMDL
