MODEL 1
REMARK VINA RESULT:      -7.1      0.000      0.000
REMARK  6 active torsions:
REMARK  status: ('A' for Active; 'I' for Inactive)
REMARK       I    between atoms: N_2  and  C_3 
REMARK    1  A    between atoms: C_3  and  C_5 
REMARK    2  A    between atoms: C_9  and  N_10 
REMARK    3  A    between atoms: N_10  and  C_11 
REMARK    4  A    between atoms: C_11  and  C_12 
REMARK    5  A    between atoms: N_14  and  C_15 
REMARK    6  A    between atoms: C_15  and  C_16 
ROOT
HETATM    1  N   UNL     1     -40.473 -50.818  11.200  1.00  0.00    -0.374 N 
HETATM    2  H   UNL     1     -39.640 -51.073  10.668  1.00  0.00     0.161 HD
ENDROOT
BRANCH   1   3
HETATM    3  C   UNL     1     -40.717 -49.455  11.137  1.00  0.00     0.101 A 
HETATM    4  C   UNL     1     -39.748 -48.632  11.726  1.00  0.00     0.048 A 
HETATM    5  C   UNL     1     -39.845 -47.249  11.646  1.00  0.00     0.006 A 
HETATM    6  C   UNL     1     -40.916 -46.704  10.965  1.00  0.00     0.035 A 
HETATM    7  C   UNL     1     -41.842 -47.576  10.406  1.00  0.00     0.102 A 
HETATM    8  N   UNL     1     -41.768 -48.944  10.467  1.00  0.00    -0.338 N 
ATOM      9  HN  UNL     1     -42.469 -49.541  10.030  1.00  0.00     0.167 HD
BRANCH   7  10
HETATM   10  C   UNL     1     -43.014 -46.981   9.689  1.00  0.00     0.267 C 
HETATM   11  N   UNL     1     -44.158 -47.749   9.701  1.00  0.00    -0.360 N 
HETATM   12  C   UNL     1     -45.378 -47.286   9.097  1.00  0.00     0.149 C 
HETATM   13  H   UNL     1     -44.108 -48.640  10.190  1.00  0.00     0.162 HD
HETATM   14  O   UNL     1     -42.949 -45.883   9.148  1.00  0.00    -0.266 OA
ENDBRANCH   7  10
ENDBRANCH   1   3
BRANCH   1  15
HETATM   15  C   UNL     1     -40.527 -51.598  12.437  1.00  0.00     0.155 C 
BRANCH  15  16
HETATM   16  C   UNL     1     -41.538 -52.740  12.145  1.00  0.00     0.167 C 
HETATM   17  C   UNL     1     -43.031 -52.473  12.457  1.00  0.00     0.305 C 
HETATM   18  N   UNL     1     -43.533 -52.801  13.822  1.00  0.00     0.093 N 
HETATM   19  C   UNL     1     -42.909 -54.051  14.303  1.00  0.00     0.298 C 
HETATM   20  C   UNL     1     -41.393 -54.034  14.132  1.00  0.00     0.198 C 
HETATM   21  O   UNL     1     -41.067 -53.974  12.743  1.00  0.00    -0.381 OA
BRANCH  18  22
HETATM   22  C   UNL     1     -45.010 -52.952  13.757  1.00  0.00     0.276 C 
BRANCH  22  23
HETATM   23  C   UNL     1     -45.846 -51.668  13.541  1.00  0.00     0.006 C 
HETATM   24  C   UNL     1     -46.685 -51.724  12.265  1.00  0.00     0.011 C 
HETATM   25  C   UNL     1     -46.757 -51.441  14.754  1.00  0.00     0.011 C 
ENDBRANCH  22  23
ENDBRANCH  18  22
ENDBRANCH  15  16
ENDBRANCH   1  15
TORSDOF 6
ENDMDL
MODEL 2
REMARK VINA RESULT:      -6.9      1.943      6.198
REMARK  6 active torsions:
REMARK  status: ('A' for Active; 'I' for Inactive)
REMARK       I    between atoms: N_2  and  C_3 
REMARK    1  A    between atoms: C_3  and  C_5 
REMARK    2  A    between atoms: C_9  and  N_10 
REMARK    3  A    between atoms: N_10  and  C_11 
REMARK    4  A    between atoms: C_11  and  C_12 
REMARK    5  A    between atoms: N_14  and  C_15 
REMARK    6  A    between atoms: C_15  and  C_16 
ROOT
HETATM    1  N   UNL     1     -40.529 -51.227  11.238  1.00  0.00    -0.374 N 
HETATM    2  H   UNL     1     -41.027 -50.897  10.410  1.00  0.00     0.161 HD
ENDROOT
BRANCH   1   3
HETATM    3  C   UNL     1     -41.256 -52.193  11.915  1.00  0.00     0.101 A 
HETATM    4  C   UNL     1     -40.518 -53.035  12.758  1.00  0.00     0.048 A 
HETATM    5  C   UNL     1     -41.152 -53.981  13.552  1.00  0.00     0.006 A 
HETATM    6  C   UNL     1     -42.530 -54.068  13.496  1.00  0.00     0.035 A 
HETATM    7  C   UNL     1     -43.201 -53.206  12.638  1.00  0.00     0.102 A 
HETATM    8  N   UNL     1     -42.600 -52.261  11.848  1.00  0.00    -0.338 N 
ATOM      9  HN  UNL     1     -43.139 -51.644  11.242  1.00  0.00     0.167 HD
BRANCH   7  10
HETATM   10  C   UNL     1     -44.692 -53.319  12.563  1.00  0.00     0.267 C 
HETATM   11  N   UNL     1     -45.352 -52.151  12.245  1.00  0.00    -0.360 N 
HETATM   12  C   UNL     1     -46.781 -52.117  12.087  1.00  0.00     0.149 C 
HETATM   13  H   UNL     1     -44.777 -51.327  12.090  1.00  0.00     0.162 HD
HETATM   14  O   UNL     1     -45.268 -54.383  12.757  1.00  0.00    -0.266 OA
ENDBRANCH   7  10
ENDBRANCH   1   3
BRANCH   1  15
HETATM   15  C   UNL     1     -39.861 -50.102  11.894  1.00  0.00     0.155 C 
BRANCH  15  16
HETATM   16  C   UNL     1     -41.006 -49.126  12.278  1.00  0.00     0.167 C 
HETATM   17  C   UNL     1     -41.889 -48.570  11.134  1.00  0.00     0.305 C 
HETATM   18  N   UNL     1     -41.460 -47.309  10.466  1.00  0.00     0.093 N 
HETATM   19  C   UNL     1     -40.900 -46.373  11.462  1.00  0.00     0.298 C 
HETATM   20  C   UNL     1     -39.861 -47.046  12.356  1.00  0.00     0.198 C 
HETATM   21  O   UNL     1     -40.485 -48.073  13.128  1.00  0.00    -0.381 OA
BRANCH  18  22
HETATM   22  C   UNL     1     -42.641 -46.705   9.796  1.00  0.00     0.276 C 
BRANCH  22  23
HETATM   23  C   UNL     1     -43.683 -47.672   9.186  1.00  0.00     0.006 C 
HETATM   24  C   UNL     1     -45.120 -47.221   9.439  1.00  0.00     0.011 C 
HETATM   25  C   UNL     1     -43.436 -47.803   7.677  1.00  0.00     0.011 C 
ENDBRANCH  22  23
ENDBRANCH  18  22
ENDBRANCH  15  16
ENDBRANCH   1  15
TORSDOF 6
ENDMDL
MODEL 3
REMARK VINA RESULT:      -6.7      1.068      1.333
REMARK  6 active torsions:
REMARK  status: ('A' for Active; 'I' for Inactive)
REMARK       I    between atoms: N_2  and  C_3 
REMARK    1  A    between atoms: C_3  and  C_5 
REMARK    2  A    between atoms: C_9  and  N_10 
REMARK    3  A    between atoms: N_10  and  C_11 
REMARK    4  A    between atoms: C_11  and  C_12 
REMARK    5  A    between atoms: N_14  and  C_15 
REMARK    6  A    between atoms: C_15  and  C_16 
ROOT
HETATM    1  N   UNL     1     -40.551 -51.649  11.876  1.00  0.00    -0.374 N 
HETATM    2  H   UNL     1     -39.757 -52.063  11.386  1.00  0.00     0.161 HD
ENDROOT
BRANCH   1   3
HETATM    3  C   UNL     1     -40.583 -50.273  11.716  1.00  0.00     0.101 A 
HETATM    4  C   UNL     1     -39.512 -49.567  12.281  1.00  0.00     0.048 A 
HETATM    5  C   UNL     1     -39.396 -48.193  12.107  1.00  0.00     0.006 A 
HETATM    6  C   UNL     1     -40.357 -47.542  11.359  1.00  0.00     0.035 A 
HETATM    7  C   UNL     1     -41.393 -48.301  10.829  1.00  0.00     0.102 A 
HETATM    8  N   UNL     1     -41.529 -49.657  10.982  1.00  0.00    -0.338 N 
ATOM      9  HN  UNL     1     -42.304 -50.170  10.563  1.00  0.00     0.167 HD
BRANCH   7  10
HETATM   10  C   UNL     1     -42.445 -47.588  10.037  1.00  0.00     0.267 C 
HETATM   11  N   UNL     1     -42.744 -48.155   8.818  1.00  0.00    -0.360 N 
HETATM   12  C   UNL     1     -43.770 -47.611   7.970  1.00  0.00     0.149 C 
HETATM   13  H   UNL     1     -42.232 -48.997   8.565  1.00  0.00     0.162 HD
HETATM   14  O   UNL     1     -43.002 -46.583  10.465  1.00  0.00    -0.266 OA
ENDBRANCH   7  10
ENDBRANCH   1   3
BRANCH   1  15
HETATM   15  C   UNL     1     -40.746 -52.324  13.160  1.00  0.00     0.155 C 
BRANCH  15  16
HETATM   16  C   UNL     1     -41.663 -53.535  12.839  1.00  0.00     0.167 C 
HETATM   17  C   UNL     1     -43.169 -53.254  12.613  1.00  0.00     0.305 C 
HETATM   18  N   UNL     1     -44.074 -53.282  13.797  1.00  0.00     0.093 N 
HETATM   19  C   UNL     1     -43.675 -54.369  14.714  1.00  0.00     0.298 C 
HETATM   20  C   UNL     1     -42.178 -54.342  15.014  1.00  0.00     0.198 C 
HETATM   21  O   UNL     1     -41.443 -54.586  13.813  1.00  0.00    -0.381 OA
BRANCH  18  22
HETATM   22  C   UNL     1     -45.466 -53.493  13.321  1.00  0.00     0.276 C 
BRANCH  22  23
HETATM   23  C   UNL     1     -46.470 -52.334  13.530  1.00  0.00     0.006 C 
HETATM   24  C   UNL     1     -45.995 -51.329  14.577  1.00  0.00     0.011 C 
HETATM   25  C   UNL     1     -46.711 -51.620  12.194  1.00  0.00     0.011 C 
ENDBRANCH  22  23
ENDBRANCH  18  22
ENDBRANCH  15  16
ENDBRANCH   1  15
TORSDOF 6
ENDMDL
MODEL 4
REMARK VINA RESULT:      -6.4      1.868      3.033
REMARK  6 active torsions:
REMARK  status: ('A' for Active; 'I' for Inactive)
REMARK       I    between atoms: N_2  and  C_3 
REMARK    1  A    between atoms: C_3  and  C_5 
REMARK    2  A    between atoms: C_9  and  N_10 
REMARK    3  A    between atoms: N_10  and  C_11 
REMARK    4  A    between atoms: C_11  and  C_12 
REMARK    5  A    between atoms: N_14  and  C_15 
REMARK    6  A    between atoms: C_15  and  C_16 
ROOT
HETATM    1  N   UNL     1     -42.036 -52.833  11.865  1.00  0.00    -0.374 N 
HETATM    2  H   UNL     1     -41.491 -53.531  11.357  1.00  0.00     0.161 HD
ENDROOT
BRANCH   1   3
HETATM    3  C   UNL     1     -41.340 -51.642  11.993  1.00  0.00     0.101 A 
HETATM    4  C   UNL     1     -40.138 -51.711  12.712  1.00  0.00     0.048 A 
HETATM    5  C   UNL     1     -39.314 -50.599  12.829  1.00  0.00     0.006 A 
HETATM    6  C   UNL     1     -39.704 -49.425  12.215  1.00  0.00     0.035 A 
HETATM    7  C   UNL     1     -40.908 -49.424  11.519  1.00  0.00     0.102 A 
HETATM    8  N   UNL     1     -41.737 -50.508  11.385  1.00  0.00    -0.338 N 
ATOM      9  HN  UNL     1     -42.606 -50.458  10.855  1.00  0.00     0.167 HD
BRANCH   7  10
HETATM   10  C   UNL     1     -41.338 -48.143  10.874  1.00  0.00     0.267 C 
HETATM   11  N   UNL     1     -42.415 -48.252  10.021  1.00  0.00    -0.360 N 
HETATM   12  C   UNL     1     -42.973 -47.098   9.369  1.00  0.00     0.149 C 
HETATM   13  H   UNL     1     -42.819 -49.178   9.907  1.00  0.00     0.162 HD
HETATM   14  O   UNL     1     -40.773 -47.081  11.110  1.00  0.00    -0.266 OA
ENDBRANCH   7  10
ENDBRANCH   1   3
BRANCH   1  15
HETATM   15  C   UNL     1     -42.762 -53.474  12.962  1.00  0.00     0.155 C 
BRANCH  15  16
HETATM   16  C   UNL     1     -44.262 -53.214  12.654  1.00  0.00     0.167 C 
HETATM   17  C   UNL     1     -45.022 -52.227  13.574  1.00  0.00     0.305 C 
HETATM   18  N   UNL     1     -45.688 -52.773  14.790  1.00  0.00     0.093 N 
HETATM   19  C   UNL     1     -46.292 -54.087  14.491  1.00  0.00     0.298 C 
HETATM   20  C   UNL     1     -45.308 -55.020  13.789  1.00  0.00     0.198 C 
HETATM   21  O   UNL     1     -44.958 -54.478  12.515  1.00  0.00    -0.381 OA
BRANCH  18  22
HETATM   22  C   UNL     1     -46.735 -51.811  15.226  1.00  0.00     0.276 C 
BRANCH  22  23
HETATM   23  C   UNL     1     -46.763 -51.423  16.723  1.00  0.00     0.006 C 
HETATM   24  C   UNL     1     -45.760 -50.321  17.061  1.00  0.00     0.011 C 
HETATM   25  C   UNL     1     -48.178 -50.976  17.110  1.00  0.00     0.011 C 
ENDBRANCH  22  23
ENDBRANCH  18  22
ENDBRANCH  15  16
ENDBRANCH   1  15
TORSDOF 6
ENDMDL
MODEL 5
REMARK VINA RESULT:      -6.3      1.506      2.312
REMARK  6 active torsions:
REMARK  status: ('A' for Active; 'I' for Inactive)
REMARK       I    between atoms: N_2  and  C_3 
REMARK    1  A    between atoms: C_3  and  C_5 
REMARK    2  A    between atoms: C_9  and  N_10 
REMARK    3  A    between atoms: N_10  and  C_11 
REMARK    4  A    between atoms: C_11  and  C_12 
REMARK    5  A    between atoms: N_14  and  C_15 
REMARK    6  A    between atoms: C_15  and  C_16 
ROOT
HETATM    1  N   UNL     1     -40.837 -50.706  11.266  1.00  0.00    -0.374 N 
HETATM    2  H   UNL     1     -40.081 -50.690  10.580  1.00  0.00     0.161 HD
ENDROOT
BRANCH   1   3
HETATM    3  C   UNL     1     -41.372 -49.443  11.460  1.00  0.00     0.101 A 
HETATM    4  C   UNL     1     -42.326 -49.334  12.481  1.00  0.00     0.048 A 
HETATM    5  C   UNL     1     -42.865 -48.100  12.822  1.00  0.00     0.006 A 
HETATM    6  C   UNL     1     -42.432 -46.982  12.135  1.00  0.00     0.035 A 
HETATM    7  C   UNL     1     -41.485 -47.160  11.134  1.00  0.00     0.102 A 
HETATM    8  N   UNL     1     -40.935 -48.365  10.781  1.00  0.00    -0.338 N 
ATOM      9  HN  UNL     1     -40.234 -48.441  10.044  1.00  0.00     0.167 HD
BRANCH   7  10
HETATM   10  C   UNL     1     -41.035 -45.949  10.377  1.00  0.00     0.267 C 
HETATM   11  N   UNL     1     -39.672 -45.833  10.217  1.00  0.00    -0.360 N 
HETATM   12  C   UNL     1     -39.095 -44.749   9.468  1.00  0.00     0.149 C 
HETATM   13  H   UNL     1     -39.098 -46.569  10.620  1.00  0.00     0.162 HD
HETATM   14  O   UNL     1     -41.836 -45.138   9.925  1.00  0.00    -0.266 OA
ENDBRANCH   7  10
ENDBRANCH   1   3
BRANCH   1  15
HETATM   15  C   UNL     1     -40.496 -51.622  12.356  1.00  0.00     0.155 C 
BRANCH  15  16
HETATM   16  C   UNL     1     -41.351 -52.892  12.092  1.00  0.00     0.167 C 
HETATM   17  C   UNL     1     -42.884 -52.774  12.274  1.00  0.00     0.305 C 
HETATM   18  N   UNL     1     -43.454 -53.051  13.623  1.00  0.00     0.093 N 
HETATM   19  C   UNL     1     -42.739 -54.180  14.253  1.00  0.00     0.298 C 
HETATM   20  C   UNL     1     -41.224 -54.003  14.188  1.00  0.00     0.198 C 
HETATM   21  O   UNL     1     -40.797 -54.014  12.825  1.00  0.00    -0.381 OA
BRANCH  18  22
HETATM   22  C   UNL     1     -44.897 -53.375  13.468  1.00  0.00     0.276 C 
BRANCH  22  23
HETATM   23  C   UNL     1     -45.916 -52.273  13.842  1.00  0.00     0.006 C 
HETATM   24  C   UNL     1     -45.296 -51.168  14.694  1.00  0.00     0.011 C 
HETATM   25  C   UNL     1     -46.512 -51.673  12.563  1.00  0.00     0.011 C 
ENDBRANCH  22  23
ENDBRANCH  18  22
ENDBRANCH  15  16
ENDBRANCH   1  15
TORSDOF 6
ENDMDL
MODEL 6
REMARK VINA RESULT:      -6.3      2.294      6.706
REMARK  6 active torsions:
REMARK  status: ('A' for Active; 'I' for Inactive)
REMARK       I    between atoms: N_2  and  C_3 
REMARK    1  A    between atoms: C_3  and  C_5 
REMARK    2  A    between atoms: C_9  and  N_10 
REMARK    3  A    between atoms: N_10  and  C_11 
REMARK    4  A    between atoms: C_11  and  C_12 
REMARK    5  A    between atoms: N_14  and  C_15 
REMARK    6  A    between atoms: C_15  and  C_16 
ROOT
HETATM    1  N   UNL     1     -40.538 -51.211  11.226  1.00  0.00    -0.374 N 
HETATM    2  H   UNL     1     -40.818 -51.126  10.248  1.00  0.00     0.161 HD
ENDROOT
BRANCH   1   3
HETATM    3  C   UNL     1     -41.257 -52.201  11.876  1.00  0.00     0.101 A 
HETATM    4  C   UNL     1     -40.507 -53.081  12.668  1.00  0.00     0.048 A 
HETATM    5  C   UNL     1     -41.132 -54.058  13.433  1.00  0.00     0.006 A 
HETATM    6  C   UNL     1     -42.510 -54.136  13.400  1.00  0.00     0.035 A 
HETATM    7  C   UNL     1     -43.193 -53.235  12.593  1.00  0.00     0.102 A 
HETATM    8  N   UNL     1     -42.602 -52.260  11.831  1.00  0.00    -0.338 N 
ATOM      9  HN  UNL     1     -43.149 -51.615  11.262  1.00  0.00     0.167 HD
BRANCH   7  10
HETATM   10  C   UNL     1     -44.686 -53.337  12.542  1.00  0.00     0.267 C 
HETATM   11  N   UNL     1     -45.341 -52.171  12.213  1.00  0.00    -0.360 N 
HETATM   12  C   UNL     1     -46.772 -52.128  12.075  1.00  0.00     0.149 C 
HETATM   13  H   UNL     1     -44.763 -51.354  12.034  1.00  0.00     0.162 HD
HETATM   14  O   UNL     1     -45.267 -54.394  12.763  1.00  0.00    -0.266 OA
ENDBRANCH   7  10
ENDBRANCH   1   3
BRANCH   1  15
HETATM   15  C   UNL     1     -40.293 -49.882  11.787  1.00  0.00     0.155 C 
BRANCH  15  16
HETATM   16  C   UNL     1     -41.435 -48.994  11.223  1.00  0.00     0.167 C 
HETATM   17  C   UNL     1     -41.161 -47.476  11.084  1.00  0.00     0.305 C 
HETATM   18  N   UNL     1     -41.474 -46.596  12.245  1.00  0.00     0.093 N 
HETATM   19  C   UNL     1     -42.720 -47.046  12.899  1.00  0.00     0.298 C 
HETATM   20  C   UNL     1     -42.709 -48.547  13.178  1.00  0.00     0.198 C 
HETATM   21  O   UNL     1     -42.664 -49.263  11.943  1.00  0.00    -0.381 OA
BRANCH  18  22
HETATM   22  C   UNL     1     -41.622 -45.201  11.754  1.00  0.00     0.276 C 
BRANCH  22  23
HETATM   23  C   UNL     1     -40.699 -44.128  12.378  1.00  0.00     0.006 C 
HETATM   24  C   UNL     1     -39.400 -44.719  12.924  1.00  0.00     0.011 C 
HETATM   25  C   UNL     1     -40.383 -43.054  11.329  1.00  0.00     0.011 C 
ENDBRANCH  22  23
ENDBRANCH  18  22
ENDBRANCH  15  16
ENDBRANCH   1  15
TORSDOF 6
ENDMDL
MODEL 7
REMARK VINA RESULT:      -6.0      1.646      1.999
REMARK  6 active torsions:
REMARK  status: ('A' for Active; 'I' for Inactive)
REMARK       I    between atoms: N_2  and  C_3 
REMARK    1  A    between atoms: C_3  and  C_5 
REMARK    2  A    between atoms: C_9  and  N_10 
REMARK    3  A    between atoms: N_10  and  C_11 
REMARK    4  A    between atoms: C_11  and  C_12 
REMARK    5  A    between atoms: N_14  and  C_15 
REMARK    6  A    between atoms: C_15  and  C_16 
ROOT
HETATM    1  N   UNL     1     -41.123 -49.526  12.301  1.00  0.00    -0.374 N 
HETATM    2  H   UNL     1     -41.880 -49.908  12.869  1.00  0.00     0.161 HD
ENDROOT
BRANCH   1   3
HETATM    3  C   UNL     1     -41.559 -48.467  11.521  1.00  0.00     0.101 A 
HETATM    4  C   UNL     1     -40.723 -47.342  11.496  1.00  0.00     0.048 A 
HETATM    5  C   UNL     1     -41.016 -46.256  10.680  1.00  0.00     0.006 A 
HETATM    6  C   UNL     1     -42.146 -46.315   9.889  1.00  0.00     0.035 A 
HETATM    7  C   UNL     1     -42.932 -47.459   9.962  1.00  0.00     0.102 A 
HETATM    8  N   UNL     1     -42.664 -48.545  10.755  1.00  0.00    -0.338 N 
ATOM      9  HN  UNL     1     -43.268 -49.366  10.765  1.00  0.00     0.167 HD
BRANCH   7  10
HETATM   10  C   UNL     1     -44.169 -47.510   9.120  1.00  0.00     0.267 C 
HETATM   11  N   UNL     1     -45.329 -47.136   9.762  1.00  0.00    -0.360 N 
HETATM   12  C   UNL     1     -46.588 -47.086   9.068  1.00  0.00     0.149 C 
HETATM   13  H   UNL     1     -45.246 -46.861  10.738  1.00  0.00     0.162 HD
HETATM   14  O   UNL     1     -44.133 -47.847   7.942  1.00  0.00    -0.266 OA
ENDBRANCH   7  10
ENDBRANCH   1   3
BRANCH   1  15
HETATM   15  C   UNL     1     -40.284 -50.616  11.799  1.00  0.00     0.155 C 
BRANCH  15  16
HETATM   16  C   UNL     1     -41.195 -51.873  11.841  1.00  0.00     0.167 C 
HETATM   17  C   UNL     1     -42.515 -51.776  12.645  1.00  0.00     0.305 C 
HETATM   18  N   UNL     1     -42.483 -52.135  14.091  1.00  0.00     0.093 N 
HETATM   19  C   UNL     1     -41.593 -53.294  14.307  1.00  0.00     0.298 C 
HETATM   20  C   UNL     1     -40.236 -53.104  13.633  1.00  0.00     0.198 C 
HETATM   21  O   UNL     1     -40.409 -53.032  12.217  1.00  0.00    -0.381 OA
BRANCH  18  22
HETATM   22  C   UNL     1     -43.867 -52.459  14.527  1.00  0.00     0.276 C 
BRANCH  22  23
HETATM   23  C   UNL     1     -44.204 -53.948  14.771  1.00  0.00     0.006 C 
HETATM   24  C   UNL     1     -45.062 -54.158  16.018  1.00  0.00     0.011 C 
HETATM   25  C   UNL     1     -44.924 -54.518  13.542  1.00  0.00     0.011 C 
ENDBRANCH  22  23
ENDBRANCH  18  22
ENDBRANCH  15  16
ENDBRANCH   1  15
TORSDOF 6
ENDMDL
MODEL 8
REMARK VINA RESULT:      -5.8      2.365      3.939
REMARK  6 active torsions:
REMARK  status: ('A' for Active; 'I' for Inactive)
REMARK       I    between atoms: N_2  and  C_3 
REMARK    1  A    between atoms: C_3  and  C_5 
REMARK    2  A    between atoms: C_9  and  N_10 
REMARK    3  A    between atoms: N_10  and  C_11 
REMARK    4  A    between atoms: C_11  and  C_12 
REMARK    5  A    between atoms: N_14  and  C_15 
REMARK    6  A    between atoms: C_15  and  C_16 
ROOT
HETATM    1  N   UNL     1     -42.160 -47.843  11.639  1.00  0.00    -0.374 N 
HETATM    2  H   UNL     1     -42.532 -48.708  12.032  1.00  0.00     0.161 HD
ENDROOT
BRANCH   1   3
HETATM    3  C   UNL     1     -43.048 -47.271  10.742  1.00  0.00     0.101 A 
HETATM    4  C   UNL     1     -42.801 -45.932  10.407  1.00  0.00     0.048 A 
HETATM    5  C   UNL     1     -43.573 -45.284   9.451  1.00  0.00     0.006 A 
HETATM    6  C   UNL     1     -44.586 -45.993   8.834  1.00  0.00     0.035 A 
HETATM    7  C   UNL     1     -44.779 -47.315   9.214  1.00  0.00     0.102 A 
HETATM    8  N   UNL     1     -44.029 -47.979  10.151  1.00  0.00    -0.338 N 
ATOM      9  HN  UNL     1     -44.204 -48.955  10.387  1.00  0.00     0.167 HD
BRANCH   7  10
HETATM   10  C   UNL     1     -45.892 -48.073   8.560  1.00  0.00     0.267 C 
HETATM   11  N   UNL     1     -45.563 -48.686   7.371  1.00  0.00    -0.360 N 
HETATM   12  C   UNL     1     -46.514 -49.491   6.654  1.00  0.00     0.149 C 
HETATM   13  H   UNL     1     -44.605 -48.573   7.046  1.00  0.00     0.162 HD
HETATM   14  O   UNL     1     -47.006 -48.147   9.067  1.00  0.00    -0.266 OA
ENDBRANCH   7  10
ENDBRANCH   1   3
BRANCH   1  15
HETATM   15  C   UNL     1     -40.727 -47.990  11.384  1.00  0.00     0.155 C 
BRANCH  15  16
HETATM   16  C   UNL     1     -40.485 -49.524  11.340  1.00  0.00     0.167 C 
HETATM   17  C   UNL     1     -41.492 -50.430  12.090  1.00  0.00     0.305 C 
HETATM   18  N   UNL     1     -41.222 -50.744  13.522  1.00  0.00     0.093 N 
HETATM   19  C   UNL     1     -39.774 -50.949  13.732  1.00  0.00     0.298 C 
HETATM   20  C   UNL     1     -38.944 -49.821  13.125  1.00  0.00     0.198 C 
HETATM   21  O   UNL     1     -39.112 -49.812  11.706  1.00  0.00    -0.381 OA
BRANCH  18  22
HETATM   22  C   UNL     1     -41.976 -51.972  13.886  1.00  0.00     0.276 C 
BRANCH  22  23
HETATM   23  C   UNL     1     -42.142 -53.053  12.792  1.00  0.00     0.006 C 
HETATM   24  C   UNL     1     -41.243 -54.266  13.026  1.00  0.00     0.011 C 
HETATM   25  C   UNL     1     -43.609 -53.496  12.728  1.00  0.00     0.011 C 
ENDBRANCH  22  23
ENDBRANCH  18  22
ENDBRANCH  15  16
ENDBRANCH   1  15
TORSDOF 6
ENDMDL
MODEL 9
REMARK VINA RESULT:      -5.8      2.346      3.149
REMARK  6 active torsions:
REMARK  status: ('A' for Active; 'I' for Inactive)
REMARK       I    between atoms: N_2  and  C_3 
REMARK    1  A    between atoms: C_3  and  C_5 
REMARK    2  A    between atoms: C_9  and  N_10 
REMARK    3  A    between atoms: N_10  and  C_11 
REMARK    4  A    between atoms: C_11  and  C_12 
REMARK    5  A    between atoms: N_14  and  C_15 
REMARK    6  A    between atoms: C_15  and  C_16 
ROOT
HETATM    1  N   UNL     1     -39.503 -51.885  14.754  1.00  0.00    -0.374 N 
HETATM    2  H   UNL     1     -38.970 -51.803  15.620  1.00  0.00     0.161 HD
ENDROOT
BRANCH   1   3
HETATM    3  C   UNL     1     -39.090 -50.951  13.816  1.00  0.00     0.101 A 
HETATM    4  C   UNL     1     -37.956 -51.296  13.069  1.00  0.00     0.048 A 
HETATM    5  C   UNL     1     -37.505 -50.477  12.042  1.00  0.00     0.006 A 
HETATM    6  C   UNL     1     -38.205 -49.318  11.770  1.00  0.00     0.035 A 
HETATM    7  C   UNL     1     -39.320 -49.034  12.549  1.00  0.00     0.102 A 
HETATM    8  N   UNL     1     -39.788 -49.827  13.565  1.00  0.00    -0.338 N 
ATOM      9  HN  UNL     1     -40.619 -49.579  14.102  1.00  0.00     0.167 HD
BRANCH   7  10
HETATM   10  C   UNL     1     -40.064 -47.766  12.267  1.00  0.00     0.267 C 
HETATM   11  N   UNL     1     -39.772 -47.175  11.057  1.00  0.00    -0.360 N 
HETATM   12  C   UNL     1     -40.446 -45.979  10.626  1.00  0.00     0.149 C 
HETATM   13  H   UNL     1     -39.089 -47.645  10.469  1.00  0.00     0.162 HD
HETATM   14  O   UNL     1     -40.881 -47.309  13.058  1.00  0.00    -0.266 OA
ENDBRANCH   7  10
ENDBRANCH   1   3
BRANCH   1  15
HETATM   15  C   UNL     1     -40.906 -52.166  15.060  1.00  0.00     0.155 C 
BRANCH  15  16
HETATM   16  C   UNL     1     -41.407 -53.035  13.875  1.00  0.00     0.167 C 
HETATM   17  C   UNL     1     -42.696 -52.580  13.147  1.00  0.00     0.305 C 
HETATM   18  N   UNL     1     -44.004 -53.078  13.658  1.00  0.00     0.093 N 
HETATM   19  C   UNL     1     -43.878 -54.487  14.085  1.00  0.00     0.298 C 
HETATM   20  C   UNL     1     -42.675 -54.700  15.001  1.00  0.00     0.198 C 
HETATM   21  O   UNL     1     -41.471 -54.425  14.283  1.00  0.00    -0.381 OA
BRANCH  18  22
HETATM   22  C   UNL     1     -45.012 -52.955  12.572  1.00  0.00     0.276 C 
BRANCH  22  23
HETATM   23  C   UNL     1     -46.396 -52.377  12.950  1.00  0.00     0.006 C 
HETATM   24  C   UNL     1     -46.323 -51.413  14.134  1.00  0.00     0.011 C 
HETATM   25  C   UNL     1     -47.002 -51.665  11.735  1.00  0.00     0.011 C 
ENDBRANCH  22  23
ENDBRANCH  18  22
ENDBRANCH  15  16
ENDBRANCH   1  15
TORSDOF 6
ENDMDL
