MODEL 1
REMARK VINA RESULT:      -5.4      0.000      0.000
REMARK  5 active torsions:
REMARK  status: ('A' for Active; 'I' for Inactive)
REMARK    1  A    between atoms: N_3  and  N_4 
REMARK    2  A    between atoms: C_5  and  N_6 
REMARK    3  A    between atoms: N_8  and  C_9 
REMARK    4  A    between atoms: C_9  and  C_10 
REMARK    5  A    between atoms: C_10  and  O_11 
ROOT
HETATM    1  N   UNL     2     -41.205 -53.578  12.604  1.00  0.00    -0.109 N 
HETATM    2  C   UNL     2     -42.534 -53.492  12.856  1.00  0.00     0.696 A 
HETATM    3  N   UNL     2     -42.861 -53.993  14.077  1.00  0.00    -0.178 N 
HETATM    4  C   UNL     2     -41.683 -54.414  14.595  1.00  0.00     0.080 A 
HETATM    5  C   UNL     2     -41.429 -55.017  15.832  1.00  0.00     0.032 A 
HETATM    6  C   UNL     2     -40.101 -55.364  16.133  1.00  0.00     0.002 A 
HETATM    7  C   UNL     2     -39.065 -55.104  15.214  1.00  0.00     0.002 A 
HETATM    8  C   UNL     2     -39.342 -54.492  13.978  1.00  0.00     0.034 A 
HETATM    9  C   UNL     2     -40.673 -54.160  13.699  1.00  0.00     0.096 A 
ENDROOT
BRANCH   3  10
HETATM   10  C   UNL     2     -44.189 -54.037  14.708  1.00  0.00     0.174 C 
BRANCH  10  11
HETATM   11  C   UNL     2     -45.151 -54.972  13.973  1.00  0.00     0.185 C 
BRANCH  11  12
HETATM   12  O   UNL     2     -46.012 -54.243  13.141  1.00  0.00    -0.399 OA
HETATM   13  H   UNL     2     -46.938 -54.474  13.418  1.00  0.00     0.209 HD
ENDBRANCH  11  12
ENDBRANCH  10  11
ENDBRANCH   3  10
BRANCH   2  14
HETATM   14  N   UNL     2     -43.389 -52.988  12.042  1.00  0.00    -0.233 N 
HETATM   15  H   UNL     2     -43.117 -52.662  11.102  1.00  0.00     0.174 HD
ATOM     16  HN  UNL     2     -44.364 -52.908  12.332  1.00  0.00     0.174 HD
ENDBRANCH   2  14
BRANCH   1  17
HETATM   17  N   UNL     2     -40.544 -53.125  11.443  1.00  0.00    -0.227 NA
HETATM   18  H   UNL     2     -39.886 -53.873  11.128  1.00  0.00     0.144 HD
HETATM   19  H   UNL     2     -39.993 -52.264  11.651  1.00  0.00     0.144 HD
ENDBRANCH   1  17
TORSDOF 5
ENDMDL
MODEL 2
REMARK VINA RESULT:      -5.1      4.075      4.955
REMARK  5 active torsions:
REMARK  status: ('A' for Active; 'I' for Inactive)
REMARK    1  A    between atoms: N_3  and  N_4 
REMARK    2  A    between atoms: C_5  and  N_6 
REMARK    3  A    between atoms: N_8  and  C_9 
REMARK    4  A    between atoms: C_9  and  C_10 
REMARK    5  A    between atoms: C_10  and  O_11 
ROOT
HETATM    1  N   UNL     2     -40.119 -50.526  11.581  1.00  0.00    -0.109 N 
HETATM    2  C   UNL     2     -40.539 -51.727  12.049  1.00  0.00     0.696 A 
HETATM    3  N   UNL     2     -40.051 -51.997  13.289  1.00  0.00    -0.178 N 
HETATM    4  C   UNL     2     -39.291 -50.919  13.594  1.00  0.00     0.080 A 
HETATM    5  C   UNL     2     -38.547 -50.663  14.752  1.00  0.00     0.032 A 
HETATM    6  C   UNL     2     -37.835 -49.454  14.821  1.00  0.00     0.002 A 
HETATM    7  C   UNL     2     -37.878 -48.533  13.755  1.00  0.00     0.002 A 
HETATM    8  C   UNL     2     -38.636 -48.808  12.602  1.00  0.00     0.034 A 
HETATM    9  C   UNL     2     -39.333 -50.022  12.555  1.00  0.00     0.096 A 
ENDROOT
BRANCH   3  10
HETATM   10  C   UNL     2     -40.316 -53.178  14.126  1.00  0.00     0.174 C 
BRANCH  10  11
HETATM   11  C   UNL     2     -39.073 -54.052  14.306  1.00  0.00     0.185 C 
BRANCH  11  12
HETATM   12  O   UNL     2     -38.911 -54.914  13.213  1.00  0.00    -0.399 OA
HETATM   13  H   UNL     2     -38.532 -55.760  13.570  1.00  0.00     0.209 HD
ENDBRANCH  11  12
ENDBRANCH  10  11
ENDBRANCH   3  10
BRANCH   2  14
HETATM   14  N   UNL     2     -41.315 -52.520  11.403  1.00  0.00    -0.233 N 
HETATM   15  H   UNL     2     -40.947 -53.215  10.736  1.00  0.00     0.174 HD
ATOM     16  HN  UNL     2     -42.322 -52.459  11.552  1.00  0.00     0.174 HD
ENDBRANCH   2  14
BRANCH   1  17
HETATM   17  N   UNL     2     -40.468 -49.945  10.344  1.00  0.00    -0.227 NA
HETATM   18  H   UNL     2     -40.847 -48.988  10.528  1.00  0.00     0.144 HD
HETATM   19  H   UNL     2     -41.208 -50.509   9.873  1.00  0.00     0.144 HD
ENDBRANCH   1  17
TORSDOF 5
ENDMDL
MODEL 3
REMARK VINA RESULT:      -4.9      2.540      4.166
REMARK  5 active torsions:
REMARK  status: ('A' for Active; 'I' for Inactive)
REMARK    1  A    between atoms: N_3  and  N_4 
REMARK    2  A    between atoms: C_5  and  N_6 
REMARK    3  A    between atoms: N_8  and  C_9 
REMARK    4  A    between atoms: C_9  and  C_10 
REMARK    5  A    between atoms: C_10  and  O_11 
ROOT
HETATM    1  N   UNL     2     -40.972 -53.889  12.947  1.00  0.00    -0.109 N 
HETATM    2  C   UNL     2     -40.186 -54.112  14.029  1.00  0.00     0.696 A 
HETATM    3  N   UNL     2     -40.909 -54.428  15.135  1.00  0.00    -0.178 N 
HETATM    4  C   UNL     2     -42.196 -54.389  14.720  1.00  0.00     0.080 A 
HETATM    5  C   UNL     2     -43.367 -54.629  15.448  1.00  0.00     0.032 A 
HETATM    6  C   UNL     2     -44.595 -54.522  14.774  1.00  0.00     0.002 A 
HETATM    7  C   UNL     2     -44.635 -54.186  13.405  1.00  0.00     0.002 A 
HETATM    8  C   UNL     2     -43.446 -53.953  12.691  1.00  0.00     0.034 A 
HETATM    9  C   UNL     2     -42.236 -54.062  13.386  1.00  0.00     0.096 A 
ENDROOT
BRANCH   3  10
HETATM   10  C   UNL     2     -40.405 -54.770  16.476  1.00  0.00     0.174 C 
BRANCH  10  11
HETATM   11  C   UNL     2     -39.966 -56.232  16.575  1.00  0.00     0.185 C 
BRANCH  11  12
HETATM   12  O   UNL     2     -38.634 -56.378  16.164  1.00  0.00    -0.399 OA
HETATM   13  H   UNL     2     -38.168 -56.882  16.882  1.00  0.00     0.209 HD
ENDBRANCH  11  12
ENDBRANCH  10  11
ENDBRANCH   3  10
BRANCH   2  14
HETATM   14  N   UNL     2     -38.904 -54.042  14.012  1.00  0.00    -0.233 N 
HETATM   15  H   UNL     2     -38.365 -53.765  14.846  1.00  0.00     0.174 HD
ATOM     16  HN  UNL     2     -38.405 -54.267  13.151  1.00  0.00     0.174 HD
ENDBRANCH   2  14
BRANCH   1  17
HETATM   17  N   UNL     2     -40.530 -53.568  11.646  1.00  0.00    -0.227 NA
HETATM   18  H   UNL     2     -41.240 -53.919  10.964  1.00  0.00     0.144 HD
HETATM   19  H   UNL     2     -39.618 -54.036  11.446  1.00  0.00     0.144 HD
ENDBRANCH   1  17
TORSDOF 5
ENDMDL
MODEL 4
REMARK VINA RESULT:      -4.9      3.746      5.194
REMARK  5 active torsions:
REMARK  status: ('A' for Active; 'I' for Inactive)
REMARK    1  A    between atoms: N_3  and  N_4 
REMARK    2  A    between atoms: C_5  and  N_6 
REMARK    3  A    between atoms: N_8  and  C_9 
REMARK    4  A    between atoms: C_9  and  C_10 
REMARK    5  A    between atoms: C_10  and  O_11 
ROOT
HETATM    1  N   UNL     2     -43.216 -52.714  12.543  1.00  0.00    -0.109 N 
HETATM    2  C   UNL     2     -42.038 -52.215  12.095  1.00  0.00     0.696 A 
HETATM    3  N   UNL     2     -41.662 -51.096  12.770  1.00  0.00    -0.178 N 
HETATM    4  C   UNL     2     -42.657 -50.892  13.665  1.00  0.00     0.080 A 
HETATM    5  C   UNL     2     -42.791 -49.877  14.619  1.00  0.00     0.032 A 
HETATM    6  C   UNL     2     -43.933 -49.890  15.437  1.00  0.00     0.002 A 
HETATM    7  C   UNL     2     -44.905 -50.902  15.297  1.00  0.00     0.002 A 
HETATM    8  C   UNL     2     -44.747 -51.917  14.336  1.00  0.00     0.034 A 
HETATM    9  C   UNL     2     -43.603 -51.879  13.529  1.00  0.00     0.096 A 
ENDROOT
BRANCH   3  10
HETATM   10  C   UNL     2     -40.435 -50.303  12.591  1.00  0.00     0.174 C 
BRANCH  10  11
HETATM   11  C   UNL     2     -40.551 -49.307  11.436  1.00  0.00     0.185 C 
BRANCH  11  12
HETATM   12  O   UNL     2     -40.355 -49.950  10.206  1.00  0.00    -0.399 OA
HETATM   13  H   UNL     2     -40.851 -50.810  10.251  1.00  0.00     0.209 HD
ENDBRANCH  11  12
ENDBRANCH  10  11
ENDBRANCH   3  10
BRANCH   2  14
HETATM   14  N   UNL     2     -41.348 -52.740  11.149  1.00  0.00    -0.233 N 
HETATM   15  H   UNL     2     -40.397 -52.412  10.923  1.00  0.00     0.174 HD
ATOM     16  HN  UNL     2     -41.752 -53.502  10.604  1.00  0.00     0.174 HD
ENDBRANCH   2  14
BRANCH   1  17
HETATM   17  N   UNL     2     -43.863 -53.876  12.073  1.00  0.00    -0.227 NA
HETATM   18  H   UNL     2     -43.357 -54.211  11.221  1.00  0.00     0.144 HD
HETATM   19  H   UNL     2     -44.850 -53.661  11.808  1.00  0.00     0.144 HD
ENDBRANCH   1  17
TORSDOF 5
ENDMDL
MODEL 5
REMARK VINA RESULT:      -4.9      3.712      5.197
REMARK  5 active torsions:
REMARK  status: ('A' for Active; 'I' for Inactive)
REMARK    1  A    between atoms: N_3  and  N_4 
REMARK    2  A    between atoms: C_5  and  N_6 
REMARK    3  A    between atoms: N_8  and  C_9 
REMARK    4  A    between atoms: C_9  and  C_10 
REMARK    5  A    between atoms: C_10  and  O_11 
ROOT
HETATM    1  N   UNL     2     -41.373 -52.336  11.954  1.00  0.00    -0.109 N 
HETATM    2  C   UNL     2     -41.041 -51.029  11.809  1.00  0.00     0.696 A 
HETATM    3  N   UNL     2     -42.000 -50.196  12.291  1.00  0.00    -0.178 N 
HETATM    4  C   UNL     2     -42.969 -51.024  12.745  1.00  0.00     0.080 A 
HETATM    5  C   UNL     2     -44.194 -50.705  13.343  1.00  0.00     0.032 A 
HETATM    6  C   UNL     2     -45.032 -51.765  13.730  1.00  0.00     0.002 A 
HETATM    7  C   UNL     2     -44.641 -53.103  13.521  1.00  0.00     0.002 A 
HETATM    8  C   UNL     2     -43.403 -53.401  12.923  1.00  0.00     0.034 A 
HETATM    9  C   UNL     2     -42.587 -52.328  12.543  1.00  0.00     0.096 A 
ENDROOT
BRANCH   3  10
HETATM   10  C   UNL     2     -41.977 -48.725  12.339  1.00  0.00     0.174 C 
BRANCH  10  11
HETATM   11  C   UNL     2     -42.402 -48.094  11.012  1.00  0.00     0.185 C 
BRANCH  11  12
HETATM   12  O   UNL     2     -41.301 -47.949  10.157  1.00  0.00    -0.399 OA
HETATM   13  H   UNL     2     -40.771 -48.786  10.231  1.00  0.00     0.209 HD
ENDBRANCH  11  12
ENDBRANCH  10  11
ENDBRANCH   3  10
BRANCH   2  14
HETATM   14  N   UNL     2     -39.943 -50.622  11.283  1.00  0.00    -0.233 N 
HETATM   15  H   UNL     2     -39.239 -51.280  10.915  1.00  0.00     0.174 HD
ATOM     16  HN  UNL     2     -39.761 -49.619  11.227  1.00  0.00     0.174 HD
ENDBRANCH   2  14
BRANCH   1  17
HETATM   17  N   UNL     2     -40.585 -53.444  11.582  1.00  0.00    -0.227 NA
HETATM   18  H   UNL     2     -39.579 -53.187  11.708  1.00  0.00     0.144 HD
HETATM   19  H   UNL     2     -40.743 -53.682  10.578  1.00  0.00     0.144 HD
ENDBRANCH   1  17
TORSDOF 5
ENDMDL
MODEL 6
REMARK VINA RESULT:      -4.9      7.849      8.965
REMARK  5 active torsions:
REMARK  status: ('A' for Active; 'I' for Inactive)
REMARK    1  A    between atoms: N_3  and  N_4 
REMARK    2  A    between atoms: C_5  and  N_6 
REMARK    3  A    between atoms: N_8  and  C_9 
REMARK    4  A    between atoms: C_9  and  C_10 
REMARK    5  A    between atoms: C_10  and  O_11 
ROOT
HETATM    1  N   UNL     2     -41.447 -46.130  10.279  1.00  0.00    -0.109 N 
HETATM    2  C   UNL     2     -41.148 -47.396  10.662  1.00  0.00     0.696 A 
HETATM    3  N   UNL     2     -40.342 -47.427  11.757  1.00  0.00    -0.178 N 
HETATM    4  C   UNL     2     -40.128 -46.124  12.055  1.00  0.00     0.080 A 
HETATM    5  C   UNL     2     -39.365 -45.570  13.089  1.00  0.00     0.032 A 
HETATM    6  C   UNL     2     -39.303 -44.169  13.182  1.00  0.00     0.002 A 
HETATM    7  C   UNL     2     -39.994 -43.357  12.260  1.00  0.00     0.002 A 
HETATM    8  C   UNL     2     -40.759 -43.935  11.231  1.00  0.00     0.034 A 
HETATM    9  C   UNL     2     -40.802 -45.333  11.157  1.00  0.00     0.096 A 
ENDROOT
BRANCH   3  10
HETATM   10  C   UNL     2     -39.842 -48.610  12.476  1.00  0.00     0.174 C 
BRANCH  10  11
HETATM   11  C   UNL     2     -38.570 -49.178  11.845  1.00  0.00     0.185 C 
BRANCH  11  12
HETATM   12  O   UNL     2     -38.883 -50.004  10.757  1.00  0.00    -0.399 OA
HETATM   13  H   UNL     2     -38.951 -49.413   9.961  1.00  0.00     0.209 HD
ENDBRANCH  11  12
ENDBRANCH  10  11
ENDBRANCH   3  10
BRANCH   2  14
HETATM   14  N   UNL     2     -41.581 -48.447  10.068  1.00  0.00    -0.233 N 
HETATM   15  H   UNL     2     -41.770 -48.459   9.054  1.00  0.00     0.174 HD
ATOM     16  HN  UNL     2     -41.743 -49.295  10.612  1.00  0.00     0.174 HD
ENDBRANCH   2  14
BRANCH   1  17
HETATM   17  N   UNL     2     -42.278 -45.758   9.202  1.00  0.00    -0.227 NA
HETATM   18  H   UNL     2     -42.028 -44.783   8.918  1.00  0.00     0.144 HD
HETATM   19  H   UNL     2     -43.280 -45.772   9.494  1.00  0.00     0.144 HD
ENDBRANCH   1  17
TORSDOF 5
ENDMDL
MODEL 7
REMARK VINA RESULT:      -4.8      3.117      4.217
REMARK  5 active torsions:
REMARK  status: ('A' for Active; 'I' for Inactive)
REMARK    1  A    between atoms: N_3  and  N_4 
REMARK    2  A    between atoms: C_5  and  N_6 
REMARK    3  A    between atoms: N_8  and  C_9 
REMARK    4  A    between atoms: C_9  and  C_10 
REMARK    5  A    between atoms: C_10  and  O_11 
ROOT
HETATM    1  N   UNL     2     -41.779 -52.312  12.012  1.00  0.00    -0.109 N 
HETATM    2  C   UNL     2     -42.954 -52.753  12.525  1.00  0.00     0.696 A 
HETATM    3  N   UNL     2     -43.676 -51.751  13.094  1.00  0.00    -0.178 N 
HETATM    4  C   UNL     2     -42.909 -50.648  12.932  1.00  0.00     0.080 A 
HETATM    5  C   UNL     2     -43.161 -49.331  13.332  1.00  0.00     0.032 A 
HETATM    6  C   UNL     2     -42.190 -48.358  13.041  1.00  0.00     0.002 A 
HETATM    7  C   UNL     2     -41.005 -48.707  12.363  1.00  0.00     0.002 A 
HETATM    8  C   UNL     2     -40.773 -50.036  11.966  1.00  0.00     0.034 A 
HETATM    9  C   UNL     2     -41.754 -50.988  12.271  1.00  0.00     0.096 A 
ENDROOT
BRANCH   3  10
HETATM   10  C   UNL     2     -45.007 -51.839  13.717  1.00  0.00     0.174 C 
BRANCH  10  11
HETATM   11  C   UNL     2     -46.136 -51.703  12.693  1.00  0.00     0.185 C 
BRANCH  11  12
HETATM   12  O   UNL     2     -46.359 -52.922  12.038  1.00  0.00    -0.399 OA
HETATM   13  H   UNL     2     -46.956 -52.727  11.268  1.00  0.00     0.209 HD
ENDBRANCH  11  12
ENDBRANCH  10  11
ENDBRANCH   3  10
BRANCH   2  14
HETATM   14  N   UNL     2     -43.348 -53.973  12.475  1.00  0.00    -0.233 N 
HETATM   15  H   UNL     2     -43.612 -54.494  13.325  1.00  0.00     0.174 HD
ATOM     16  HN  UNL     2     -43.401 -54.441  11.570  1.00  0.00     0.174 HD
ENDBRANCH   2  14
BRANCH   1  17
HETATM   17  N   UNL     2     -40.820 -53.093  11.334  1.00  0.00    -0.227 NA
HETATM   18  H   UNL     2     -41.101 -54.097  11.412  1.00  0.00     0.144 HD
HETATM   19  H   UNL     2     -39.880 -52.977  11.775  1.00  0.00     0.144 HD
ENDBRANCH   1  17
TORSDOF 5
ENDMDL
MODEL 8
REMARK VINA RESULT:      -4.7      6.111      6.844
REMARK  5 active torsions:
REMARK  status: ('A' for Active; 'I' for Inactive)
REMARK    1  A    between atoms: N_3  and  N_4 
REMARK    2  A    between atoms: C_5  and  N_6 
REMARK    3  A    between atoms: N_8  and  C_9 
REMARK    4  A    between atoms: C_9  and  C_10 
REMARK    5  A    between atoms: C_10  and  O_11 
ROOT
HETATM    1  N   UNL     2     -38.917 -49.813  12.055  1.00  0.00    -0.109 N 
HETATM    2  C   UNL     2     -39.936 -49.355  11.287  1.00  0.00     0.696 A 
HETATM    3  N   UNL     2     -40.282 -48.077  11.598  1.00  0.00    -0.178 N 
HETATM    4  C   UNL     2     -39.445 -47.737  12.607  1.00  0.00     0.080 A 
HETATM    5  C   UNL     2     -39.359 -46.533  13.314  1.00  0.00     0.032 A 
HETATM    6  C   UNL     2     -38.392 -46.434  14.329  1.00  0.00     0.002 A 
HETATM    7  C   UNL     2     -37.538 -47.518  14.614  1.00  0.00     0.002 A 
HETATM    8  C   UNL     2     -37.637 -48.718  13.887  1.00  0.00     0.034 A 
HETATM    9  C   UNL     2     -38.611 -48.793  12.884  1.00  0.00     0.096 A 
ENDROOT
BRANCH   3  10
HETATM   10  C   UNL     2     -41.310 -47.240  10.960  1.00  0.00     0.174 C 
BRANCH  10  11
HETATM   11  C   UNL     2     -42.685 -47.414  11.609  1.00  0.00     0.185 C 
BRANCH  11  12
HETATM   12  O   UNL     2     -43.294 -48.597  11.167  1.00  0.00    -0.399 OA
HETATM   13  H   UNL     2     -43.119 -49.285  11.862  1.00  0.00     0.209 HD
ENDBRANCH  11  12
ENDBRANCH  10  11
ENDBRANCH   3  10
BRANCH   2  14
HETATM   14  N   UNL     2     -40.507 -50.042  10.366  1.00  0.00    -0.233 N 
HETATM   15  H   UNL     2     -41.408 -49.756   9.955  1.00  0.00     0.174 HD
ATOM     16  HN  UNL     2     -40.058 -50.895  10.032  1.00  0.00     0.174 HD
ENDBRANCH   2  14
BRANCH   1  17
HETATM   17  N   UNL     2     -38.310 -51.083  11.965  1.00  0.00    -0.227 NA
HETATM   18  H   UNL     2     -38.920 -51.773  12.459  1.00  0.00     0.144 HD
HETATM   19  H   UNL     2     -37.376 -51.073  12.430  1.00  0.00     0.144 HD
ENDBRANCH   1  17
TORSDOF 5
ENDMDL
MODEL 9
REMARK VINA RESULT:      -4.7     17.097     18.859
REMARK  5 active torsions:
REMARK  status: ('A' for Active; 'I' for Inactive)
REMARK    1  A    between atoms: N_3  and  N_4 
REMARK    2  A    between atoms: C_5  and  N_6 
REMARK    3  A    between atoms: N_8  and  C_9 
REMARK    4  A    between atoms: C_9  and  C_10 
REMARK    5  A    between atoms: C_10  and  O_11 
ROOT
HETATM    1  N   UNL     2     -26.569 -64.281  18.218  1.00  0.00    -0.109 N 
HETATM    2  C   UNL     2     -25.577 -64.483  17.316  1.00  0.00     0.696 A 
HETATM    3  N   UNL     2     -25.996 -64.292  16.037  1.00  0.00    -0.178 N 
HETATM    4  C   UNL     2     -27.305 -63.966  16.155  1.00  0.00     0.080 A 
HETATM    5  C   UNL     2     -28.234 -63.665  15.153  1.00  0.00     0.032 A 
HETATM    6  C   UNL     2     -29.547 -63.356  15.545  1.00  0.00     0.002 A 
HETATM    7  C   UNL     2     -29.906 -63.348  16.909  1.00  0.00     0.002 A 
HETATM    8  C   UNL     2     -28.955 -63.648  17.900  1.00  0.00     0.034 A 
HETATM    9  C   UNL     2     -27.654 -63.957  17.484  1.00  0.00     0.096 A 
ENDROOT
BRANCH   3  10
HETATM   10  C   UNL     2     -25.200 -64.384  14.803  1.00  0.00     0.174 C 
BRANCH  10  11
HETATM   11  C   UNL     2     -25.273 -65.774  14.167  1.00  0.00     0.185 C 
BRANCH  11  12
HETATM   12  O   UNL     2     -26.212 -65.793  13.127  1.00  0.00    -0.399 OA
HETATM   13  H   UNL     2     -26.510 -64.855  12.993  1.00  0.00     0.209 HD
ENDBRANCH  11  12
ENDBRANCH  10  11
ENDBRANCH   3  10
BRANCH   2  14
HETATM   14  N   UNL     2     -24.376 -64.811  17.629  1.00  0.00    -0.233 N 
HETATM   15  H   UNL     2     -23.657 -64.988  16.912  1.00  0.00     0.174 HD
ATOM     16  HN  UNL     2     -24.127 -64.899  18.615  1.00  0.00     0.174 HD
ENDBRANCH   2  14
BRANCH   1  17
HETATM   17  N   UNL     2     -26.453 -64.373  19.620  1.00  0.00    -0.227 NA
HETATM   18  H   UNL     2     -25.437 -64.376  19.865  1.00  0.00     0.144 HD
HETATM   19  H   UNL     2     -26.879 -65.263  19.962  1.00  0.00     0.144 HD
ENDBRANCH   1  17
TORSDOF 5
ENDMDL
