MODEL 1
REMARK VINA RESULT:      -6.0      0.000      0.000
REMARK  4 active torsions:
REMARK  status: ('A' for Active; 'I' for Inactive)
REMARK    1  A    between atoms: C_2  and  C_3 
REMARK    2  A    between atoms: C_2  and  N_10 
REMARK    3  A    between atoms: C_3  and  N_4 
REMARK       I    between atoms: N_10  and  C_11 
REMARK       I    between atoms: C_11  and  N_13 
REMARK    4  A    between atoms: N_13  and  C_14 
ROOT
HETATM    1  N   UNL     1     -40.782 -50.802  11.438  1.00  0.00    -0.337 N 
HETATM    2  C   UNL     1     -41.885 -51.160  12.191  1.00  0.00     0.322 C 
HETATM    3  O   UNL     1     -42.328 -50.469  13.098  1.00  0.00    -0.247 OA
HETATM    4  N   UNL     1     -42.332 -52.410  11.840  1.00  0.00    -0.295 N 
HETATM    5  H   UNL     1     -40.885 -50.958  10.444  1.00  0.00     0.164 HD
HETATM    6  H   UNL     1     -41.606 -53.040  11.528  1.00  0.00     0.172 HD
ENDROOT
BRANCH   1   7
HETATM    7  C   UNL     1     -39.984 -49.636  11.816  1.00  0.00     0.110 C 
HETATM    8  C   UNL     1     -38.505 -49.884  11.488  1.00  0.00     0.034 C 
BRANCH   7   9
HETATM    9  C   UNL     1     -40.451 -48.358  11.066  1.00  0.00     0.297 C 
BRANCH   9  10
HETATM   10  N   UNL     1     -40.907 -47.234  11.914  1.00  0.00     0.094 N 
HETATM   11  C   UNL     1     -42.239 -46.751  11.455  1.00  0.00     0.298 C 
HETATM   12  C   UNL     1     -42.211 -45.981  10.116  1.00  0.00     0.198 C 
HETATM   13  O   UNL     1     -41.269 -44.901  10.137  1.00  0.00    -0.388 OA
HETATM   14  C   UNL     1     -39.962 -45.354  10.510  1.00  0.00     0.198 C 
HETATM   15  C   UNL     1     -39.997 -46.062  11.875  1.00  0.00     0.298 C 
ENDBRANCH   9  10
ENDBRANCH   7   9
ENDBRANCH   1   7
BRANCH   4  16
HETATM   16  C   UNL     1     -43.346 -53.077  12.533  1.00  0.00     0.108 A 
HETATM   17  C   UNL     1     -43.078 -54.111  13.422  1.00  0.00     0.049 A 
HETATM   18  C   UNL     1     -44.146 -54.743  14.054  1.00  0.00     0.005 A 
HETATM   19  C   UNL     1     -45.442 -54.342  13.759  1.00  0.00     0.017 A 
HETATM   20  C   UNL     1     -45.613 -53.295  12.869  1.00  0.00     0.089 A 
HETATM   21  N   UNL     1     -44.594 -52.632  12.279  1.00  0.00    -0.352 N 
ATOM     22  HN  UNL     1     -44.761 -51.830  11.669  1.00  0.00     0.166 HD
ENDBRANCH   4  16
TORSDOF 4
ENDMDL
MODEL 2
REMARK VINA RESULT:      -5.9      1.256      1.679
REMARK  4 active torsions:
REMARK  status: ('A' for Active; 'I' for Inactive)
REMARK    1  A    between atoms: C_2  and  C_3 
REMARK    2  A    between atoms: C_2  and  N_10 
REMARK    3  A    between atoms: C_3  and  N_4 
REMARK       I    between atoms: N_10  and  C_11 
REMARK       I    between atoms: C_11  and  N_13 
REMARK    4  A    between atoms: N_13  and  C_14 
ROOT
HETATM    1  N   UNL     1     -41.462 -50.476  11.417  1.00  0.00    -0.337 N 
HETATM    2  C   UNL     1     -42.147 -51.160  12.405  1.00  0.00     0.322 C 
HETATM    3  O   UNL     1     -42.270 -50.740  13.547  1.00  0.00    -0.247 OA
HETATM    4  N   UNL     1     -42.571 -52.385  11.947  1.00  0.00    -0.295 N 
HETATM    5  H   UNL     1     -41.927 -50.462  10.519  1.00  0.00     0.164 HD
HETATM    6  H   UNL     1     -41.965 -52.804  11.257  1.00  0.00     0.172 HD
ENDROOT
BRANCH   1   7
HETATM    7  C   UNL     1     -40.698 -49.275  11.753  1.00  0.00     0.110 C 
HETATM    8  C   UNL     1     -39.216 -49.486  11.419  1.00  0.00     0.034 C 
BRANCH   7   9
HETATM    9  C   UNL     1     -41.213 -48.035  10.971  1.00  0.00     0.297 C 
BRANCH   9  10
HETATM   10  N   UNL     1     -42.531 -47.503  11.386  1.00  0.00     0.094 N 
HETATM   11  C   UNL     1     -43.469 -47.495  10.229  1.00  0.00     0.298 C 
HETATM   12  C   UNL     1     -43.157 -46.423   9.162  1.00  0.00     0.198 C 
HETATM   13  O   UNL     1     -43.057 -45.111   9.731  1.00  0.00    -0.388 OA
HETATM   14  C   UNL     1     -42.106 -45.078  10.803  1.00  0.00     0.198 C 
HETATM   15  C   UNL     1     -42.469 -46.107  11.887  1.00  0.00     0.298 C 
ENDBRANCH   9  10
ENDBRANCH   7   9
ENDBRANCH   1   7
BRANCH   4  16
HETATM   16  C   UNL     1     -43.167 -53.340  12.775  1.00  0.00     0.108 A 
HETATM   17  C   UNL     1     -44.492 -53.728  12.621  1.00  0.00     0.049 A 
HETATM   18  C   UNL     1     -45.021 -54.667  13.504  1.00  0.00     0.005 A 
HETATM   19  C   UNL     1     -44.221 -55.165  14.523  1.00  0.00     0.017 A 
HETATM   20  C   UNL     1     -42.908 -54.729  14.592  1.00  0.00     0.089 A 
HETATM   21  N   UNL     1     -42.355 -53.857  13.721  1.00  0.00    -0.352 N 
ATOM     22  HN  UNL     1     -41.369 -53.601  13.776  1.00  0.00     0.166 HD
ENDBRANCH   4  16
TORSDOF 4
ENDMDL
MODEL 3
REMARK VINA RESULT:      -5.5      2.227      3.345
REMARK  4 active torsions:
REMARK  status: ('A' for Active; 'I' for Inactive)
REMARK    1  A    between atoms: C_2  and  C_3 
REMARK    2  A    between atoms: C_2  and  N_10 
REMARK    3  A    between atoms: C_3  and  N_4 
REMARK       I    between atoms: N_10  and  C_11 
REMARK       I    between atoms: C_11  and  N_13 
REMARK    4  A    between atoms: N_13  and  C_14 
ROOT
HETATM    1  N   UNL     1     -42.489 -48.784  10.981  1.00  0.00    -0.337 N 
HETATM    2  C   UNL     1     -41.565 -49.703  11.444  1.00  0.00     0.322 C 
HETATM    3  O   UNL     1     -40.380 -49.666  11.146  1.00  0.00    -0.247 OA
HETATM    4  N   UNL     1     -42.179 -50.682  12.186  1.00  0.00    -0.295 N 
HETATM    5  H   UNL     1     -43.136 -48.450  11.684  1.00  0.00     0.164 HD
HETATM    6  H   UNL     1     -43.122 -50.897  11.895  1.00  0.00     0.172 HD
ENDROOT
BRANCH   1   7
HETATM    7  C   UNL     1     -42.106 -47.811   9.959  1.00  0.00     0.110 C 
HETATM    8  C   UNL     1     -43.281 -47.561   9.004  1.00  0.00     0.034 C 
BRANCH   7   9
HETATM    9  C   UNL     1     -41.685 -46.456  10.593  1.00  0.00     0.297 C 
BRANCH   9  10
HETATM   10  N   UNL     1     -40.231 -46.246  10.779  1.00  0.00     0.094 N 
HETATM   11  C   UNL     1     -39.891 -46.262  12.229  1.00  0.00     0.298 C 
HETATM   12  C   UNL     1     -40.365 -45.017  13.010  1.00  0.00     0.198 C 
HETATM   13  O   UNL     1     -39.912 -43.799  12.405  1.00  0.00    -0.388 OA
HETATM   14  C   UNL     1     -40.289 -43.728  11.024  1.00  0.00     0.198 C 
HETATM   15  C   UNL     1     -39.754 -44.944  10.249  1.00  0.00     0.298 C 
ENDBRANCH   9  10
ENDBRANCH   7   9
ENDBRANCH   1   7
BRANCH   4  16
HETATM   16  C   UNL     1     -41.505 -51.811  12.660  1.00  0.00     0.108 A 
HETATM   17  C   UNL     1     -42.039 -53.090  12.556  1.00  0.00     0.049 A 
HETATM   18  C   UNL     1     -41.316 -54.161  13.076  1.00  0.00     0.005 A 
HETATM   19  C   UNL     1     -40.102 -53.918  13.705  1.00  0.00     0.017 A 
HETATM   20  C   UNL     1     -39.643 -52.613  13.752  1.00  0.00     0.089 A 
HETATM   21  N   UNL     1     -40.299 -51.562  13.212  1.00  0.00    -0.352 N 
ATOM     22  HN  UNL     1     -39.900 -50.622  13.222  1.00  0.00     0.166 HD
ENDBRANCH   4  16
TORSDOF 4
ENDMDL
MODEL 4
REMARK VINA RESULT:      -5.5      4.499      6.253
REMARK  4 active torsions:
REMARK  status: ('A' for Active; 'I' for Inactive)
REMARK    1  A    between atoms: C_2  and  C_3 
REMARK    2  A    between atoms: C_2  and  N_10 
REMARK    3  A    between atoms: C_3  and  N_4 
REMARK       I    between atoms: N_10  and  C_11 
REMARK       I    between atoms: C_11  and  N_13 
REMARK    4  A    between atoms: N_13  and  C_14 
ROOT
HETATM    1  N   UNL     1     -39.191 -48.348  11.491  1.00  0.00    -0.337 N 
HETATM    2  C   UNL     1     -40.535 -48.267  11.175  1.00  0.00     0.322 C 
HETATM    3  O   UNL     1     -41.338 -49.151  11.439  1.00  0.00    -0.247 OA
HETATM    4  N   UNL     1     -40.801 -47.125  10.459  1.00  0.00    -0.295 N 
HETATM    5  H   UNL     1     -38.800 -47.498  11.877  1.00  0.00     0.164 HD
HETATM    6  H   UNL     1     -40.041 -46.815   9.870  1.00  0.00     0.172 HD
ENDROOT
BRANCH   1   7
HETATM    7  C   UNL     1     -38.635 -49.595  12.015  1.00  0.00     0.110 C 
HETATM    8  C   UNL     1     -37.413 -50.014  11.188  1.00  0.00     0.034 C 
BRANCH   7   9
HETATM    9  C   UNL     1     -38.203 -49.446  13.500  1.00  0.00     0.297 C 
BRANCH   9  10
HETATM   10  N   UNL     1     -38.364 -48.100  14.096  1.00  0.00     0.094 N 
HETATM   11  C   UNL     1     -37.061 -47.613  14.626  1.00  0.00     0.298 C 
HETATM   12  C   UNL     1     -36.585 -48.332  15.908  1.00  0.00     0.198 C 
HETATM   13  O   UNL     1     -37.581 -48.311  16.938  1.00  0.00    -0.388 OA
HETATM   14  C   UNL     1     -38.828 -48.841  16.470  1.00  0.00     0.198 C 
HETATM   15  C   UNL     1     -39.319 -48.071  15.232  1.00  0.00     0.298 C 
ENDBRANCH   9  10
ENDBRANCH   7   9
ENDBRANCH   1   7
BRANCH   4  16
HETATM   16  C   UNL     1     -42.049 -46.858   9.892  1.00  0.00     0.108 A 
HETATM   17  C   UNL     1     -42.704 -45.647  10.079  1.00  0.00     0.049 A 
HETATM   18  C   UNL     1     -43.958 -45.467   9.502  1.00  0.00     0.005 A 
HETATM   19  C   UNL     1     -44.528 -46.509   8.781  1.00  0.00     0.017 A 
HETATM   20  C   UNL     1     -43.798 -47.676   8.637  1.00  0.00     0.089 A 
HETATM   21  N   UNL     1     -42.559 -47.860   9.144  1.00  0.00    -0.352 N 
ATOM     22  HN  UNL     1     -42.033 -48.717   8.970  1.00  0.00     0.166 HD
ENDBRANCH   4  16
TORSDOF 4
ENDMDL
MODEL 5
REMARK VINA RESULT:      -5.4      3.404      6.335
REMARK  4 active torsions:
REMARK  status: ('A' for Active; 'I' for Inactive)
REMARK    1  A    between atoms: C_2  and  C_3 
REMARK    2  A    between atoms: C_2  and  N_10 
REMARK    3  A    between atoms: C_3  and  N_4 
REMARK       I    between atoms: N_10  and  C_11 
REMARK       I    between atoms: C_11  and  N_13 
REMARK    4  A    between atoms: N_13  and  C_14 
ROOT
HETATM    1  N   UNL     1     -39.212 -48.502  11.521  1.00  0.00    -0.337 N 
HETATM    2  C   UNL     1     -40.538 -48.419  11.135  1.00  0.00     0.322 C 
HETATM    3  O   UNL     1     -41.322 -49.352  11.232  1.00  0.00    -0.247 OA
HETATM    4  N   UNL     1     -40.803 -47.200  10.557  1.00  0.00    -0.295 N 
HETATM    5  H   UNL     1     -38.875 -47.699  12.036  1.00  0.00     0.164 HD
HETATM    6  H   UNL     1     -40.022 -46.795  10.061  1.00  0.00     0.172 HD
ENDROOT
BRANCH   1   7
HETATM    7  C   UNL     1     -38.644 -49.790  11.914  1.00  0.00     0.110 C 
HETATM    8  C   UNL     1     -37.329 -50.036  11.162  1.00  0.00     0.034 C 
BRANCH   7   9
HETATM    9  C   UNL     1     -38.360 -49.846  13.441  1.00  0.00     0.297 C 
BRANCH   9  10
HETATM   10  N   UNL     1     -38.465 -51.179  14.077  1.00  0.00     0.094 N 
HETATM   11  C   UNL     1     -39.710 -51.863  13.631  1.00  0.00     0.298 C 
HETATM   12  C   UNL     1     -41.010 -51.269  14.219  1.00  0.00     0.198 C 
HETATM   13  O   UNL     1     -40.967 -51.193  15.649  1.00  0.00    -0.388 OA
HETATM   14  C   UNL     1     -39.811 -50.476  16.100  1.00  0.00     0.198 C 
HETATM   15  C   UNL     1     -38.523 -51.119  15.559  1.00  0.00     0.298 C 
ENDBRANCH   9  10
ENDBRANCH   7   9
ENDBRANCH   1   7
BRANCH   4  16
HETATM   16  C   UNL     1     -42.025 -46.897   9.952  1.00  0.00     0.108 A 
HETATM   17  C   UNL     1     -42.656 -45.673  10.132  1.00  0.00     0.049 A 
HETATM   18  C   UNL     1     -43.887 -45.457   9.516  1.00  0.00     0.005 A 
HETATM   19  C   UNL     1     -44.456 -46.475   8.764  1.00  0.00     0.017 A 
HETATM   20  C   UNL     1     -43.749 -47.658   8.629  1.00  0.00     0.089 A 
HETATM   21  N   UNL     1     -42.533 -47.877   9.175  1.00  0.00    -0.352 N 
ATOM     22  HN  UNL     1     -42.021 -48.745   9.008  1.00  0.00     0.166 HD
ENDBRANCH   4  16
TORSDOF 4
ENDMDL
MODEL 6
REMARK VINA RESULT:      -5.2      1.433      2.144
REMARK  4 active torsions:
REMARK  status: ('A' for Active; 'I' for Inactive)
REMARK    1  A    between atoms: C_2  and  C_3 
REMARK    2  A    between atoms: C_2  and  N_10 
REMARK    3  A    between atoms: C_3  and  N_4 
REMARK       I    between atoms: N_10  and  C_11 
REMARK       I    between atoms: C_11  and  N_13 
REMARK    4  A    between atoms: N_13  and  C_14 
ROOT
HETATM    1  N   UNL     1     -42.420 -50.631  12.066  1.00  0.00    -0.337 N 
HETATM    2  C   UNL     1     -43.246 -51.208  13.013  1.00  0.00     0.322 C 
HETATM    3  O   UNL     1     -43.136 -50.996  14.213  1.00  0.00    -0.247 OA
HETATM    4  N   UNL     1     -44.116 -52.096  12.428  1.00  0.00    -0.295 N 
HETATM    5  H   UNL     1     -42.901 -50.285  11.246  1.00  0.00     0.164 HD
HETATM    6  H   UNL     1     -43.749 -52.562  11.610  1.00  0.00     0.172 HD
ENDROOT
BRANCH   1   7
HETATM    7  C   UNL     1     -41.250 -49.860  12.485  1.00  0.00     0.110 C 
HETATM    8  C   UNL     1     -40.004 -50.347  11.734  1.00  0.00     0.034 C 
BRANCH   7   9
HETATM    9  C   UNL     1     -41.437 -48.344  12.205  1.00  0.00     0.297 C 
BRANCH   9  10
HETATM   10  N   UNL     1     -41.104 -47.886  10.837  1.00  0.00     0.094 N 
HETATM   11  C   UNL     1     -40.552 -46.503  10.878  1.00  0.00     0.298 C 
HETATM   12  C   UNL     1     -41.596 -45.409  11.196  1.00  0.00     0.198 C 
HETATM   13  O   UNL     1     -42.724 -45.470  10.314  1.00  0.00    -0.388 OA
HETATM   14  C   UNL     1     -43.315 -46.775  10.311  1.00  0.00     0.198 C 
HETATM   15  C   UNL     1     -42.278 -47.845   9.929  1.00  0.00     0.298 C 
ENDBRANCH   9  10
ENDBRANCH   7   9
ENDBRANCH   1   7
BRANCH   4  16
HETATM   16  C   UNL     1     -44.968 -52.922  13.166  1.00  0.00     0.108 A 
HETATM   17  C   UNL     1     -46.079 -52.427  13.837  1.00  0.00     0.049 A 
HETATM   18  C   UNL     1     -46.865 -53.311  14.573  1.00  0.00     0.005 A 
HETATM   19  C   UNL     1     -46.502 -54.649  14.636  1.00  0.00     0.017 A 
HETATM   20  C   UNL     1     -45.385 -55.055  13.925  1.00  0.00     0.089 A 
HETATM   21  N   UNL     1     -44.633 -54.229  13.164  1.00  0.00    -0.352 N 
ATOM     22  HN  UNL     1     -43.848 -54.578  12.613  1.00  0.00     0.166 HD
ENDBRANCH   4  16
TORSDOF 4
ENDMDL
MODEL 7
REMARK VINA RESULT:      -5.2      1.851      7.015
REMARK  4 active torsions:
REMARK  status: ('A' for Active; 'I' for Inactive)
REMARK    1  A    between atoms: C_2  and  C_3 
REMARK    2  A    between atoms: C_2  and  N_10 
REMARK    3  A    between atoms: C_3  and  N_4 
REMARK       I    between atoms: N_10  and  C_11 
REMARK       I    between atoms: C_11  and  N_13 
REMARK    4  A    between atoms: N_13  and  C_14 
ROOT
HETATM    1  N   UNL     1     -40.823 -51.811  11.371  1.00  0.00    -0.337 N 
HETATM    2  C   UNL     1     -41.077 -50.485  11.672  1.00  0.00     0.322 C 
HETATM    3  O   UNL     1     -41.468 -50.113  12.769  1.00  0.00    -0.247 OA
HETATM    4  N   UNL     1     -40.919 -49.692  10.561  1.00  0.00    -0.295 N 
HETATM    5  H   UNL     1     -39.970 -51.966  10.849  1.00  0.00     0.164 HD
HETATM    6  H   UNL     1     -41.145 -50.147   9.688  1.00  0.00     0.172 HD
ENDROOT
BRANCH   1   7
HETATM    7  C   UNL     1     -41.182 -52.860  12.323  1.00  0.00     0.110 C 
HETATM    8  C   UNL     1     -40.499 -52.601  13.672  1.00  0.00     0.034 C 
BRANCH   7   9
HETATM    9  C   UNL     1     -42.718 -52.925  12.548  1.00  0.00     0.297 C 
BRANCH   9  10
HETATM   10  N   UNL     1     -43.168 -53.013  13.956  1.00  0.00     0.094 N 
HETATM   11  C   UNL     1     -43.703 -54.374  14.239  1.00  0.00     0.298 C 
HETATM   12  C   UNL     1     -45.070 -54.672  13.583  1.00  0.00     0.198 C 
HETATM   13  O   UNL     1     -46.048 -53.675  13.903  1.00  0.00    -0.388 OA
HETATM   14  C   UNL     1     -45.582 -52.360  13.573  1.00  0.00     0.198 C 
HETATM   15  C   UNL     1     -44.254 -52.056  14.286  1.00  0.00     0.298 C 
ENDBRANCH   9  10
ENDBRANCH   7   9
ENDBRANCH   1   7
BRANCH   4  16
HETATM   16  C   UNL     1     -41.245 -48.333  10.546  1.00  0.00     0.108 A 
HETATM   17  C   UNL     1     -42.470 -47.871  10.080  1.00  0.00     0.049 A 
HETATM   18  C   UNL     1     -42.708 -46.499  10.073  1.00  0.00     0.005 A 
HETATM   19  C   UNL     1     -41.711 -45.635  10.504  1.00  0.00     0.017 A 
HETATM   20  C   UNL     1     -40.526 -46.186  10.963  1.00  0.00     0.089 A 
HETATM   21  N   UNL     1     -40.286 -47.514  11.027  1.00  0.00    -0.352 N 
ATOM     22  HN  UNL     1     -39.419 -47.881  11.421  1.00  0.00     0.166 HD
ENDBRANCH   4  16
TORSDOF 4
ENDMDL
MODEL 8
REMARK VINA RESULT:      -5.2      2.444      7.157
REMARK  4 active torsions:
REMARK  status: ('A' for Active; 'I' for Inactive)
REMARK    1  A    between atoms: C_2  and  C_3 
REMARK    2  A    between atoms: C_2  and  N_10 
REMARK    3  A    between atoms: C_3  and  N_4 
REMARK       I    between atoms: N_10  and  C_11 
REMARK       I    between atoms: C_11  and  N_13 
REMARK    4  A    between atoms: N_13  and  C_14 
ROOT
HETATM    1  N   UNL     1     -42.166 -51.578  12.027  1.00  0.00    -0.337 N 
HETATM    2  C   UNL     1     -41.959 -50.219  12.173  1.00  0.00     0.322 C 
HETATM    3  O   UNL     1     -42.193 -49.615  13.210  1.00  0.00    -0.247 OA
HETATM    4  N   UNL     1     -41.556 -49.655  10.986  1.00  0.00    -0.295 N 
HETATM    5  H   UNL     1     -41.418 -52.067  11.551  1.00  0.00     0.164 HD
HETATM    6  H   UNL     1     -41.929 -50.106  10.163  1.00  0.00     0.172 HD
ENDROOT
BRANCH   1   7
HETATM    7  C   UNL     1     -42.846 -52.333  13.078  1.00  0.00     0.110 C 
HETATM    8  C   UNL     1     -43.836 -53.326  12.456  1.00  0.00     0.034 C 
BRANCH   7   9
HETATM    9  C   UNL     1     -41.836 -53.124  13.956  1.00  0.00     0.297 C 
BRANCH   9  10
HETATM   10  N   UNL     1     -40.407 -52.981  13.596  1.00  0.00     0.094 N 
HETATM   11  C   UNL     1     -39.716 -54.296  13.703  1.00  0.00     0.298 C 
HETATM   12  C   UNL     1     -39.500 -54.787  15.152  1.00  0.00     0.198 C 
HETATM   13  O   UNL     1     -38.834 -53.807  15.958  1.00  0.00    -0.388 OA
HETATM   14  C   UNL     1     -39.521 -52.549  15.926  1.00  0.00     0.198 C 
HETATM   15  C   UNL     1     -39.670 -52.044  14.481  1.00  0.00     0.298 C 
ENDBRANCH   9  10
ENDBRANCH   7   9
ENDBRANCH   1   7
BRANCH   4  16
HETATM   16  C   UNL     1     -41.409 -48.277  10.812  1.00  0.00     0.108 A 
HETATM   17  C   UNL     1     -42.404 -47.493  10.241  1.00  0.00     0.049 A 
HETATM   18  C   UNL     1     -42.170 -46.130  10.076  1.00  0.00     0.005 A 
HETATM   19  C   UNL     1     -40.946 -45.601  10.462  1.00  0.00     0.017 A 
HETATM   20  C   UNL     1     -40.019 -46.455  11.033  1.00  0.00     0.089 A 
HETATM   21  N   UNL     1     -40.236 -47.771  11.249  1.00  0.00    -0.352 N 
ATOM     22  HN  UNL     1     -39.546 -48.356  11.721  1.00  0.00     0.166 HD
ENDBRANCH   4  16
TORSDOF 4
ENDMDL
MODEL 9
REMARK VINA RESULT:      -5.2      4.032      5.973
REMARK  4 active torsions:
REMARK  status: ('A' for Active; 'I' for Inactive)
REMARK    1  A    between atoms: C_2  and  C_3 
REMARK    2  A    between atoms: C_2  and  N_10 
REMARK    3  A    between atoms: C_3  and  N_4 
REMARK       I    between atoms: N_10  and  C_11 
REMARK       I    between atoms: C_11  and  N_13 
REMARK    4  A    between atoms: N_13  and  C_14 
ROOT
HETATM    1  N   UNL     1     -41.169 -46.968  12.536  1.00  0.00    -0.337 N 
HETATM    2  C   UNL     1     -41.710 -47.600  11.432  1.00  0.00     0.322 C 
HETATM    3  O   UNL     1     -41.128 -48.482  10.815  1.00  0.00    -0.247 OA
HETATM    4  N   UNL     1     -42.917 -47.040  11.089  1.00  0.00    -0.295 N 
HETATM    5  H   UNL     1     -41.816 -46.838  13.302  1.00  0.00     0.164 HD
HETATM    6  H   UNL     1     -42.991 -46.053  11.293  1.00  0.00     0.172 HD
ENDROOT
BRANCH   1   7
HETATM    7  C   UNL     1     -39.780 -47.217  12.916  1.00  0.00     0.110 C 
HETATM    8  C   UNL     1     -39.161 -45.946  13.512  1.00  0.00     0.034 C 
BRANCH   7   9
HETATM    9  C   UNL     1     -39.673 -48.360  13.963  1.00  0.00     0.297 C 
BRANCH   9  10
HETATM   10  N   UNL     1     -38.358 -49.034  14.062  1.00  0.00     0.094 N 
HETATM   11  C   UNL     1     -37.864 -49.398  12.705  1.00  0.00     0.298 C 
HETATM   12  C   UNL     1     -38.626 -50.565  12.041  1.00  0.00     0.198 C 
HETATM   13  O   UNL     1     -38.674 -51.725  12.882  1.00  0.00    -0.388 OA
HETATM   14  C   UNL     1     -39.212 -51.413  14.173  1.00  0.00     0.198 C 
HETATM   15  C   UNL     1     -38.401 -50.293  14.847  1.00  0.00     0.298 C 
ENDBRANCH   9  10
ENDBRANCH   7   9
ENDBRANCH   1   7
BRANCH   4  16
HETATM   16  C   UNL     1     -43.616 -47.392   9.932  1.00  0.00     0.108 A 
HETATM   17  C   UNL     1     -44.993 -47.583   9.928  1.00  0.00     0.049 A 
HETATM   18  C   UNL     1     -45.613 -47.959   8.739  1.00  0.00     0.005 A 
HETATM   19  C   UNL     1     -44.839 -48.158   7.604  1.00  0.00     0.017 A 
HETATM   20  C   UNL     1     -43.476 -47.933   7.698  1.00  0.00     0.089 A 
HETATM   21  N   UNL     1     -42.854 -47.521   8.825  1.00  0.00    -0.352 N 
ATOM     22  HN  UNL     1     -41.855 -47.315   8.838  1.00  0.00     0.166 HD
ENDBRANCH   4  16
TORSDOF 4
ENDMDL
