MODEL 1
REMARK VINA RESULT:      -6.5      0.000      0.000
REMARK  6 active torsions:
REMARK  status: ('A' for Active; 'I' for Inactive)
REMARK    1  A    between atoms: C_2  and  O_3 
REMARK    2  A    between atoms: C_2  and  C_11 
REMARK    3  A    between atoms: O_3  and  C_4 
REMARK       I    between atoms: C_11  and  N_13 
REMARK    4  A    between atoms: N_13  and  C_14 
REMARK    5  A    between atoms: C_14  and  C_15 
REMARK    6  A    between atoms: C_15  and  C_16 
ROOT
HETATM    1  C   UNL     1     -40.473 -52.065  12.437  1.00  0.00     0.246 C 
HETATM    2  O   UNL     1     -39.405 -52.015  13.045  1.00  0.00    -0.271 OA
HETATM    3  N   UNL     1     -40.867 -51.081  11.548  1.00  0.00    -0.359 N 
HETATM    4  H   UNL     1     -41.866 -51.009  11.384  1.00  0.00     0.162 HD
ENDROOT
BRANCH   1   5
HETATM    5  C   UNL     1     -41.430 -53.270  12.492  1.00  0.00     0.209 C 
HETATM    6  C   UNL     1     -41.323 -53.930  13.866  1.00  0.00     0.050 C 
BRANCH   5   7
HETATM    7  O   UNL     1     -42.756 -52.857  12.138  1.00  0.00    -0.372 OA
BRANCH   7   8
HETATM    8  C   UNL     1     -43.705 -52.789  13.219  1.00  0.00     0.122 C 
HETATM    9  C   UNL     1     -44.911 -53.703  12.959  1.00  0.00     0.032 C 
HETATM   10  C   UNL     1     -45.725 -53.961  14.220  1.00  0.00     0.002 C 
HETATM   11  C   UNL     1     -46.830 -52.949  14.487  1.00  0.00     0.000 C 
HETATM   12  C   UNL     1     -46.519 -51.488  14.177  1.00  0.00     0.000 C 
HETATM   13  C   UNL     1     -45.100 -51.037  14.512  1.00  0.00     0.002 C 
HETATM   14  C   UNL     1     -44.098 -51.314  13.387  1.00  0.00     0.032 C 
ENDBRANCH   7   8
ENDBRANCH   5   7
ENDBRANCH   1   5
BRANCH   3  15
HETATM   15  C   UNL     1     -40.019 -49.930  11.297  1.00  0.00     0.127 C 
BRANCH  15  16
HETATM   16  C   UNL     1     -40.479 -48.688  12.077  1.00  0.00     0.059 C 
BRANCH  16  17
HETATM   17  C   UNL     1     -41.482 -47.876  11.310  1.00  0.00    -0.041 A 
HETATM   18  C   UNL     1     -42.833 -48.219  11.298  1.00  0.00     0.010 A 
HETATM   19  C   UNL     1     -43.730 -47.463  10.548  1.00  0.00     0.025 A 
HETATM   20  C   UNL     1     -43.249 -46.378   9.824  1.00  0.00     0.005 A 
HETATM   21  C   UNL     1     -44.165 -45.556   8.968  1.00  0.00     0.068 C 
HETATM   22  N   UNL     1     -41.942 -46.022   9.824  1.00  0.00    -0.369 N 
HETATM   23  C   UNL     1     -41.095 -46.771  10.564  1.00  0.00     0.095 A 
ATOM     24  HN  UNL     1     -41.611 -45.221   9.288  1.00  0.00     0.165 HD
ENDBRANCH  16  17
ENDBRANCH  15  16
ENDBRANCH   3  15
TORSDOF 6
ENDMDL
MODEL 2
REMARK VINA RESULT:      -6.3      1.403      1.742
REMARK  6 active torsions:
REMARK  status: ('A' for Active; 'I' for Inactive)
REMARK    1  A    between atoms: C_2  and  O_3 
REMARK    2  A    between atoms: C_2  and  C_11 
REMARK    3  A    between atoms: O_3  and  C_4 
REMARK       I    between atoms: C_11  and  N_13 
REMARK    4  A    between atoms: N_13  and  C_14 
REMARK    5  A    between atoms: C_14  and  C_15 
REMARK    6  A    between atoms: C_15  and  C_16 
ROOT
HETATM    1  C   UNL     1     -40.866 -53.013  12.840  1.00  0.00     0.246 C 
HETATM    2  O   UNL     1     -40.696 -52.728  11.655  1.00  0.00    -0.271 OA
HETATM    3  N   UNL     1     -40.385 -52.223  13.869  1.00  0.00    -0.359 N 
HETATM    4  H   UNL     1     -40.247 -52.693  14.758  1.00  0.00     0.162 HD
ENDROOT
BRANCH   1   5
HETATM    5  C   UNL     1     -41.727 -54.197  13.317  1.00  0.00     0.209 C 
HETATM    6  C   UNL     1     -41.587 -54.337  14.832  1.00  0.00     0.050 C 
BRANCH   5   7
HETATM    7  O   UNL     1     -43.077 -54.034  12.861  1.00  0.00    -0.372 OA
BRANCH   7   8
HETATM    8  C   UNL     1     -43.979 -53.393  13.782  1.00  0.00     0.122 C 
HETATM    9  C   UNL     1     -45.312 -54.151  13.874  1.00  0.00     0.032 C 
HETATM   10  C   UNL     1     -46.124 -53.749  15.098  1.00  0.00     0.002 C 
HETATM   11  C   UNL     1     -47.064 -52.571  14.884  1.00  0.00     0.000 C 
HETATM   12  C   UNL     1     -46.550 -51.428  14.014  1.00  0.00     0.000 C 
HETATM   13  C   UNL     1     -45.073 -51.086  14.189  1.00  0.00     0.002 C 
HETATM   14  C   UNL     1     -44.149 -51.940  13.316  1.00  0.00     0.032 C 
ENDBRANCH   7   8
ENDBRANCH   5   7
ENDBRANCH   1   5
BRANCH   3  15
HETATM   15  C   UNL     1     -39.649 -51.006  13.583  1.00  0.00     0.127 C 
BRANCH  15  16
HETATM   16  C   UNL     1     -40.443 -49.745  13.960  1.00  0.00     0.059 C 
BRANCH  16  17
HETATM   17  C   UNL     1     -41.154 -49.149  12.780  1.00  0.00    -0.041 A 
HETATM   18  C   UNL     1     -42.380 -48.500  12.926  1.00  0.00     0.010 A 
HETATM   19  C   UNL     1     -43.028 -47.989  11.805  1.00  0.00     0.025 A 
HETATM   20  C   UNL     1     -42.432 -48.143  10.559  1.00  0.00     0.005 A 
HETATM   21  C   UNL     1     -43.106 -47.647   9.315  1.00  0.00     0.068 C 
HETATM   22  N   UNL     1     -41.240 -48.765  10.392  1.00  0.00    -0.369 N 
HETATM   23  C   UNL     1     -40.631 -49.247  11.498  1.00  0.00     0.095 A 
ATOM     24  HN  UNL     1     -40.818 -48.864   9.469  1.00  0.00     0.165 HD
ENDBRANCH  16  17
ENDBRANCH  15  16
ENDBRANCH   3  15
TORSDOF 6
ENDMDL
MODEL 3
REMARK VINA RESULT:      -6.0      2.573      4.070
REMARK  6 active torsions:
REMARK  status: ('A' for Active; 'I' for Inactive)
REMARK    1  A    between atoms: C_2  and  O_3 
REMARK    2  A    between atoms: C_2  and  C_11 
REMARK    3  A    between atoms: O_3  and  C_4 
REMARK       I    between atoms: C_11  and  N_13 
REMARK    4  A    between atoms: N_13  and  C_14 
REMARK    5  A    between atoms: C_14  and  C_15 
REMARK    6  A    between atoms: C_15  and  C_16 
ROOT
HETATM    1  C   UNL     1     -39.419 -48.289  12.134  1.00  0.00     0.246 C 
HETATM    2  O   UNL     1     -39.285 -47.661  13.182  1.00  0.00    -0.271 OA
HETATM    3  N   UNL     1     -39.864 -47.696  10.966  1.00  0.00    -0.359 N 
HETATM    4  H   UNL     1     -40.283 -48.322  10.285  1.00  0.00     0.162 HD
ENDROOT
BRANCH   1   5
HETATM    5  C   UNL     1     -38.996 -49.759  11.960  1.00  0.00     0.209 C 
HETATM    6  C   UNL     1     -37.540 -49.809  11.499  1.00  0.00     0.050 C 
BRANCH   5   7
HETATM    7  O   UNL     1     -39.257 -50.489  13.167  1.00  0.00    -0.372 OA
BRANCH   7   8
HETATM    8  C   UNL     1     -39.879 -51.777  13.003  1.00  0.00     0.122 C 
HETATM    9  C   UNL     1     -41.402 -51.684  13.172  1.00  0.00     0.032 C 
HETATM   10  C   UNL     1     -42.121 -52.912  12.628  1.00  0.00     0.002 C 
HETATM   11  C   UNL     1     -42.302 -54.044  13.629  1.00  0.00     0.000 C 
HETATM   12  C   UNL     1     -41.143 -54.313  14.584  1.00  0.00     0.000 C 
HETATM   13  C   UNL     1     -39.749 -54.168  13.978  1.00  0.00     0.002 C 
HETATM   14  C   UNL     1     -39.223 -52.730  14.012  1.00  0.00     0.032 C 
ENDBRANCH   7   8
ENDBRANCH   5   7
ENDBRANCH   1   5
BRANCH   3  15
HETATM   15  C   UNL     1     -40.197 -46.284  10.935  1.00  0.00     0.127 C 
BRANCH  15  16
HETATM   16  C   UNL     1     -41.549 -45.991  11.604  1.00  0.00     0.059 C 
BRANCH  16  17
HETATM   17  C   UNL     1     -42.706 -46.488  10.787  1.00  0.00    -0.041 A 
HETATM   18  C   UNL     1     -43.166 -45.778   9.678  1.00  0.00     0.010 A 
HETATM   19  C   UNL     1     -44.263 -46.251   8.962  1.00  0.00     0.025 A 
HETATM   20  C   UNL     1     -44.876 -47.427   9.378  1.00  0.00     0.005 A 
HETATM   21  C   UNL     1     -46.085 -47.958   8.667  1.00  0.00     0.068 C 
HETATM   22  N   UNL     1     -44.445 -48.136  10.448  1.00  0.00    -0.369 N 
HETATM   23  C   UNL     1     -43.376 -47.656  11.121  1.00  0.00     0.095 A 
ATOM     24  HN  UNL     1     -44.908 -48.999  10.734  1.00  0.00     0.165 HD
ENDBRANCH  16  17
ENDBRANCH  15  16
ENDBRANCH   3  15
TORSDOF 6
ENDMDL
MODEL 4
REMARK VINA RESULT:      -6.0      1.457      2.257
REMARK  6 active torsions:
REMARK  status: ('A' for Active; 'I' for Inactive)
REMARK    1  A    between atoms: C_2  and  O_3 
REMARK    2  A    between atoms: C_2  and  C_11 
REMARK    3  A    between atoms: O_3  and  C_4 
REMARK       I    between atoms: C_11  and  N_13 
REMARK    4  A    between atoms: N_13  and  C_14 
REMARK    5  A    between atoms: C_14  and  C_15 
REMARK    6  A    between atoms: C_15  and  C_16 
ROOT
HETATM    1  C   UNL     1     -40.559 -51.989  12.318  1.00  0.00     0.246 C 
HETATM    2  O   UNL     1     -39.418 -51.924  12.772  1.00  0.00    -0.271 OA
HETATM    3  N   UNL     1     -41.081 -51.017  11.483  1.00  0.00    -0.359 N 
HETATM    4  H   UNL     1     -42.094 -50.955  11.458  1.00  0.00     0.162 HD
ENDROOT
BRANCH   1   5
HETATM    5  C   UNL     1     -41.488 -53.200  12.516  1.00  0.00     0.209 C 
HETATM    6  C   UNL     1     -41.315 -53.735  13.937  1.00  0.00     0.050 C 
BRANCH   5   7
HETATM    7  O   UNL     1     -42.835 -52.843  12.179  1.00  0.00    -0.372 OA
BRANCH   7   8
HETATM    8  C   UNL     1     -43.768 -52.803  13.275  1.00  0.00     0.122 C 
HETATM    9  C   UNL     1     -44.933 -53.779  13.050  1.00  0.00     0.032 C 
HETATM   10  C   UNL     1     -45.713 -54.055  14.328  1.00  0.00     0.002 C 
HETATM   11  C   UNL     1     -46.862 -53.094  14.598  1.00  0.00     0.000 C 
HETATM   12  C   UNL     1     -46.626 -51.625  14.260  1.00  0.00     0.000 C 
HETATM   13  C   UNL     1     -45.226 -51.100  14.564  1.00  0.00     0.002 C 
HETATM   14  C   UNL     1     -44.230 -51.347  13.426  1.00  0.00     0.032 C 
ENDBRANCH   7   8
ENDBRANCH   5   7
ENDBRANCH   1   5
BRANCH   3  15
HETATM   15  C   UNL     1     -40.287 -49.862  11.107  1.00  0.00     0.127 C 
BRANCH  15  16
HETATM   16  C   UNL     1     -41.159 -48.639  10.779  1.00  0.00     0.059 C 
BRANCH  16  17
HETATM   17  C   UNL     1     -40.603 -47.373  11.363  1.00  0.00    -0.041 A 
HETATM   18  C   UNL     1     -39.957 -47.370  12.599  1.00  0.00     0.010 A 
HETATM   19  C   UNL     1     -39.483 -46.172  13.127  1.00  0.00     0.025 A 
HETATM   20  C   UNL     1     -39.672 -45.000  12.403  1.00  0.00     0.005 A 
HETATM   21  C   UNL     1     -39.218 -43.679  12.944  1.00  0.00     0.068 C 
HETATM   22  N   UNL     1     -40.292 -44.979  11.199  1.00  0.00    -0.369 N 
HETATM   23  C   UNL     1     -40.738 -46.157  10.709  1.00  0.00     0.095 A 
ATOM     24  HN  UNL     1     -40.418 -44.109  10.682  1.00  0.00     0.165 HD
ENDBRANCH  16  17
ENDBRANCH  15  16
ENDBRANCH   3  15
TORSDOF 6
ENDMDL
MODEL 5
REMARK VINA RESULT:      -6.0      2.000      2.867
REMARK  6 active torsions:
REMARK  status: ('A' for Active; 'I' for Inactive)
REMARK    1  A    between atoms: C_2  and  O_3 
REMARK    2  A    between atoms: C_2  and  C_11 
REMARK    3  A    between atoms: O_3  and  C_4 
REMARK       I    between atoms: C_11  and  N_13 
REMARK    4  A    between atoms: N_13  and  C_14 
REMARK    5  A    between atoms: C_14  and  C_15 
REMARK    6  A    between atoms: C_15  and  C_16 
ROOT
HETATM    1  C   UNL     1     -38.507 -49.737  12.897  1.00  0.00     0.246 C 
HETATM    2  O   UNL     1     -38.118 -49.271  11.828  1.00  0.00    -0.271 OA
HETATM    3  N   UNL     1     -39.150 -48.969  13.851  1.00  0.00    -0.359 N 
HETATM    4  H   UNL     1     -39.104 -49.319  14.803  1.00  0.00     0.162 HD
ENDROOT
BRANCH   1   5
HETATM    5  C   UNL     1     -38.442 -51.235  13.247  1.00  0.00     0.209 C 
HETATM    6  C   UNL     1     -38.635 -51.404  14.754  1.00  0.00     0.050 C 
BRANCH   5   7
HETATM    7  O   UNL     1     -39.381 -51.966  12.447  1.00  0.00    -0.372 OA
BRANCH   7   8
HETATM    8  C   UNL     1     -40.633 -52.288  13.081  1.00  0.00     0.122 C 
HETATM    9  C   UNL     1     -40.940 -53.789  12.975  1.00  0.00     0.032 C 
HETATM   10  C   UNL     1     -42.026 -54.228  13.949  1.00  0.00     0.002 C 
HETATM   11  C   UNL     1     -43.447 -54.126  13.413  1.00  0.00     0.000 C 
HETATM   12  C   UNL     1     -43.772 -52.912  12.547  1.00  0.00     0.000 C 
HETATM   13  C   UNL     1     -43.125 -51.602  12.988  1.00  0.00     0.002 C 
HETATM   14  C   UNL     1     -41.711 -51.410  12.429  1.00  0.00     0.032 C 
ENDBRANCH   7   8
ENDBRANCH   5   7
ENDBRANCH   1   5
BRANCH   3  15
HETATM   15  C   UNL     1     -39.392 -47.557  13.622  1.00  0.00     0.127 C 
BRANCH  15  16
HETATM   16  C   UNL     1     -40.884 -47.200  13.723  1.00  0.00     0.059 C 
BRANCH  16  17
HETATM   17  C   UNL     1     -41.581 -47.299  12.397  1.00  0.00    -0.041 A 
HETATM   18  C   UNL     1     -42.934 -47.627  12.315  1.00  0.00     0.010 A 
HETATM   19  C   UNL     1     -43.541 -47.743  11.067  1.00  0.00     0.025 A 
HETATM   20  C   UNL     1     -42.773 -47.530   9.927  1.00  0.00     0.005 A 
HETATM   21  C   UNL     1     -43.367 -47.683   8.559  1.00  0.00     0.068 C 
HETATM   22  N   UNL     1     -41.459 -47.206   9.982  1.00  0.00    -0.369 N 
HETATM   23  C   UNL     1     -40.898 -47.096  11.206  1.00  0.00     0.095 A 
ATOM     24  HN  UNL     1     -40.915 -47.051   9.134  1.00  0.00     0.165 HD
ENDBRANCH  16  17
ENDBRANCH  15  16
ENDBRANCH   3  15
TORSDOF 6
ENDMDL
MODEL 6
REMARK VINA RESULT:      -5.9      2.429      3.037
REMARK  6 active torsions:
REMARK  status: ('A' for Active; 'I' for Inactive)
REMARK    1  A    between atoms: C_2  and  O_3 
REMARK    2  A    between atoms: C_2  and  C_11 
REMARK    3  A    between atoms: O_3  and  C_4 
REMARK       I    between atoms: C_11  and  N_13 
REMARK    4  A    between atoms: N_13  and  C_14 
REMARK    5  A    between atoms: C_14  and  C_15 
REMARK    6  A    between atoms: C_15  and  C_16 
ROOT
HETATM    1  C   UNL     1     -42.242 -49.254  12.431  1.00  0.00     0.246 C 
HETATM    2  O   UNL     1     -42.125 -48.417  13.324  1.00  0.00    -0.271 OA
HETATM    3  N   UNL     1     -42.190 -48.920  11.090  1.00  0.00    -0.359 N 
HETATM    4  H   UNL     1     -42.645 -49.569  10.455  1.00  0.00     0.162 HD
ENDROOT
BRANCH   1   5
HETATM    5  C   UNL     1     -42.333 -50.770  12.689  1.00  0.00     0.209 C 
HETATM    6  C   UNL     1     -41.785 -51.073  14.082  1.00  0.00     0.050 C 
BRANCH   5   7
HETATM    7  O   UNL     1     -43.677 -51.222  12.473  1.00  0.00    -0.372 OA
BRANCH   7   8
HETATM    8  C   UNL     1     -44.231 -52.064  13.501  1.00  0.00     0.122 C 
HETATM    9  C   UNL     1     -44.542 -53.468  12.962  1.00  0.00     0.032 C 
HETATM   10  C   UNL     1     -44.751 -54.484  14.078  1.00  0.00     0.002 C 
HETATM   11  C   UNL     1     -46.183 -54.600  14.578  1.00  0.00     0.000 C 
HETATM   12  C   UNL     1     -46.983 -53.306  14.690  1.00  0.00     0.000 C 
HETATM   13  C   UNL     1     -46.198 -52.092  15.180  1.00  0.00     0.002 C 
HETATM   14  C   UNL     1     -45.472 -51.349  14.054  1.00  0.00     0.032 C 
ENDBRANCH   7   8
ENDBRANCH   5   7
ENDBRANCH   1   5
BRANCH   3  15
HETATM   15  C   UNL     1     -41.993 -47.542  10.679  1.00  0.00     0.127 C 
BRANCH  15  16
HETATM   16  C   UNL     1     -43.324 -46.805  10.460  1.00  0.00     0.059 C 
BRANCH  16  17
HETATM   17  C   UNL     1     -44.156 -47.445   9.388  1.00  0.00    -0.041 A 
HETATM   18  C   UNL     1     -45.514 -47.697   9.581  1.00  0.00     0.010 A 
HETATM   19  C   UNL     1     -46.249 -48.323   8.577  1.00  0.00     0.025 A 
HETATM   20  C   UNL     1     -45.603 -48.685   7.401  1.00  0.00     0.005 A 
HETATM   21  C   UNL     1     -46.338 -49.397   6.306  1.00  0.00     0.068 C 
HETATM   22  N   UNL     1     -44.287 -48.445   7.189  1.00  0.00    -0.369 N 
HETATM   23  C   UNL     1     -43.599 -47.833   8.178  1.00  0.00     0.095 A 
ATOM     24  HN  UNL     1     -43.832 -48.716   6.316  1.00  0.00     0.165 HD
ENDBRANCH  16  17
ENDBRANCH  15  16
ENDBRANCH   3  15
TORSDOF 6
ENDMDL
MODEL 7
REMARK VINA RESULT:      -5.7      3.341      7.151
REMARK  6 active torsions:
REMARK  status: ('A' for Active; 'I' for Inactive)
REMARK    1  A    between atoms: C_2  and  O_3 
REMARK    2  A    between atoms: C_2  and  C_11 
REMARK    3  A    between atoms: O_3  and  C_4 
REMARK       I    between atoms: C_11  and  N_13 
REMARK    4  A    between atoms: N_13  and  C_14 
REMARK    5  A    between atoms: C_14  and  C_15 
REMARK    6  A    between atoms: C_15  and  C_16 
ROOT
HETATM    1  C   UNL     1     -41.347 -53.377  12.818  1.00  0.00     0.246 C 
HETATM    2  O   UNL     1     -40.687 -54.173  13.484  1.00  0.00    -0.271 OA
HETATM    3  N   UNL     1     -42.729 -53.418  12.769  1.00  0.00    -0.359 N 
HETATM    4  H   UNL     1     -43.154 -52.994  11.950  1.00  0.00     0.162 HD
ENDROOT
BRANCH   1   5
HETATM    5  C   UNL     1     -40.735 -52.180  12.069  1.00  0.00     0.209 C 
HETATM    6  C   UNL     1     -41.632 -50.958  12.263  1.00  0.00     0.050 C 
BRANCH   5   7
HETATM    7  O   UNL     1     -39.376 -51.985  12.486  1.00  0.00    -0.372 OA
BRANCH   7   8
HETATM    8  C   UNL     1     -39.142 -50.878  13.376  1.00  0.00     0.122 C 
HETATM    9  C   UNL     1     -38.133 -49.887  12.778  1.00  0.00     0.032 C 
HETATM   10  C   UNL     1     -38.155 -48.539  13.486  1.00  0.00     0.002 C 
HETATM   11  C   UNL     1     -37.220 -48.428  14.681  1.00  0.00     0.000 C 
HETATM   12  C   UNL     1     -37.098 -49.655  15.578  1.00  0.00     0.000 C 
HETATM   13  C   UNL     1     -38.393 -50.428  15.810  1.00  0.00     0.002 C 
HETATM   14  C   UNL     1     -38.681 -51.464  14.718  1.00  0.00     0.032 C 
ENDBRANCH   7   8
ENDBRANCH   5   7
ENDBRANCH   1   5
BRANCH   3  15
HETATM   15  C   UNL     1     -43.465 -54.421  13.515  1.00  0.00     0.127 C 
BRANCH  15  16
HETATM   16  C   UNL     1     -44.971 -54.385  13.207  1.00  0.00     0.059 C 
BRANCH  16  17
HETATM   17  C   UNL     1     -45.720 -53.483  14.145  1.00  0.00    -0.041 A 
HETATM   18  C   UNL     1     -46.206 -52.245  13.724  1.00  0.00     0.010 A 
HETATM   19  C   UNL     1     -46.868 -51.420  14.629  1.00  0.00     0.025 A 
HETATM   20  C   UNL     1     -47.023 -51.854  15.941  1.00  0.00     0.005 A 
HETATM   21  C   UNL     1     -47.691 -50.987  16.965  1.00  0.00     0.068 C 
HETATM   22  N   UNL     1     -46.564 -53.053  16.372  1.00  0.00    -0.369 N 
HETATM   23  C   UNL     1     -45.930 -53.836  15.471  1.00  0.00     0.095 A 
ATOM     24  HN  UNL     1     -46.691 -53.354  17.338  1.00  0.00     0.165 HD
ENDBRANCH  16  17
ENDBRANCH  15  16
ENDBRANCH   3  15
TORSDOF 6
ENDMDL
MODEL 8
REMARK VINA RESULT:      -5.6      1.642      2.386
REMARK  6 active torsions:
REMARK  status: ('A' for Active; 'I' for Inactive)
REMARK    1  A    between atoms: C_2  and  O_3 
REMARK    2  A    between atoms: C_2  and  C_11 
REMARK    3  A    between atoms: O_3  and  C_4 
REMARK       I    between atoms: C_11  and  N_13 
REMARK    4  A    between atoms: N_13  and  C_14 
REMARK    5  A    between atoms: C_14  and  C_15 
REMARK    6  A    between atoms: C_15  and  C_16 
ROOT
HETATM    1  C   UNL     1     -39.859 -53.073  14.442  1.00  0.00     0.246 C 
HETATM    2  O   UNL     1     -39.228 -53.113  15.497  1.00  0.00    -0.271 OA
HETATM    3  N   UNL     1     -39.607 -52.129  13.463  1.00  0.00    -0.359 N 
HETATM    4  H   UNL     1     -40.375 -51.938  12.826  1.00  0.00     0.162 HD
ENDROOT
BRANCH   1   5
HETATM    5  C   UNL     1     -40.903 -54.128  14.033  1.00  0.00     0.209 C 
HETATM    6  C   UNL     1     -41.569 -54.686  15.290  1.00  0.00     0.050 C 
BRANCH   5   7
HETATM    7  O   UNL     1     -41.817 -53.567  13.081  1.00  0.00    -0.372 OA
BRANCH   7   8
HETATM    8  C   UNL     1     -43.116 -53.209  13.591  1.00  0.00     0.122 C 
HETATM    9  C   UNL     1     -44.234 -53.910  12.805  1.00  0.00     0.032 C 
HETATM   10  C   UNL     1     -45.568 -53.875  13.540  1.00  0.00     0.002 C 
HETATM   11  C   UNL     1     -46.429 -52.656  13.247  1.00  0.00     0.000 C 
HETATM   12  C   UNL     1     -45.708 -51.319  13.102  1.00  0.00     0.000 C 
HETATM   13  C   UNL     1     -44.539 -51.101  14.058  1.00  0.00     0.002 C 
HETATM   14  C   UNL     1     -43.218 -51.678  13.538  1.00  0.00     0.032 C 
ENDBRANCH   7   8
ENDBRANCH   5   7
ENDBRANCH   1   5
BRANCH   3  15
HETATM   15  C   UNL     1     -38.570 -51.131  13.648  1.00  0.00     0.127 C 
BRANCH  15  16
HETATM   16  C   UNL     1     -38.153 -50.474  12.322  1.00  0.00     0.059 C 
BRANCH  16  17
HETATM   17  C   UNL     1     -39.170 -49.483  11.836  1.00  0.00    -0.041 A 
HETATM   18  C   UNL     1     -39.154 -48.158  12.273  1.00  0.00     0.010 A 
HETATM   19  C   UNL     1     -40.133 -47.273  11.828  1.00  0.00     0.025 A 
HETATM   20  C   UNL     1     -41.109 -47.740  10.955  1.00  0.00     0.005 A 
HETATM   21  C   UNL     1     -42.209 -46.840  10.478  1.00  0.00     0.068 C 
HETATM   22  N   UNL     1     -41.142 -49.019  10.513  1.00  0.00    -0.369 N 
HETATM   23  C   UNL     1     -40.178 -49.855  10.958  1.00  0.00     0.095 A 
ATOM     24  HN  UNL     1     -41.866 -49.340   9.870  1.00  0.00     0.165 HD
ENDBRANCH  16  17
ENDBRANCH  15  16
ENDBRANCH   3  15
TORSDOF 6
ENDMDL
MODEL 9
REMARK VINA RESULT:      -5.6      2.248      6.885
REMARK  6 active torsions:
REMARK  status: ('A' for Active; 'I' for Inactive)
REMARK    1  A    between atoms: C_2  and  O_3 
REMARK    2  A    between atoms: C_2  and  C_11 
REMARK    3  A    between atoms: O_3  and  C_4 
REMARK       I    between atoms: C_11  and  N_13 
REMARK    4  A    between atoms: N_13  and  C_14 
REMARK    5  A    between atoms: C_14  and  C_15 
REMARK    6  A    between atoms: C_15  and  C_16 
ROOT
HETATM    1  C   UNL     1     -40.107 -50.827  11.713  1.00  0.00     0.246 C 
HETATM    2  O   UNL     1     -39.035 -51.067  12.264  1.00  0.00    -0.271 OA
HETATM    3  N   UNL     1     -41.081 -51.794  11.532  1.00  0.00    -0.359 N 
HETATM    4  H   UNL     1     -41.740 -51.620  10.779  1.00  0.00     0.162 HD
ENDROOT
BRANCH   1   5
HETATM    5  C   UNL     1     -40.545 -49.417  11.276  1.00  0.00     0.209 C 
HETATM    6  C   UNL     1     -41.936 -49.129  11.841  1.00  0.00     0.050 C 
BRANCH   5   7
HETATM    7  O   UNL     1     -39.547 -48.458  11.650  1.00  0.00    -0.372 OA
BRANCH   7   8
HETATM    8  C   UNL     1     -40.033 -47.155  12.022  1.00  0.00     0.122 C 
HETATM    9  C   UNL     1     -39.888 -46.156  10.864  1.00  0.00     0.032 C 
HETATM   10  C   UNL     1     -40.730 -44.904  11.070  1.00  0.00     0.002 C 
HETATM   11  C   UNL     1     -40.036 -43.783  11.830  1.00  0.00     0.000 C 
HETATM   12  C   UNL     1     -39.143 -44.191  12.998  1.00  0.00     0.000 C 
HETATM   13  C   UNL     1     -39.658 -45.355  13.840  1.00  0.00     0.002 C 
HETATM   14  C   UNL     1     -39.265 -46.725  13.280  1.00  0.00     0.032 C 
ENDBRANCH   7   8
ENDBRANCH   5   7
ENDBRANCH   1   5
BRANCH   3  15
HETATM   15  C   UNL     1     -40.867 -53.153  11.994  1.00  0.00     0.127 C 
BRANCH  15  16
HETATM   16  C   UNL     1     -41.415 -53.377  13.412  1.00  0.00     0.059 C 
BRANCH  16  17
HETATM   17  C   UNL     1     -42.843 -52.932  13.545  1.00  0.00    -0.041 A 
HETATM   18  C   UNL     1     -43.862 -53.542  12.814  1.00  0.00     0.010 A 
HETATM   19  C   UNL     1     -45.170 -53.082  12.936  1.00  0.00     0.025 A 
HETATM   20  C   UNL     1     -45.427 -52.014  13.790  1.00  0.00     0.005 A 
HETATM   21  C   UNL     1     -46.810 -51.454  13.927  1.00  0.00     0.068 C 
HETATM   22  N   UNL     1     -44.455 -51.409  14.513  1.00  0.00    -0.369 N 
HETATM   23  C   UNL     1     -43.195 -51.879  14.378  1.00  0.00     0.095 A 
ATOM     24  HN  UNL     1     -44.665 -50.629  15.136  1.00  0.00     0.165 HD
ENDBRANCH  16  17
ENDBRANCH  15  16
ENDBRANCH   3  15
TORSDOF 6
ENDMDL
