MODEL 1
REMARK VINA RESULT:      -6.2      0.000      0.000
REMARK  5 active torsions:
REMARK  status: ('A' for Active; 'I' for Inactive)
REMARK    1  A    between atoms: C_2  and  C_3 
REMARK       I    between atoms: C_2  and  N_12 
REMARK    2  A    between atoms: C_3  and  N_4 
REMARK    3  A    between atoms: N_12  and  C_13 
REMARK    4  A    between atoms: C_13  and  C_14 
REMARK    5  A    between atoms: C_14  and  C_15 
ROOT
HETATM    1  O   UNL     1     -41.649 -48.484  10.341  1.00  0.00    -0.272 OA
HETATM    2  C   UNL     1     -42.624 -47.829  10.703  1.00  0.00     0.235 C 
HETATM    3  N   UNL     1     -43.196 -47.945  11.956  1.00  0.00    -0.359 N 
HETATM    4  H   UNL     1     -44.160 -47.625  12.054  1.00  0.00     0.162 HD
ENDROOT
BRANCH   2   5
HETATM    5  C   UNL     1     -43.347 -46.862   9.764  1.00  0.00     0.235 C 
BRANCH   5   6
HETATM    6  N   UNL     1     -44.423 -47.550   9.061  1.00  0.00    -0.301 N 
HETATM    7  C   UNL     1     -45.669 -47.650   9.642  1.00  0.00     0.097 A 
HETATM    8  C   UNL     1     -46.669 -48.268   9.015  1.00  0.00     0.034 A 
HETATM    9  C   UNL     1     -46.315 -48.809   7.696  1.00  0.00     0.094 A 
HETATM   10  N   UNL     1     -45.165 -48.708   7.121  1.00  0.00    -0.319 N 
HETATM   11  C   UNL     1     -44.161 -48.040   7.778  1.00  0.00     0.326 A 
ATOM     12  HN  UNL     1     -45.005 -49.115   6.199  1.00  0.00     0.170 HD
HETATM   13  O   UNL     1     -43.060 -47.864   7.255  1.00  0.00    -0.246 OA
ENDBRANCH   5   6
ENDBRANCH   2   5
BRANCH   3  14
HETATM   14  C   UNL     1     -42.667 -48.887  12.927  1.00  0.00     0.127 C 
BRANCH  14  15
HETATM   15  C   UNL     1     -43.220 -50.302  12.729  1.00  0.00     0.053 C 
BRANCH  15  16
HETATM   16  C   UNL     1     -44.337 -50.671  13.690  1.00  0.00    -0.082 A 
HETATM   17  C   UNL     1     -45.489 -51.196  13.249  1.00  0.00    -0.024 A 
HETATM   18  C   UNL     1     -46.661 -51.534  14.105  1.00  0.00     0.027 A 
HETATM   19  C   UNL     1     -46.508 -51.331  15.609  1.00  0.00     0.004 A 
HETATM   20  C   UNL     1     -45.211 -50.723  16.133  1.00  0.00     0.005 A 
HETATM   21  C   UNL     1     -44.109 -50.356  15.140  1.00  0.00     0.034 A 
ENDBRANCH  15  16
ENDBRANCH  14  15
ENDBRANCH   3  14
TORSDOF 5
ENDMDL
MODEL 2
REMARK VINA RESULT:      -6.0      4.305      5.803
REMARK  5 active torsions:
REMARK  status: ('A' for Active; 'I' for Inactive)
REMARK    1  A    between atoms: C_2  and  C_3 
REMARK       I    between atoms: C_2  and  N_12 
REMARK    2  A    between atoms: C_3  and  N_4 
REMARK    3  A    between atoms: N_12  and  C_13 
REMARK    4  A    between atoms: C_13  and  C_14 
REMARK    5  A    between atoms: C_14  and  C_15 
ROOT
HETATM    1  O   UNL     1     -41.828 -52.547  11.892  1.00  0.00    -0.272 OA
HETATM    2  C   UNL     1     -41.493 -52.209  13.026  1.00  0.00     0.235 C 
HETATM    3  N   UNL     1     -41.624 -53.025  14.134  1.00  0.00    -0.359 N 
HETATM    4  H   UNL     1     -41.634 -52.567  15.045  1.00  0.00     0.162 HD
ENDROOT
BRANCH   2   5
HETATM    5  C   UNL     1     -40.957 -50.809  13.330  1.00  0.00     0.235 C 
BRANCH   5   6
HETATM    6  N   UNL     1     -39.667 -50.611  12.681  1.00  0.00    -0.301 N 
HETATM    7  C   UNL     1     -38.529 -51.165  13.228  1.00  0.00     0.097 A 
HETATM    8  C   UNL     1     -37.341 -51.002  12.647  1.00  0.00     0.034 A 
HETATM    9  C   UNL     1     -37.372 -50.201  11.417  1.00  0.00     0.094 A 
HETATM   10  N   UNL     1     -38.425 -49.692  10.872  1.00  0.00    -0.319 N 
HETATM   11  C   UNL     1     -39.641 -49.901  11.475  1.00  0.00     0.326 A 
ATOM     12  HN  UNL     1     -38.356 -49.146  10.012  1.00  0.00     0.170 HD
HETATM   13  O   UNL     1     -40.685 -49.487  10.972  1.00  0.00    -0.246 OA
ENDBRANCH   5   6
ENDBRANCH   2   5
BRANCH   3  14
HETATM   14  C   UNL     1     -42.197 -54.354  14.009  1.00  0.00     0.127 C 
BRANCH  14  15
HETATM   15  C   UNL     1     -43.530 -54.487  14.753  1.00  0.00     0.053 C 
BRANCH  15  16
HETATM   16  C   UNL     1     -44.586 -53.487  14.315  1.00  0.00    -0.082 A 
HETATM   17  C   UNL     1     -45.059 -53.480  13.060  1.00  0.00    -0.024 A 
HETATM   18  C   UNL     1     -46.048 -52.504  12.522  1.00  0.00     0.027 A 
HETATM   19  C   UNL     1     -46.619 -51.480  13.497  1.00  0.00     0.004 A 
HETATM   20  C   UNL     1     -46.088 -51.461  14.927  1.00  0.00     0.005 A 
HETATM   21  C   UNL     1     -45.020 -52.475  15.335  1.00  0.00     0.034 A 
ENDBRANCH  15  16
ENDBRANCH  14  15
ENDBRANCH   3  14
TORSDOF 5
ENDMDL
MODEL 3
REMARK VINA RESULT:      -5.8      1.750      2.356
REMARK  5 active torsions:
REMARK  status: ('A' for Active; 'I' for Inactive)
REMARK    1  A    between atoms: C_2  and  C_3 
REMARK       I    between atoms: C_2  and  N_12 
REMARK    2  A    between atoms: C_3  and  N_4 
REMARK    3  A    between atoms: N_12  and  C_13 
REMARK    4  A    between atoms: C_13  and  C_14 
REMARK    5  A    between atoms: C_14  and  C_15 
ROOT
HETATM    1  O   UNL     1     -42.820 -47.851  12.534  1.00  0.00    -0.272 OA
HETATM    2  C   UNL     1     -42.413 -48.514  11.582  1.00  0.00     0.235 C 
HETATM    3  N   UNL     1     -42.066 -49.848  11.677  1.00  0.00    -0.359 N 
HETATM    4  H   UNL     1     -41.450 -50.216  10.951  1.00  0.00     0.162 HD
ENDROOT
BRANCH   2   5
HETATM    5  C   UNL     1     -42.186 -47.896  10.201  1.00  0.00     0.235 C 
BRANCH   5   6
HETATM    6  N   UNL     1     -43.378 -47.179   9.766  1.00  0.00    -0.301 N 
HETATM    7  C   UNL     1     -44.570 -47.854   9.616  1.00  0.00     0.097 A 
HETATM    8  C   UNL     1     -45.673 -47.216   9.226  1.00  0.00     0.034 A 
HETATM    9  C   UNL     1     -45.490 -45.780   8.982  1.00  0.00     0.094 A 
HETATM   10  N   UNL     1     -44.392 -45.121   9.138  1.00  0.00    -0.319 N 
HETATM   11  C   UNL     1     -43.278 -45.797   9.570  1.00  0.00     0.326 A 
ATOM     12  HN  UNL     1     -44.352 -44.120   8.945  1.00  0.00     0.170 HD
HETATM   13  O   UNL     1     -42.217 -45.211   9.789  1.00  0.00    -0.246 OA
ENDBRANCH   5   6
ENDBRANCH   2   5
BRANCH   3  14
HETATM   14  C   UNL     1     -42.151 -50.546  12.948  1.00  0.00     0.127 C 
BRANCH  14  15
HETATM   15  C   UNL     1     -43.204 -51.659  12.934  1.00  0.00     0.053 C 
BRANCH  15  16
HETATM   16  C   UNL     1     -44.336 -51.453  13.926  1.00  0.00    -0.082 A 
HETATM   17  C   UNL     1     -44.091 -51.095  15.195  1.00  0.00    -0.024 A 
HETATM   18  C   UNL     1     -45.127 -50.928  16.253  1.00  0.00     0.027 A 
HETATM   19  C   UNL     1     -46.583 -51.109  15.839  1.00  0.00     0.004 A 
HETATM   20  C   UNL     1     -46.885 -51.528  14.404  1.00  0.00     0.005 A 
HETATM   21  C   UNL     1     -45.725 -51.734  13.431  1.00  0.00     0.034 A 
ENDBRANCH  15  16
ENDBRANCH  14  15
ENDBRANCH   3  14
TORSDOF 5
ENDMDL
MODEL 4
REMARK VINA RESULT:      -5.7      4.740      6.246
REMARK  5 active torsions:
REMARK  status: ('A' for Active; 'I' for Inactive)
REMARK    1  A    between atoms: C_2  and  C_3 
REMARK       I    between atoms: C_2  and  N_12 
REMARK    2  A    between atoms: C_3  and  N_4 
REMARK    3  A    between atoms: N_12  and  C_13 
REMARK    4  A    between atoms: C_13  and  C_14 
REMARK    5  A    between atoms: C_14  and  C_15 
ROOT
HETATM    1  O   UNL     1     -42.603 -53.574  14.073  1.00  0.00    -0.272 OA
HETATM    2  C   UNL     1     -42.487 -53.122  12.936  1.00  0.00     0.235 C 
HETATM    3  N   UNL     1     -43.563 -52.858  12.109  1.00  0.00    -0.359 N 
HETATM    4  H   UNL     1     -43.371 -52.803  11.108  1.00  0.00     0.162 HD
ENDROOT
BRANCH   2   5
HETATM    5  C   UNL     1     -41.120 -52.871  12.298  1.00  0.00     0.235 C 
BRANCH   5   6
HETATM    6  N   UNL     1     -40.363 -51.909  13.090  1.00  0.00    -0.301 N 
HETATM    7  C   UNL     1     -40.808 -50.610  13.204  1.00  0.00     0.097 A 
HETATM    8  C   UNL     1     -40.136 -49.716  13.928  1.00  0.00     0.034 A 
HETATM    9  C   UNL     1     -38.920 -50.241  14.562  1.00  0.00     0.094 A 
HETATM   10  N   UNL     1     -38.494 -51.457  14.491  1.00  0.00    -0.319 N 
HETATM   11  C   UNL     1     -39.224 -52.364  13.762  1.00  0.00     0.326 A 
ATOM     12  HN  UNL     1     -37.635 -51.738  14.964  1.00  0.00     0.170 HD
HETATM   13  O   UNL     1     -38.896 -53.550  13.704  1.00  0.00    -0.246 OA
ENDBRANCH   5   6
ENDBRANCH   2   5
BRANCH   3  14
HETATM   14  C   UNL     1     -44.920 -53.127  12.550  1.00  0.00     0.127 C 
BRANCH  14  15
HETATM   15  C   UNL     1     -45.722 -51.844  12.788  1.00  0.00     0.053 C 
BRANCH  15  16
HETATM   16  C   UNL     1     -45.846 -51.452  14.250  1.00  0.00    -0.082 A 
HETATM   17  C   UNL     1     -46.986 -51.647  14.928  1.00  0.00    -0.024 A 
HETATM   18  C   UNL     1     -47.222 -51.243  16.343  1.00  0.00     0.027 A 
HETATM   19  C   UNL     1     -46.049 -50.625  17.096  1.00  0.00     0.004 A 
HETATM   20  C   UNL     1     -44.746 -50.382  16.342  1.00  0.00     0.005 A 
HETATM   21  C   UNL     1     -44.655 -50.780  14.870  1.00  0.00     0.034 A 
ENDBRANCH  15  16
ENDBRANCH  14  15
ENDBRANCH   3  14
TORSDOF 5
ENDMDL
MODEL 5
REMARK VINA RESULT:      -5.6      5.103      6.410
REMARK  5 active torsions:
REMARK  status: ('A' for Active; 'I' for Inactive)
REMARK    1  A    between atoms: C_2  and  C_3 
REMARK       I    between atoms: C_2  and  N_12 
REMARK    2  A    between atoms: C_3  and  N_4 
REMARK    3  A    between atoms: N_12  and  C_13 
REMARK    4  A    between atoms: C_13  and  C_14 
REMARK    5  A    between atoms: C_14  and  C_15 
ROOT
HETATM    1  O   UNL     1     -38.986 -54.147  13.569  1.00  0.00    -0.272 OA
HETATM    2  C   UNL     1     -39.532 -53.124  13.975  1.00  0.00     0.235 C 
HETATM    3  N   UNL     1     -40.899 -52.921  13.932  1.00  0.00    -0.359 N 
HETATM    4  H   UNL     1     -41.223 -51.955  13.978  1.00  0.00     0.162 HD
ENDROOT
BRANCH   2   5
HETATM    5  C   UNL     1     -38.732 -51.935  14.511  1.00  0.00     0.235 C 
BRANCH   5   6
HETATM    6  N   UNL     1     -38.753 -50.839  13.551  1.00  0.00    -0.301 N 
HETATM    7  C   UNL     1     -39.677 -49.824  13.686  1.00  0.00     0.097 A 
HETATM    8  C   UNL     1     -39.709 -48.809  12.824  1.00  0.00     0.034 A 
HETATM    9  C   UNL     1     -38.700 -48.884  11.760  1.00  0.00     0.094 A 
HETATM   10  N   UNL     1     -37.810 -49.809  11.625  1.00  0.00    -0.319 N 
HETATM   11  C   UNL     1     -37.781 -50.828  12.545  1.00  0.00     0.326 A 
ATOM     12  HN  UNL     1     -37.144 -49.784  10.853  1.00  0.00     0.170 HD
HETATM   13  O   UNL     1     -36.920 -51.707  12.499  1.00  0.00    -0.246 OA
ENDBRANCH   5   6
ENDBRANCH   2   5
BRANCH   3  14
HETATM   14  C   UNL     1     -41.779 -53.932  13.371  1.00  0.00     0.127 C 
BRANCH  14  15
HETATM   15  C   UNL     1     -42.985 -54.221  14.270  1.00  0.00     0.053 C 
BRANCH  15  16
HETATM   16  C   UNL     1     -44.156 -53.277  14.058  1.00  0.00    -0.082 A 
HETATM   17  C   UNL     1     -44.569 -52.452  15.031  1.00  0.00    -0.024 A 
HETATM   18  C   UNL     1     -45.741 -51.536  14.938  1.00  0.00     0.027 A 
HETATM   19  C   UNL     1     -46.482 -51.484  13.606  1.00  0.00     0.004 A 
HETATM   20  C   UNL     1     -46.037 -52.422  12.488  1.00  0.00     0.005 A 
HETATM   21  C   UNL     1     -44.860 -53.365  12.736  1.00  0.00     0.034 A 
ENDBRANCH  15  16
ENDBRANCH  14  15
ENDBRANCH   3  14
TORSDOF 5
ENDMDL
MODEL 6
REMARK VINA RESULT:      -5.6      4.626      6.414
REMARK  5 active torsions:
REMARK  status: ('A' for Active; 'I' for Inactive)
REMARK    1  A    between atoms: C_2  and  C_3 
REMARK       I    between atoms: C_2  and  N_12 
REMARK    2  A    between atoms: C_3  and  N_4 
REMARK    3  A    between atoms: N_12  and  C_13 
REMARK    4  A    between atoms: C_13  and  C_14 
REMARK    5  A    between atoms: C_14  and  C_15 
ROOT
HETATM    1  O   UNL     1     -42.912 -54.407  14.525  1.00  0.00    -0.272 OA
HETATM    2  C   UNL     1     -42.570 -54.008  13.415  1.00  0.00     0.235 C 
HETATM    3  N   UNL     1     -43.458 -53.524  12.473  1.00  0.00    -0.359 N 
HETATM    4  H   UNL     1     -43.146 -53.526  11.501  1.00  0.00     0.162 HD
ENDROOT
BRANCH   2   5
HETATM    5  C   UNL     1     -41.117 -54.073  12.941  1.00  0.00     0.235 C 
BRANCH   5   6
HETATM    6  N   UNL     1     -40.360 -52.948  13.475  1.00  0.00    -0.301 N 
HETATM    7  C   UNL     1     -39.622 -53.101  14.629  1.00  0.00     0.097 A 
HETATM    8  C   UNL     1     -38.917 -52.088  15.130  1.00  0.00     0.034 A 
HETATM    9  C   UNL     1     -39.010 -50.843  14.357  1.00  0.00     0.094 A 
HETATM   10  N   UNL     1     -39.673 -50.680  13.263  1.00  0.00    -0.319 N 
HETATM   11  C   UNL     1     -40.366 -51.750  12.752  1.00  0.00     0.326 A 
ATOM     12  HN  UNL     1     -39.683 -49.777  12.788  1.00  0.00     0.170 HD
HETATM   13  O   UNL     1     -40.972 -51.669  11.683  1.00  0.00    -0.246 OA
ENDBRANCH   5   6
ENDBRANCH   2   5
BRANCH   3  14
HETATM   14  C   UNL     1     -44.883 -53.481  12.753  1.00  0.00     0.127 C 
BRANCH  14  15
HETATM   15  C   UNL     1     -45.416 -52.048  12.851  1.00  0.00     0.053 C 
BRANCH  15  16
HETATM   16  C   UNL     1     -45.696 -51.587  14.271  1.00  0.00    -0.082 A 
HETATM   17  C   UNL     1     -46.906 -51.748  14.828  1.00  0.00    -0.024 A 
HETATM   18  C   UNL     1     -47.293 -51.277  16.188  1.00  0.00     0.027 A 
HETATM   19  C   UNL     1     -46.206 -50.627  17.037  1.00  0.00     0.004 A 
HETATM   20  C   UNL     1     -44.825 -50.422  16.420  1.00  0.00     0.005 A 
HETATM   21  C   UNL     1     -44.576 -50.890  14.987  1.00  0.00     0.034 A 
ENDBRANCH  15  16
ENDBRANCH  14  15
ENDBRANCH   3  14
TORSDOF 5
ENDMDL
MODEL 7
REMARK VINA RESULT:      -5.6      5.016      7.161
REMARK  5 active torsions:
REMARK  status: ('A' for Active; 'I' for Inactive)
REMARK    1  A    between atoms: C_2  and  C_3 
REMARK       I    between atoms: C_2  and  N_12 
REMARK    2  A    between atoms: C_3  and  N_4 
REMARK    3  A    between atoms: N_12  and  C_13 
REMARK    4  A    between atoms: C_13  and  C_14 
REMARK    5  A    between atoms: C_14  and  C_15 
ROOT
HETATM    1  O   UNL     1     -41.737 -53.126  15.453  1.00  0.00    -0.272 OA
HETATM    2  C   UNL     1     -42.443 -53.782  14.689  1.00  0.00     0.235 C 
HETATM    3  N   UNL     1     -42.073 -54.101  13.396  1.00  0.00    -0.359 N 
HETATM    4  H   UNL     1     -42.823 -54.349  12.750  1.00  0.00     0.162 HD
ENDROOT
BRANCH   2   5
HETATM    5  C   UNL     1     -43.844 -54.252  15.082  1.00  0.00     0.235 C 
BRANCH   5   6
HETATM    6  N   UNL     1     -44.849 -53.328  14.571  1.00  0.00    -0.301 N 
HETATM    7  C   UNL     1     -45.133 -52.170  15.262  1.00  0.00     0.097 A 
HETATM    8  C   UNL     1     -46.042 -51.309  14.809  1.00  0.00     0.034 A 
HETATM    9  C   UNL     1     -46.684 -51.710  13.551  1.00  0.00     0.094 A 
HETATM   10  N   UNL     1     -46.420 -52.775  12.873  1.00  0.00    -0.319 N 
HETATM   11  C   UNL     1     -45.456 -53.630  13.347  1.00  0.00     0.326 A 
ATOM     12  HN  UNL     1     -46.916 -52.977  12.004  1.00  0.00     0.170 HD
HETATM   13  O   UNL     1     -45.123 -54.633  12.715  1.00  0.00    -0.246 OA
ENDBRANCH   5   6
ENDBRANCH   2   5
BRANCH   3  14
HETATM   14  C   UNL     1     -40.802 -53.648  12.857  1.00  0.00     0.127 C 
BRANCH  14  15
HETATM   15  C   UNL     1     -40.931 -52.331  12.085  1.00  0.00     0.053 C 
BRANCH  15  16
HETATM   16  C   UNL     1     -39.870 -51.302  12.434  1.00  0.00    -0.082 A 
HETATM   17  C   UNL     1     -39.001 -51.512  13.434  1.00  0.00    -0.024 A 
HETATM   18  C   UNL     1     -37.966 -50.540  13.887  1.00  0.00     0.027 A 
HETATM   19  C   UNL     1     -37.843 -49.236  13.106  1.00  0.00     0.004 A 
HETATM   20  C   UNL     1     -38.829 -48.970  11.973  1.00  0.00     0.005 A 
HETATM   21  C   UNL     1     -39.890 -50.022  11.651  1.00  0.00     0.034 A 
ENDBRANCH  15  16
ENDBRANCH  14  15
ENDBRANCH   3  14
TORSDOF 5
ENDMDL
MODEL 8
REMARK VINA RESULT:      -5.5      4.632      7.096
REMARK  5 active torsions:
REMARK  status: ('A' for Active; 'I' for Inactive)
REMARK    1  A    between atoms: C_2  and  C_3 
REMARK       I    between atoms: C_2  and  N_12 
REMARK    2  A    between atoms: C_3  and  N_4 
REMARK    3  A    between atoms: N_12  and  C_13 
REMARK    4  A    between atoms: C_13  and  C_14 
REMARK    5  A    between atoms: C_14  and  C_15 
ROOT
HETATM    1  O   UNL     1     -42.438 -53.103  13.885  1.00  0.00    -0.272 OA
HETATM    2  C   UNL     1     -42.891 -53.064  12.743  1.00  0.00     0.235 C 
HETATM    3  N   UNL     1     -42.237 -52.461  11.685  1.00  0.00    -0.359 N 
HETATM    4  H   UNL     1     -42.809 -52.193  10.883  1.00  0.00     0.162 HD
ENDROOT
BRANCH   2   5
HETATM    5  C   UNL     1     -44.271 -53.627  12.397  1.00  0.00     0.235 C 
BRANCH   5   6
HETATM    6  N   UNL     1     -45.256 -53.188  13.377  1.00  0.00    -0.301 N 
HETATM    7  C   UNL     1     -45.676 -51.875  13.389  1.00  0.00     0.097 A 
HETATM    8  C   UNL     1     -46.581 -51.454  14.272  1.00  0.00     0.034 A 
HETATM    9  C   UNL     1     -47.059 -52.493  15.192  1.00  0.00     0.094 A 
HETATM   10  N   UNL     1     -46.701 -53.732  15.187  1.00  0.00    -0.319 N 
HETATM   11  C   UNL     1     -45.789 -54.145  14.247  1.00  0.00     0.326 A 
ATOM     12  HN  UNL     1     -47.085 -54.390  15.865  1.00  0.00     0.170 HD
HETATM   13  O   UNL     1     -45.451 -55.326  14.158  1.00  0.00    -0.246 OA
ENDBRANCH   5   6
ENDBRANCH   2   5
BRANCH   3  14
HETATM   14  C   UNL     1     -40.954 -51.810  11.883  1.00  0.00     0.127 C 
BRANCH  14  15
HETATM   15  C   UNL     1     -41.075 -50.284  11.935  1.00  0.00     0.053 C 
BRANCH  15  16
HETATM   16  C   UNL     1     -39.943 -49.597  12.680  1.00  0.00    -0.082 A 
HETATM   17  C   UNL     1     -39.960 -48.275  12.904  1.00  0.00    -0.024 A 
HETATM   18  C   UNL     1     -38.872 -47.506  13.571  1.00  0.00     0.027 A 
HETATM   19  C   UNL     1     -37.681 -48.297  14.101  1.00  0.00     0.004 A 
HETATM   20  C   UNL     1     -37.634 -49.800  13.846  1.00  0.00     0.005 A 
HETATM   21  C   UNL     1     -38.785 -50.460  13.088  1.00  0.00     0.034 A 
ENDBRANCH  15  16
ENDBRANCH  14  15
ENDBRANCH   3  14
TORSDOF 5
ENDMDL
MODEL 9
REMARK VINA RESULT:      -5.4      3.248      4.171
REMARK  5 active torsions:
REMARK  status: ('A' for Active; 'I' for Inactive)
REMARK    1  A    between atoms: C_2  and  C_3 
REMARK       I    between atoms: C_2  and  N_12 
REMARK    2  A    between atoms: C_3  and  N_4 
REMARK    3  A    between atoms: N_12  and  C_13 
REMARK    4  A    between atoms: C_13  and  C_14 
REMARK    5  A    between atoms: C_14  and  C_15 
ROOT
HETATM    1  O   UNL     1     -41.267 -50.385  13.401  1.00  0.00    -0.272 OA
HETATM    2  C   UNL     1     -41.287 -50.701  12.213  1.00  0.00     0.235 C 
HETATM    3  N   UNL     1     -41.894 -51.849  11.741  1.00  0.00    -0.359 N 
HETATM    4  H   UNL     1     -41.590 -52.189  10.829  1.00  0.00     0.162 HD
ENDROOT
BRANCH   2   5
HETATM    5  C   UNL     1     -40.574 -49.875  11.142  1.00  0.00     0.235 C 
BRANCH   5   6
HETATM    6  N   UNL     1     -41.061 -48.501  11.156  1.00  0.00    -0.301 N 
HETATM    7  C   UNL     1     -42.307 -48.208  10.645  1.00  0.00     0.097 A 
HETATM    8  C   UNL     1     -42.774 -46.960  10.654  1.00  0.00     0.034 A 
HETATM    9  C   UNL     1     -41.858 -45.973  11.239  1.00  0.00     0.094 A 
HETATM   10  N   UNL     1     -40.698 -46.225  11.745  1.00  0.00    -0.319 N 
HETATM   11  C   UNL     1     -40.254 -47.524  11.750  1.00  0.00     0.326 A 
ATOM     12  HN  UNL     1     -40.124 -45.476  12.133  1.00  0.00     0.170 HD
HETATM   13  O   UNL     1     -39.180 -47.832  12.268  1.00  0.00    -0.246 OA
ENDBRANCH   5   6
ENDBRANCH   2   5
BRANCH   3  14
HETATM   14  C   UNL     1     -42.541 -52.774  12.656  1.00  0.00     0.127 C 
BRANCH  14  15
HETATM   15  C   UNL     1     -43.940 -53.181  12.184  1.00  0.00     0.053 C 
BRANCH  15  16
HETATM   16  C   UNL     1     -45.036 -52.927  13.204  1.00  0.00    -0.082 A 
HETATM   17  C   UNL     1     -45.610 -51.720  13.322  1.00  0.00    -0.024 A 
HETATM   18  C   UNL     1     -46.648 -51.360  14.329  1.00  0.00     0.027 A 
HETATM   19  C   UNL     1     -47.145 -52.471  15.247  1.00  0.00     0.004 A 
HETATM   20  C   UNL     1     -46.499 -53.849  15.139  1.00  0.00     0.005 A 
HETATM   21  C   UNL     1     -45.394 -54.071  14.108  1.00  0.00     0.034 A 
ENDBRANCH  15  16
ENDBRANCH  14  15
ENDBRANCH   3  14
TORSDOF 5
ENDMDL
