MODEL 1
REMARK VINA RESULT:      -6.6      0.000      0.000
REMARK  4 active torsions:
REMARK  status: ('A' for Active; 'I' for Inactive)
REMARK    1  A    between atoms: C_5  and  C_10 
REMARK       I    between atoms: C_10  and  N_12 
REMARK    2  A    between atoms: N_12  and  C_13 
REMARK    3  A    between atoms: C_13  and  C_14 
REMARK    4  A    between atoms: C_14  and  C_15 
ROOT
HETATM    1  C   UNL     1     -41.445 -52.313  12.197  1.00  0.00     0.265 C 
HETATM    2  O   UNL     1     -40.417 -52.972  12.191  1.00  0.00    -0.266 OA
HETATM    3  N   UNL     1     -41.532 -51.011  11.758  1.00  0.00    -0.355 N 
HETATM    4  H   UNL     1     -42.440 -50.555  11.798  1.00  0.00     0.162 HD
ENDROOT
BRANCH   3   5
HETATM    5  C   UNL     1     -40.345 -50.291  11.326  1.00  0.00     0.131 C 
BRANCH   5   6
HETATM    6  C   UNL     1     -40.497 -48.773  11.415  1.00  0.00     0.106 C 
BRANCH   6   7
HETATM    7  C   UNL     1     -41.742 -48.335  10.742  1.00  0.00     0.149 A 
HETATM    8  N   UNL     1     -41.954 -48.044   9.478  1.00  0.00    -0.327 N 
HETATM    9  C   UNL     1     -43.292 -47.738   9.476  1.00  0.00     0.100 A 
ATOM     10  HN  UNL     1     -41.294 -48.045   8.700  1.00  0.00     0.169 HD
HETATM   11  C   UNL     1     -44.017 -47.344   8.254  1.00  0.00     0.091 C 
HETATM   12  N   UNL     1     -43.895 -47.834  10.667  1.00  0.00    -0.248 N 
HETATM   13  O   UNL     1     -42.860 -48.232  11.517  1.00  0.00    -0.223 OA
ATOM     14  HN  UNL     1     -44.872 -47.659  10.898  1.00  0.00     0.196 HD
ENDBRANCH   6   7
ENDBRANCH   5   6
ENDBRANCH   3   5
BRANCH   1  15
HETATM   15  C   UNL     1     -42.735 -52.942  12.726  1.00  0.00     0.094 A 
HETATM   16  N   UNL     1     -43.882 -52.445  12.379  1.00  0.00    -0.295 N 
HETATM   17  N   UNL     1     -45.030 -53.024  12.868  1.00  0.00    -0.265 N 
ATOM     18  HN  UNL     1     -43.932 -51.640  11.755  1.00  0.00     0.187 HD
HETATM   19  C   UNL     1     -46.291 -52.438  12.448  1.00  0.00     0.181 C 
HETATM   20  C   UNL     1     -45.089 -54.117  13.718  1.00  0.00     0.238 A 
HETATM   21  C   UNL     1     -43.796 -54.742  14.154  1.00  0.00     0.111 A 
HETATM   22  O   UNL     1     -46.154 -54.593  14.124  1.00  0.00    -0.272 OA
HETATM   23  C   UNL     1     -42.534 -54.113  13.633  1.00  0.00     0.073 A 
ENDBRANCH   1  15
TORSDOF 4
ENDMDL
MODEL 2
REMARK VINA RESULT:      -6.5      1.489      1.876
REMARK  4 active torsions:
REMARK  status: ('A' for Active; 'I' for Inactive)
REMARK    1  A    between atoms: C_5  and  C_10 
REMARK       I    between atoms: C_10  and  N_12 
REMARK    2  A    between atoms: N_12  and  C_13 
REMARK    3  A    between atoms: C_13  and  C_14 
REMARK    4  A    between atoms: C_14  and  C_15 
ROOT
HETATM    1  C   UNL     1     -41.362 -50.772  11.957  1.00  0.00     0.265 C 
HETATM    2  O   UNL     1     -40.154 -50.844  12.126  1.00  0.00    -0.266 OA
HETATM    3  N   UNL     1     -41.993 -49.722  11.327  1.00  0.00    -0.355 N 
HETATM    4  H   UNL     1     -43.004 -49.765  11.230  1.00  0.00     0.162 HD
ENDROOT
BRANCH   3   5
HETATM    5  C   UNL     1     -41.241 -48.558  10.888  1.00  0.00     0.131 C 
BRANCH   5   6
HETATM    6  C   UNL     1     -42.064 -47.269  10.907  1.00  0.00     0.106 C 
BRANCH   6   7
HETATM    7  C   UNL     1     -43.285 -47.421  10.083  1.00  0.00     0.149 A 
HETATM    8  N   UNL     1     -44.537 -47.154  10.381  1.00  0.00    -0.327 N 
HETATM    9  C   UNL     1     -45.184 -47.475   9.214  1.00  0.00     0.100 A 
ATOM     10  HN  UNL     1     -44.927 -46.800  11.255  1.00  0.00     0.169 HD
HETATM   11  C   UNL     1     -46.642 -47.337   9.047  1.00  0.00     0.091 C 
HETATM   12  N   UNL     1     -44.389 -47.915   8.231  1.00  0.00    -0.248 N 
HETATM   13  O   UNL     1     -43.118 -47.882   8.809  1.00  0.00    -0.223 OA
ATOM     14  HN  UNL     1     -44.649 -48.205   7.289  1.00  0.00     0.196 HD
ENDBRANCH   6   7
ENDBRANCH   5   6
ENDBRANCH   3   5
BRANCH   1  15
HETATM   15  C   UNL     1     -42.259 -51.899  12.470  1.00  0.00     0.094 A 
HETATM   16  N   UNL     1     -43.548 -51.787  12.377  1.00  0.00    -0.295 N 
HETATM   17  N   UNL     1     -44.337 -52.811  12.848  1.00  0.00    -0.265 N 
ATOM     18  HN  UNL     1     -43.969 -50.956  11.963  1.00  0.00     0.187 HD
HETATM   19  C   UNL     1     -45.774 -52.645  12.718  1.00  0.00     0.181 C 
HETATM   20  C   UNL     1     -43.883 -53.985  13.427  1.00  0.00     0.238 A 
HETATM   21  C   UNL     1     -42.401 -54.178  13.559  1.00  0.00     0.111 A 
HETATM   22  O   UNL     1     -44.643 -54.870  13.831  1.00  0.00    -0.272 OA
HETATM   23  C   UNL     1     -41.527 -53.063  13.057  1.00  0.00     0.073 A 
ENDBRANCH   1  15
TORSDOF 4
ENDMDL
MODEL 3
REMARK VINA RESULT:      -6.3      2.019      6.278
REMARK  4 active torsions:
REMARK  status: ('A' for Active; 'I' for Inactive)
REMARK    1  A    between atoms: C_5  and  C_10 
REMARK       I    between atoms: C_10  and  N_12 
REMARK    2  A    between atoms: N_12  and  C_13 
REMARK    3  A    between atoms: C_13  and  C_14 
REMARK    4  A    between atoms: C_14  and  C_15 
ROOT
HETATM    1  C   UNL     1     -40.864 -49.193  11.251  1.00  0.00     0.265 C 
HETATM    2  O   UNL     1     -39.679 -49.047  11.510  1.00  0.00    -0.266 OA
HETATM    3  N   UNL     1     -41.566 -50.356  11.472  1.00  0.00    -0.355 N 
HETATM    4  H   UNL     1     -42.553 -50.370  11.229  1.00  0.00     0.162 HD
ENDROOT
BRANCH   3   5
HETATM    5  C   UNL     1     -40.894 -51.548  11.965  1.00  0.00     0.131 C 
BRANCH   5   6
HETATM    6  C   UNL     1     -41.862 -52.670  12.345  1.00  0.00     0.106 C 
BRANCH   6   7
HETATM    7  C   UNL     1     -43.136 -52.108  12.851  1.00  0.00     0.149 A 
HETATM    8  N   UNL     1     -44.372 -52.397  12.513  1.00  0.00    -0.327 N 
HETATM    9  C   UNL     1     -45.095 -51.573  13.340  1.00  0.00     0.100 A 
ATOM     10  HN  UNL     1     -44.708 -53.063  11.816  1.00  0.00     0.169 HD
HETATM   11  C   UNL     1     -46.568 -51.537  13.339  1.00  0.00     0.091 C 
HETATM   12  N   UNL     1     -44.359 -50.809  14.157  1.00  0.00    -0.248 N 
HETATM   13  O   UNL     1     -43.048 -51.163  13.832  1.00  0.00    -0.223 OA
ATOM     14  HN  UNL     1     -44.680 -50.133  14.850  1.00  0.00     0.196 HD
ENDBRANCH   6   7
ENDBRANCH   5   6
ENDBRANCH   3   5
BRANCH   1  15
HETATM   15  C   UNL     1     -41.645 -48.031  10.634  1.00  0.00     0.094 A 
HETATM   16  N   UNL     1     -42.693 -48.275   9.909  1.00  0.00    -0.295 N 
HETATM   17  N   UNL     1     -43.380 -47.215   9.361  1.00  0.00    -0.265 N 
ATOM     18  HN  UNL     1     -43.002 -49.233   9.748  1.00  0.00     0.187 HD
HETATM   19  C   UNL     1     -44.549 -47.535   8.561  1.00  0.00     0.181 C 
HETATM   20  C   UNL     1     -43.058 -45.876   9.510  1.00  0.00     0.238 A 
HETATM   21  C   UNL     1     -41.859 -45.527  10.342  1.00  0.00     0.111 A 
HETATM   22  O   UNL     1     -43.716 -44.968   8.992  1.00  0.00    -0.272 OA
HETATM   23  C   UNL     1     -41.095 -46.675  10.939  1.00  0.00     0.073 A 
ENDBRANCH   1  15
TORSDOF 4
ENDMDL
MODEL 4
REMARK VINA RESULT:      -6.1      1.332      1.877
REMARK  4 active torsions:
REMARK  status: ('A' for Active; 'I' for Inactive)
REMARK    1  A    between atoms: C_5  and  C_10 
REMARK       I    between atoms: C_10  and  N_12 
REMARK    2  A    between atoms: N_12  and  C_13 
REMARK    3  A    between atoms: C_13  and  C_14 
REMARK    4  A    between atoms: C_14  and  C_15 
ROOT
HETATM    1  C   UNL     1     -40.879 -52.164  12.537  1.00  0.00     0.265 C 
HETATM    2  O   UNL     1     -39.722 -52.434  12.822  1.00  0.00    -0.266 OA
HETATM    3  N   UNL     1     -41.252 -51.093  11.756  1.00  0.00    -0.355 N 
HETATM    4  H   UNL     1     -42.243 -50.962  11.571  1.00  0.00     0.162 HD
ENDROOT
BRANCH   3   5
HETATM    5  C   UNL     1     -40.264 -50.140  11.279  1.00  0.00     0.131 C 
BRANCH   5   6
HETATM    6  C   UNL     1     -40.572 -48.699  11.688  1.00  0.00     0.106 C 
BRANCH   6   7
HETATM    7  C   UNL     1     -41.712 -48.170  10.904  1.00  0.00     0.149 A 
HETATM    8  N   UNL     1     -41.942 -48.234   9.612  1.00  0.00    -0.327 N 
HETATM    9  C   UNL     1     -43.152 -47.594   9.504  1.00  0.00     0.100 A 
ATOM     10  HN  UNL     1     -41.370 -48.653   8.878  1.00  0.00     0.169 HD
HETATM   11  C   UNL     1     -43.846 -47.413   8.216  1.00  0.00     0.091 C 
HETATM   12  N   UNL     1     -43.661 -47.153  10.661  1.00  0.00    -0.248 N 
HETATM   13  O   UNL     1     -42.700 -47.535  11.600  1.00  0.00    -0.223 OA
ATOM     14  HN  UNL     1     -44.538 -46.658  10.819  1.00  0.00     0.196 HD
ENDBRANCH   6   7
ENDBRANCH   5   6
ENDBRANCH   3   5
BRANCH   1  15
HETATM   15  C   UNL     1     -42.009 -53.046  13.070  1.00  0.00     0.094 A 
HETATM   16  N   UNL     1     -41.796 -53.813  14.095  1.00  0.00    -0.295 N 
HETATM   17  N   UNL     1     -42.825 -54.601  14.557  1.00  0.00    -0.265 N 
ATOM     18  HN  UNL     1     -40.883 -53.831  14.550  1.00  0.00     0.187 HD
HETATM   19  C   UNL     1     -42.542 -55.439  15.709  1.00  0.00     0.181 C 
HETATM   20  C   UNL     1     -44.103 -54.662  14.025  1.00  0.00     0.238 A 
HETATM   21  C   UNL     1     -44.415 -53.794  12.841  1.00  0.00     0.111 A 
HETATM   22  O   UNL     1     -44.986 -55.392  14.486  1.00  0.00    -0.272 OA
HETATM   23  C   UNL     1     -43.297 -52.935  12.320  1.00  0.00     0.073 A 
ENDBRANCH   1  15
TORSDOF 4
ENDMDL
MODEL 5
REMARK VINA RESULT:      -6.1      1.351      1.793
REMARK  4 active torsions:
REMARK  status: ('A' for Active; 'I' for Inactive)
REMARK    1  A    between atoms: C_5  and  C_10 
REMARK       I    between atoms: C_10  and  N_12 
REMARK    2  A    between atoms: N_12  and  C_13 
REMARK    3  A    between atoms: C_13  and  C_14 
REMARK    4  A    between atoms: C_14  and  C_15 
ROOT
HETATM    1  C   UNL     1     -42.139 -51.574  13.256  1.00  0.00     0.265 C 
HETATM    2  O   UNL     1     -41.270 -51.638  14.113  1.00  0.00    -0.266 OA
HETATM    3  N   UNL     1     -41.930 -51.109  11.977  1.00  0.00    -0.355 N 
HETATM    4  H   UNL     1     -42.721 -51.106  11.337  1.00  0.00     0.162 HD
ENDROOT
BRANCH   3   5
HETATM    5  C   UNL     1     -40.640 -50.567  11.583  1.00  0.00     0.131 C 
BRANCH   5   6
HETATM    6  C   UNL     1     -40.606 -49.039  11.576  1.00  0.00     0.106 C 
BRANCH   6   7
HETATM    7  C   UNL     1     -41.773 -48.497  10.842  1.00  0.00     0.149 A 
HETATM    8  N   UNL     1     -41.869 -48.109   9.591  1.00  0.00    -0.327 N 
HETATM    9  C   UNL     1     -43.189 -47.740   9.507  1.00  0.00     0.100 A 
ATOM     10  HN  UNL     1     -41.149 -48.087   8.868  1.00  0.00     0.169 HD
HETATM   11  C   UNL     1     -43.796 -47.228   8.264  1.00  0.00     0.091 C 
HETATM   12  N   UNL     1     -43.890 -47.891  10.637  1.00  0.00    -0.248 N 
HETATM   13  O   UNL     1     -42.946 -48.395  11.534  1.00  0.00    -0.223 OA
ATOM     14  HN  UNL     1     -44.875 -47.686  10.803  1.00  0.00     0.196 HD
ENDBRANCH   6   7
ENDBRANCH   5   6
ENDBRANCH   3   5
BRANCH   1  15
HETATM   15  C   UNL     1     -43.560 -52.026  13.595  1.00  0.00     0.094 A 
HETATM   16  N   UNL     1     -43.859 -53.287  13.559  1.00  0.00    -0.295 N 
HETATM   17  N   UNL     1     -45.145 -53.672  13.864  1.00  0.00    -0.265 N 
ATOM     18  HN  UNL     1     -43.155 -53.982  13.309  1.00  0.00     0.187 HD
HETATM   19  C   UNL     1     -45.432 -55.096  13.817  1.00  0.00     0.181 C 
HETATM   20  C   UNL     1     -46.183 -52.826  14.218  1.00  0.00     0.238 A 
HETATM   21  C   UNL     1     -45.900 -51.353  14.283  1.00  0.00     0.111 A 
HETATM   22  O   UNL     1     -47.319 -53.233  14.482  1.00  0.00    -0.272 OA
HETATM   23  C   UNL     1     -44.503 -50.919  13.943  1.00  0.00     0.073 A 
ENDBRANCH   1  15
TORSDOF 4
ENDMDL
MODEL 6
REMARK VINA RESULT:      -6.1      4.798      5.897
REMARK  4 active torsions:
REMARK  status: ('A' for Active; 'I' for Inactive)
REMARK    1  A    between atoms: C_5  and  C_10 
REMARK       I    between atoms: C_10  and  N_12 
REMARK    2  A    between atoms: N_12  and  C_13 
REMARK    3  A    between atoms: C_13  and  C_14 
REMARK    4  A    between atoms: C_14  and  C_15 
ROOT
HETATM    1  C   UNL     1     -40.167 -47.483  12.164  1.00  0.00     0.265 C 
HETATM    2  O   UNL     1     -40.064 -46.618  13.020  1.00  0.00    -0.266 OA
HETATM    3  N   UNL     1     -41.107 -47.468  11.158  1.00  0.00    -0.355 N 
HETATM    4  H   UNL     1     -41.101 -48.234  10.490  1.00  0.00     0.162 HD
ENDROOT
BRANCH   3   5
HETATM    5  C   UNL     1     -42.122 -46.428  11.105  1.00  0.00     0.131 C 
BRANCH   5   6
HETATM    6  C   UNL     1     -42.507 -46.036   9.678  1.00  0.00     0.106 C 
BRANCH   6   7
HETATM    7  C   UNL     1     -43.687 -46.810   9.227  1.00  0.00     0.149 A 
HETATM    8  N   UNL     1     -44.892 -46.879   9.746  1.00  0.00    -0.327 N 
HETATM    9  C   UNL     1     -45.530 -47.726   8.874  1.00  0.00     0.100 A 
ATOM     10  HN  UNL     1     -45.258 -46.422  10.582  1.00  0.00     0.169 HD
HETATM   11  C   UNL     1     -46.943 -48.116   9.033  1.00  0.00     0.091 C 
HETATM   12  N   UNL     1     -44.776 -48.164   7.859  1.00  0.00    -0.248 N 
HETATM   13  O   UNL     1     -43.541 -47.555   8.092  1.00  0.00    -0.223 OA
ATOM     14  HN  UNL     1     -45.039 -48.790   7.099  1.00  0.00     0.196 HD
ENDBRANCH   6   7
ENDBRANCH   5   6
ENDBRANCH   3   5
BRANCH   1  15
HETATM   15  C   UNL     1     -39.211 -48.677  12.186  1.00  0.00     0.094 A 
HETATM   16  N   UNL     1     -38.457 -48.915  11.158  1.00  0.00    -0.295 N 
HETATM   17  N   UNL     1     -37.606 -49.996  11.197  1.00  0.00    -0.265 N 
ATOM     18  HN  UNL     1     -38.494 -48.313  10.336  1.00  0.00     0.187 HD
HETATM   19  C   UNL     1     -36.777 -50.221  10.026  1.00  0.00     0.181 C 
HETATM   20  C   UNL     1     -37.467 -50.882  12.254  1.00  0.00     0.238 A 
HETATM   21  C   UNL     1     -38.308 -50.658  13.476  1.00  0.00     0.111 A 
HETATM   22  O   UNL     1     -36.683 -51.836  12.229  1.00  0.00    -0.272 OA
HETATM   23  C   UNL     1     -39.248 -49.486  13.443  1.00  0.00     0.073 A 
ENDBRANCH   1  15
TORSDOF 4
ENDMDL
MODEL 7
REMARK VINA RESULT:      -6.1      2.070      6.548
REMARK  4 active torsions:
REMARK  status: ('A' for Active; 'I' for Inactive)
REMARK    1  A    between atoms: C_5  and  C_10 
REMARK       I    between atoms: C_10  and  N_12 
REMARK    2  A    between atoms: N_12  and  C_13 
REMARK    3  A    between atoms: C_13  and  C_14 
REMARK    4  A    between atoms: C_14  and  C_15 
ROOT
HETATM    1  C   UNL     1     -40.671 -49.860  11.466  1.00  0.00     0.265 C 
HETATM    2  O   UNL     1     -39.468 -50.058  11.545  1.00  0.00    -0.266 OA
HETATM    3  N   UNL     1     -41.628 -50.830  11.661  1.00  0.00    -0.355 N 
HETATM    4  H   UNL     1     -42.604 -50.558  11.580  1.00  0.00     0.162 HD
ENDROOT
BRANCH   3   5
HETATM    5  C   UNL     1     -41.247 -52.213  11.898  1.00  0.00     0.131 C 
BRANCH   5   6
HETATM    6  C   UNL     1     -41.895 -52.810  13.148  1.00  0.00     0.106 C 
BRANCH   6   7
HETATM    7  C   UNL     1     -43.356 -52.562  13.144  1.00  0.00     0.149 A 
HETATM    8  N   UNL     1     -44.104 -51.950  14.034  1.00  0.00    -0.327 N 
HETATM    9  C   UNL     1     -45.349 -52.021  13.457  1.00  0.00     0.100 A 
ATOM     10  HN  UNL     1     -43.831 -51.530  14.923  1.00  0.00     0.169 HD
HETATM   11  C   UNL     1     -46.553 -51.451  14.090  1.00  0.00     0.091 C 
HETATM   12  N   UNL     1     -45.386 -52.638  12.270  1.00  0.00    -0.248 N 
HETATM   13  O   UNL     1     -44.055 -53.003  12.058  1.00  0.00    -0.223 OA
ATOM     14  HN  UNL     1     -46.191 -52.801  11.667  1.00  0.00     0.196 HD
ENDBRANCH   6   7
ENDBRANCH   5   6
ENDBRANCH   3   5
BRANCH   1  15
HETATM   15  C   UNL     1     -41.179 -48.459  11.122  1.00  0.00     0.094 A 
HETATM   16  N   UNL     1     -40.330 -47.505  10.897  1.00  0.00    -0.295 N 
HETATM   17  N   UNL     1     -40.809 -46.251  10.592  1.00  0.00    -0.265 N 
ATOM     18  HN  UNL     1     -39.327 -47.680  10.944  1.00  0.00     0.187 HD
HETATM   19  C   UNL     1     -39.821 -45.215  10.343  1.00  0.00     0.181 C 
HETATM   20  C   UNL     1     -42.144 -45.893  10.498  1.00  0.00     0.238 A 
HETATM   21  C   UNL     1     -43.177 -46.953  10.743  1.00  0.00     0.111 A 
HETATM   22  O   UNL     1     -42.512 -44.747  10.220  1.00  0.00    -0.272 OA
HETATM   23  C   UNL     1     -42.668 -48.325  11.085  1.00  0.00     0.073 A 
ENDBRANCH   1  15
TORSDOF 4
ENDMDL
MODEL 8
REMARK VINA RESULT:      -6.0      2.777      4.608
REMARK  4 active torsions:
REMARK  status: ('A' for Active; 'I' for Inactive)
REMARK    1  A    between atoms: C_5  and  C_10 
REMARK       I    between atoms: C_10  and  N_12 
REMARK    2  A    between atoms: N_12  and  C_13 
REMARK    3  A    between atoms: C_13  and  C_14 
REMARK    4  A    between atoms: C_14  and  C_15 
ROOT
HETATM    1  C   UNL     1     -40.677 -47.474  11.612  1.00  0.00     0.265 C 
HETATM    2  O   UNL     1     -40.420 -46.631  12.458  1.00  0.00    -0.266 OA
HETATM    3  N   UNL     1     -41.171 -47.186  10.360  1.00  0.00    -0.355 N 
HETATM    4  H   UNL     1     -41.343 -47.963   9.726  1.00  0.00     0.162 HD
ENDROOT
BRANCH   3   5
HETATM    5  C   UNL     1     -41.510 -45.822   9.989  1.00  0.00     0.131 C 
BRANCH   5   6
HETATM    6  C   UNL     1     -42.986 -45.488  10.209  1.00  0.00     0.106 C 
BRANCH   6   7
HETATM    7  C   UNL     1     -43.849 -46.461   9.502  1.00  0.00     0.149 A 
HETATM    8  N   UNL     1     -45.044 -46.906   9.819  1.00  0.00    -0.327 N 
HETATM    9  C   UNL     1     -45.321 -47.753   8.773  1.00  0.00     0.100 A 
ATOM     10  HN  UNL     1     -45.619 -46.681  10.631  1.00  0.00     0.169 HD
HETATM   11  C   UNL     1     -46.584 -48.506   8.671  1.00  0.00     0.091 C 
HETATM   12  N   UNL     1     -44.359 -47.836   7.846  1.00  0.00    -0.248 N 
HETATM   13  O   UNL     1     -43.372 -46.975   8.330  1.00  0.00    -0.223 OA
ATOM     14  HN  UNL     1     -44.350 -48.393   6.992  1.00  0.00     0.196 HD
ENDBRANCH   6   7
ENDBRANCH   5   6
ENDBRANCH   3   5
BRANCH   1  15
HETATM   15  C   UNL     1     -40.452 -48.952  11.934  1.00  0.00     0.094 A 
HETATM   16  N   UNL     1     -41.469 -49.750  12.033  1.00  0.00    -0.295 N 
HETATM   17  N   UNL     1     -41.245 -51.076  12.326  1.00  0.00    -0.265 N 
ATOM     18  HN  UNL     1     -42.418 -49.402  11.896  1.00  0.00     0.187 HD
HETATM   19  C   UNL     1     -42.413 -51.933  12.422  1.00  0.00     0.181 C 
HETATM   20  C   UNL     1     -40.007 -51.664  12.532  1.00  0.00     0.238 A 
HETATM   21  C   UNL     1     -38.788 -50.794  12.426  1.00  0.00     0.111 A 
HETATM   22  O   UNL     1     -39.870 -52.863  12.792  1.00  0.00    -0.272 OA
HETATM   23  C   UNL     1     -39.020 -49.342  12.115  1.00  0.00     0.073 A 
ENDBRANCH   1  15
TORSDOF 4
ENDMDL
MODEL 9
REMARK VINA RESULT:      -5.7      1.658      6.250
REMARK  4 active torsions:
REMARK  status: ('A' for Active; 'I' for Inactive)
REMARK    1  A    between atoms: C_5  and  C_10 
REMARK       I    between atoms: C_10  and  N_12 
REMARK    2  A    between atoms: N_12  and  C_13 
REMARK    3  A    between atoms: C_13  and  C_14 
REMARK    4  A    between atoms: C_14  and  C_15 
ROOT
HETATM    1  C   UNL     1     -40.741 -51.075  12.383  1.00  0.00     0.265 C 
HETATM    2  O   UNL     1     -39.688 -51.691  12.308  1.00  0.00    -0.266 OA
HETATM    3  N   UNL     1     -41.894 -51.582  12.938  1.00  0.00    -0.355 N 
HETATM    4  H   UNL     1     -42.715 -50.982  12.959  1.00  0.00     0.162 HD
ENDROOT
BRANCH   3   5
HETATM    5  C   UNL     1     -41.953 -52.958  13.405  1.00  0.00     0.131 C 
BRANCH   5   6
HETATM    6  C   UNL     1     -43.098 -53.756  12.781  1.00  0.00     0.106 C 
BRANCH   6   7
HETATM    7  C   UNL     1     -44.404 -53.150  13.128  1.00  0.00     0.149 A 
HETATM    8  N   UNL     1     -44.775 -52.532  14.226  1.00  0.00    -0.327 N 
HETATM    9  C   UNL     1     -46.071 -52.183  13.934  1.00  0.00     0.100 A 
ATOM     10  HN  UNL     1     -44.240 -52.357  15.077  1.00  0.00     0.169 HD
HETATM   11  C   UNL     1     -46.930 -51.446  14.878  1.00  0.00     0.091 C 
HETATM   12  N   UNL     1     -46.494 -52.554  12.719  1.00  0.00    -0.248 N 
HETATM   13  O   UNL     1     -45.382 -53.203  12.178  1.00  0.00    -0.223 OA
ATOM     14  HN  UNL     1     -47.407 -52.400  12.293  1.00  0.00     0.196 HD
ENDBRANCH   6   7
ENDBRANCH   5   6
ENDBRANCH   3   5
BRANCH   1  15
HETATM   15  C   UNL     1     -40.818 -49.651  11.830  1.00  0.00     0.094 A 
HETATM   16  N   UNL     1     -41.777 -49.329  11.019  1.00  0.00    -0.295 N 
HETATM   17  N   UNL     1     -41.826 -48.043  10.530  1.00  0.00    -0.265 N 
ATOM     18  HN  UNL     1     -42.481 -50.014  10.747  1.00  0.00     0.187 HD
HETATM   19  C   UNL     1     -42.920 -47.725   9.629  1.00  0.00     0.181 C 
HETATM   20  C   UNL     1     -40.930 -47.028  10.825  1.00  0.00     0.238 A 
HETATM   21  C   UNL     1     -39.800 -47.336  11.763  1.00  0.00     0.111 A 
HETATM   22  O   UNL     1     -41.027 -45.891  10.354  1.00  0.00    -0.272 OA
HETATM   23  C   UNL     1     -39.729 -48.739  12.297  1.00  0.00     0.073 A 
ENDBRANCH   1  15
TORSDOF 4
ENDMDL
