MODEL 1
REMARK VINA RESULT:      -5.8      0.000      0.000
REMARK  3 active torsions:
REMARK  status: ('A' for Active; 'I' for Inactive)
REMARK    1  A    between atoms: O_2  and  C_3 
REMARK    2  A    between atoms: C_6  and  N_7 
REMARK    3  A    between atoms: C_10  and  N_13 
ROOT
HETATM    1  C   UNL     1     -45.120 -46.804   9.017  1.00  0.00     0.239 A 
HETATM    2  N   UNL     1     -44.738 -47.646   8.071  1.00  0.00    -0.298 N 
ATOM      3  HN  UNL     1     -45.394 -48.143   7.468  1.00  0.00     0.172 HD
HETATM    4  C   UNL     1     -43.432 -47.781   7.980  1.00  0.00     0.172 A 
HETATM    5  N   UNL     1     -42.549 -47.128   8.712  1.00  0.00    -0.166 N 
ATOM      6  HN  UNL     1     -41.546 -47.277   8.598  1.00  0.00     0.187 HD
HETATM    7  C   UNL     1     -43.025 -46.266   9.605  1.00  0.00     0.685 A 
HETATM    8  N   UNL     1     -44.324 -46.073   9.796  1.00  0.00    -0.154 N 
ATOM      9  HN  UNL     1     -44.685 -45.415  10.487  1.00  0.00     0.188 HD
ENDROOT
BRANCH   7  10
HETATM   10  N   UNL     1     -42.113 -45.483  10.278  1.00  0.00    -0.213 N 
HETATM   11  C   UNL     1     -42.569 -44.420  11.172  1.00  0.00     0.167 C 
HETATM   12  C   UNL     1     -41.430 -43.390  11.317  1.00  0.00     0.188 C 
HETATM   13  O   UNL     1     -40.210 -44.005  11.771  1.00  0.00    -0.388 OA
HETATM   14  C   UNL     1     -39.789 -45.029  10.852  1.00  0.00     0.188 C 
HETATM   15  C   UNL     1     -40.859 -46.118  10.698  1.00  0.00     0.167 C 
ENDBRANCH   7  10
BRANCH   4  16
HETATM   16  N   UNL     1     -42.936 -48.622   7.001  1.00  0.00    -0.273 NA
HETATM   17  H   UNL     1     -42.097 -48.222   6.602  1.00  0.00     0.127 HD
HETATM   18  H   UNL     1     -42.861 -49.559   7.371  1.00  0.00     0.127 HD
ENDBRANCH   4  16
BRANCH   1  19
HETATM   19  O   UNL     1     -46.485 -46.642   9.122  1.00  0.00    -0.327 OA
HETATM   20  C   UNL     1     -47.170 -47.887   9.077  1.00  0.00     0.213 C 
ENDBRANCH   1  19
TORSDOF 3
ENDMDL
MODEL 2
REMARK VINA RESULT:      -5.6      7.879      8.486
REMARK  3 active torsions:
REMARK  status: ('A' for Active; 'I' for Inactive)
REMARK    1  A    between atoms: O_2  and  C_3 
REMARK    2  A    between atoms: C_6  and  N_7 
REMARK    3  A    between atoms: C_10  and  N_13 
ROOT
HETATM    1  C   UNL     1     -45.498 -54.032  14.371  1.00  0.00     0.239 A 
HETATM    2  N   UNL     1     -46.365 -53.516  13.515  1.00  0.00    -0.298 N 
ATOM      3  HN  UNL     1     -47.376 -53.565  13.646  1.00  0.00     0.172 HD
HETATM    4  C   UNL     1     -45.800 -52.933  12.478  1.00  0.00     0.172 A 
HETATM    5  N   UNL     1     -44.499 -52.813  12.291  1.00  0.00    -0.166 N 
ATOM      6  HN  UNL     1     -44.120 -52.352  11.464  1.00  0.00     0.187 HD
HETATM    7  C   UNL     1     -43.706 -53.320  13.229  1.00  0.00     0.685 A 
HETATM    8  N   UNL     1     -44.171 -53.951  14.299  1.00  0.00    -0.154 N 
ATOM      9  HN  UNL     1     -43.558 -54.344  15.014  1.00  0.00     0.188 HD
ENDROOT
BRANCH   7  10
HETATM   10  N   UNL     1     -42.354 -53.083  13.111  1.00  0.00    -0.213 N 
HETATM   11  C   UNL     1     -41.392 -54.165  13.321  1.00  0.00     0.167 C 
HETATM   12  C   UNL     1     -40.034 -53.537  13.691  1.00  0.00     0.188 C 
HETATM   13  O   UNL     1     -39.593 -52.595  12.695  1.00  0.00    -0.388 OA
HETATM   14  C   UNL     1     -40.558 -51.539  12.537  1.00  0.00     0.188 C 
HETATM   15  C   UNL     1     -41.927 -52.092  12.117  1.00  0.00     0.167 C 
ENDBRANCH   7  10
BRANCH   4  16
HETATM   16  N   UNL     1     -46.626 -52.341  11.541  1.00  0.00    -0.273 NA
HETATM   17  H   UNL     1     -47.239 -51.679  11.998  1.00  0.00     0.127 HD
HETATM   18  H   UNL     1     -46.067 -51.991  10.775  1.00  0.00     0.127 HD
ENDBRANCH   4  16
BRANCH   1  19
HETATM   19  O   UNL     1     -46.071 -54.639  15.468  1.00  0.00    -0.327 OA
HETATM   20  C   UNL     1     -45.809 -53.922  16.666  1.00  0.00     0.213 C 
ENDBRANCH   1  19
TORSDOF 3
ENDMDL
MODEL 3
REMARK VINA RESULT:      -5.6      2.166      3.159
REMARK  3 active torsions:
REMARK  status: ('A' for Active; 'I' for Inactive)
REMARK    1  A    between atoms: O_2  and  C_3 
REMARK    2  A    between atoms: C_6  and  N_7 
REMARK    3  A    between atoms: C_10  and  N_13 
ROOT
HETATM    1  C   UNL     1     -44.393 -47.429   8.803  1.00  0.00     0.239 A 
HETATM    2  N   UNL     1     -44.722 -46.148   8.801  1.00  0.00    -0.298 N 
ATOM      3  HN  UNL     1     -45.562 -45.788   8.346  1.00  0.00     0.172 HD
HETATM    4  C   UNL     1     -43.865 -45.381   9.442  1.00  0.00     0.172 A 
HETATM    5  N   UNL     1     -42.790 -45.810  10.077  1.00  0.00    -0.166 N 
ATOM      6  HN  UNL     1     -42.160 -45.166  10.554  1.00  0.00     0.187 HD
HETATM    7  C   UNL     1     -42.567 -47.121  10.065  1.00  0.00     0.685 A 
HETATM    8  N   UNL     1     -43.352 -47.978   9.428  1.00  0.00    -0.154 N 
ATOM      9  HN  UNL     1     -43.173 -48.982   9.416  1.00  0.00     0.188 HD
ENDROOT
BRANCH   7  10
HETATM   10  N   UNL     1     -41.525 -47.591  10.835  1.00  0.00    -0.213 N 
HETATM   11  C   UNL     1     -41.170 -49.009  10.811  1.00  0.00     0.167 C 
HETATM   12  C   UNL     1     -40.421 -49.341  12.116  1.00  0.00     0.188 C 
HETATM   13  O   UNL     1     -39.274 -48.490  12.304  1.00  0.00    -0.388 OA
HETATM   14  C   UNL     1     -39.673 -47.108  12.343  1.00  0.00     0.188 C 
HETATM   15  C   UNL     1     -40.384 -46.695  11.047  1.00  0.00     0.167 C 
ENDBRANCH   7  10
BRANCH   4  16
HETATM   16  N   UNL     1     -44.139 -44.028   9.515  1.00  0.00    -0.273 NA
HETATM   17  H   UNL     1     -45.140 -43.882   9.501  1.00  0.00     0.127 HD
HETATM   18  H   UNL     1     -43.632 -43.625  10.291  1.00  0.00     0.127 HD
ENDBRANCH   4  16
BRANCH   1  19
HETATM   19  O   UNL     1     -45.283 -48.250   8.144  1.00  0.00    -0.327 OA
HETATM   20  C   UNL     1     -46.550 -48.280   8.787  1.00  0.00     0.213 C 
ENDBRANCH   1  19
TORSDOF 3
ENDMDL
MODEL 4
REMARK VINA RESULT:      -5.3      3.568      5.209
REMARK  3 active torsions:
REMARK  status: ('A' for Active; 'I' for Inactive)
REMARK    1  A    between atoms: O_2  and  C_3 
REMARK    2  A    between atoms: C_6  and  N_7 
REMARK    3  A    between atoms: C_10  and  N_13 
ROOT
HETATM    1  C   UNL     1     -41.330 -46.126  10.212  1.00  0.00     0.239 A 
HETATM    2  N   UNL     1     -42.449 -46.301   9.529  1.00  0.00    -0.298 N 
ATOM      3  HN  UNL     1     -42.902 -45.557   8.999  1.00  0.00     0.172 HD
HETATM    4  C   UNL     1     -42.923 -47.528   9.598  1.00  0.00     0.172 A 
HETATM    5  N   UNL     1     -42.348 -48.529  10.238  1.00  0.00    -0.166 N 
ATOM      6  HN  UNL     1     -42.765 -49.459  10.258  1.00  0.00     0.187 HD
HETATM    7  C   UNL     1     -41.199 -48.268  10.856  1.00  0.00     0.685 A 
HETATM    8  N   UNL     1     -40.650 -47.062  10.871  1.00  0.00    -0.154 N 
ATOM      9  HN  UNL     1     -39.771 -46.865  11.352  1.00  0.00     0.188 HD
ENDROOT
BRANCH   7  10
HETATM   10  N   UNL     1     -40.525 -49.333  11.413  1.00  0.00    -0.213 N 
HETATM   11  C   UNL     1     -39.189 -49.149  11.976  1.00  0.00     0.167 C 
HETATM   12  C   UNL     1     -38.477 -50.516  11.986  1.00  0.00     0.188 C 
HETATM   13  O   UNL     1     -39.241 -51.510  12.696  1.00  0.00    -0.388 OA
HETATM   14  C   UNL     1     -40.538 -51.673  12.095  1.00  0.00     0.188 C 
HETATM   15  C   UNL     1     -41.325 -50.355  12.097  1.00  0.00     0.167 C 
ENDBRANCH   7  10
BRANCH   4  16
HETATM   16  N   UNL     1     -44.077 -47.815   8.894  1.00  0.00    -0.273 NA
HETATM   17  H   UNL     1     -44.043 -47.367   7.987  1.00  0.00     0.127 HD
HETATM   18  H   UNL     1     -44.236 -48.813   8.902  1.00  0.00     0.127 HD
ENDBRANCH   4  16
BRANCH   1  19
HETATM   19  O   UNL     1     -40.814 -44.850  10.145  1.00  0.00    -0.327 OA
HETATM   20  C   UNL     1     -39.401 -44.858   9.990  1.00  0.00     0.213 C 
ENDBRANCH   1  19
TORSDOF 3
ENDMDL
MODEL 5
REMARK VINA RESULT:      -5.3      4.007      5.179
REMARK  3 active torsions:
REMARK  status: ('A' for Active; 'I' for Inactive)
REMARK    1  A    between atoms: O_2  and  C_3 
REMARK    2  A    between atoms: C_6  and  N_7 
REMARK    3  A    between atoms: C_10  and  N_13 
ROOT
HETATM    1  C   UNL     1     -42.422 -47.669   9.943  1.00  0.00     0.239 A 
HETATM    2  N   UNL     1     -41.881 -46.463  10.005  1.00  0.00    -0.298 N 
ATOM      3  HN  UNL     1     -42.335 -45.628   9.633  1.00  0.00     0.172 HD
HETATM    4  C   UNL     1     -40.704 -46.442  10.593  1.00  0.00     0.172 A 
HETATM    5  N   UNL     1     -40.101 -47.490  11.123  1.00  0.00    -0.166 N 
ATOM      6  HN  UNL     1     -39.185 -47.413  11.564  1.00  0.00     0.187 HD
HETATM    7  C   UNL     1     -40.744 -48.653  11.055  1.00  0.00     0.685 A 
HETATM    8  N   UNL     1     -41.921 -48.789  10.461  1.00  0.00    -0.154 N 
ATOM      9  HN  UNL     1     -42.408 -49.684  10.406  1.00  0.00     0.188 HD
ENDROOT
BRANCH   7  10
HETATM   10  N   UNL     1     -40.186 -49.723  11.720  1.00  0.00    -0.213 N 
HETATM   11  C   UNL     1     -40.918 -50.984  11.836  1.00  0.00     0.167 C 
HETATM   12  C   UNL     1     -40.363 -51.753  13.050  1.00  0.00     0.188 C 
HETATM   13  O   UNL     1     -38.939 -51.951  12.951  1.00  0.00    -0.388 OA
HETATM   14  C   UNL     1     -38.261 -50.686  12.861  1.00  0.00     0.188 C 
HETATM   15  C   UNL     1     -38.731 -49.884  11.639  1.00  0.00     0.167 C 
ENDBRANCH   7  10
BRANCH   4  16
HETATM   16  N   UNL     1     -40.071 -45.220  10.729  1.00  0.00    -0.273 NA
HETATM   17  H   UNL     1     -39.162 -45.257  10.286  1.00  0.00     0.127 HD
HETATM   18  H   UNL     1     -40.695 -44.485  10.427  1.00  0.00     0.127 HD
ENDBRANCH   4  16
BRANCH   1  19
HETATM   19  O   UNL     1     -43.660 -47.710   9.337  1.00  0.00    -0.327 OA
HETATM   20  C   UNL     1     -43.555 -47.726   7.920  1.00  0.00     0.213 C 
ENDBRANCH   1  19
TORSDOF 3
ENDMDL
MODEL 6
REMARK VINA RESULT:      -5.2      4.370      5.221
REMARK  3 active torsions:
REMARK  status: ('A' for Active; 'I' for Inactive)
REMARK    1  A    between atoms: O_2  and  C_3 
REMARK    2  A    between atoms: C_6  and  N_7 
REMARK    3  A    between atoms: C_10  and  N_13 
ROOT
HETATM    1  C   UNL     1     -41.298 -50.961  11.857  1.00  0.00     0.239 A 
HETATM    2  N   UNL     1     -39.994 -51.179  11.789  1.00  0.00    -0.298 N 
ATOM      3  HN  UNL     1     -39.568 -52.083  11.995  1.00  0.00     0.172 HD
HETATM    4  C   UNL     1     -39.300 -50.120  11.431  1.00  0.00     0.172 A 
HETATM    5  N   UNL     1     -39.815 -48.945  11.117  1.00  0.00    -0.166 N 
ATOM      6  HN  UNL     1     -39.224 -48.158  10.849  1.00  0.00     0.187 HD
HETATM    7  C   UNL     1     -41.139 -48.835  11.167  1.00  0.00     0.685 A 
HETATM    8  N   UNL     1     -41.929 -49.832  11.542  1.00  0.00    -0.154 N 
ATOM      9  HN  UNL     1     -42.945 -49.740  11.585  1.00  0.00     0.188 HD
ENDROOT
BRANCH   7  10
HETATM   10  N   UNL     1     -41.693 -47.657  10.715  1.00  0.00    -0.213 N 
HETATM   11  C   UNL     1     -40.921 -46.416  10.750  1.00  0.00     0.167 C 
HETATM   12  C   UNL     1     -41.911 -45.233  10.747  1.00  0.00     0.188 C 
HETATM   13  O   UNL     1     -42.808 -45.291   9.623  1.00  0.00    -0.388 OA
HETATM   14  C   UNL     1     -43.560 -46.518   9.641  1.00  0.00     0.188 C 
HETATM   15  C   UNL     1     -42.635 -47.741   9.593  1.00  0.00     0.167 C 
ENDBRANCH   7  10
BRANCH   4  16
HETATM   16  N   UNL     1     -37.930 -50.257  11.307  1.00  0.00    -0.273 NA
HETATM   17  H   UNL     1     -37.475 -49.880  12.129  1.00  0.00     0.127 HD
HETATM   18  H   UNL     1     -37.710 -51.213  11.063  1.00  0.00     0.127 HD
ENDBRANCH   4  16
BRANCH   1  19
HETATM   19  O   UNL     1     -42.043 -52.061  12.223  1.00  0.00    -0.327 OA
HETATM   20  C   UNL     1     -41.425 -52.793  13.273  1.00  0.00     0.213 C 
ENDBRANCH   1  19
TORSDOF 3
ENDMDL
MODEL 7
REMARK VINA RESULT:      -5.2      4.990      5.322
REMARK  3 active torsions:
REMARK  status: ('A' for Active; 'I' for Inactive)
REMARK    1  A    between atoms: O_2  and  C_3 
REMARK    2  A    between atoms: C_6  and  N_7 
REMARK    3  A    between atoms: C_10  and  N_13 
ROOT
HETATM    1  C   UNL     1     -43.144 -51.649  12.776  1.00  0.00     0.239 A 
HETATM    2  N   UNL     1     -42.465 -52.717  12.390  1.00  0.00    -0.298 N 
ATOM      3  HN  UNL     1     -42.795 -53.671  12.535  1.00  0.00     0.172 HD
HETATM    4  C   UNL     1     -41.323 -52.431  11.800  1.00  0.00     0.172 A 
HETATM    5  N   UNL     1     -40.878 -51.212  11.558  1.00  0.00    -0.166 N 
ATOM      6  HN  UNL     1     -39.982 -51.053  11.099  1.00  0.00     0.187 HD
HETATM    7  C   UNL     1     -41.653 -50.201  11.940  1.00  0.00     0.685 A 
HETATM    8  N   UNL     1     -42.809 -50.378  12.565  1.00  0.00    -0.154 N 
ATOM      9  HN  UNL     1     -43.397 -49.598  12.862  1.00  0.00     0.188 HD
ENDROOT
BRANCH   7  10
HETATM   10  N   UNL     1     -41.262 -48.931  11.573  1.00  0.00    -0.213 N 
HETATM   11  C   UNL     1     -39.878 -48.500  11.763  1.00  0.00     0.167 C 
HETATM   12  C   UNL     1     -39.858 -46.960  11.823  1.00  0.00     0.188 C 
HETATM   13  O   UNL     1     -40.461 -46.372  10.654  1.00  0.00    -0.388 OA
HETATM   14  C   UNL     1     -41.825 -46.807  10.519  1.00  0.00     0.188 C 
HETATM   15  C   UNL     1     -41.916 -48.335  10.403  1.00  0.00     0.167 C 
ENDBRANCH   7  10
BRANCH   4  16
HETATM   16  N   UNL     1     -40.554 -53.482  11.338  1.00  0.00    -0.273 NA
HETATM   17  H   UNL     1     -40.949 -54.358  11.656  1.00  0.00     0.127 HD
HETATM   18  H   UNL     1     -40.413 -53.382  10.342  1.00  0.00     0.127 HD
ENDBRANCH   4  16
BRANCH   1  19
HETATM   19  O   UNL     1     -44.347 -51.928  13.389  1.00  0.00    -0.327 OA
HETATM   20  C   UNL     1     -45.137 -52.824  12.619  1.00  0.00     0.213 C 
ENDBRANCH   1  19
TORSDOF 3
ENDMDL
MODEL 8
REMARK VINA RESULT:      -5.2      6.461      8.057
REMARK  3 active torsions:
REMARK  status: ('A' for Active; 'I' for Inactive)
REMARK    1  A    between atoms: O_2  and  C_3 
REMARK    2  A    between atoms: C_6  and  N_7 
REMARK    3  A    between atoms: C_10  and  N_13 
ROOT
HETATM    1  C   UNL     1     -41.938 -50.428  12.165  1.00  0.00     0.239 A 
HETATM    2  N   UNL     1     -41.045 -51.307  11.737  1.00  0.00    -0.298 N 
ATOM      3  HN  UNL     1     -40.123 -51.042  11.392  1.00  0.00     0.172 HD
HETATM    4  C   UNL     1     -41.461 -52.555  11.801  1.00  0.00     0.172 A 
HETATM    5  N   UNL     1     -42.629 -52.942  12.277  1.00  0.00    -0.166 N 
ATOM      6  HN  UNL     1     -42.897 -53.926  12.297  1.00  0.00     0.187 HD
HETATM    7  C   UNL     1     -43.442 -51.991  12.729  1.00  0.00     0.685 A 
HETATM    8  N   UNL     1     -43.132 -50.702  12.687  1.00  0.00    -0.154 N 
ATOM      9  HN  UNL     1     -43.761 -49.976  13.029  1.00  0.00     0.188 HD
ENDROOT
BRANCH   7  10
HETATM   10  N   UNL     1     -44.604 -52.394  13.349  1.00  0.00    -0.213 N 
HETATM   11  C   UNL     1     -45.745 -51.484  13.445  1.00  0.00     0.167 C 
HETATM   12  C   UNL     1     -46.628 -51.942  14.623  1.00  0.00     0.188 C 
HETATM   13  O   UNL     1     -47.032 -53.317  14.484  1.00  0.00    -0.388 OA
HETATM   14  C   UNL     1     -45.880 -54.176  14.414  1.00  0.00     0.188 C 
HETATM   15  C   UNL     1     -44.978 -53.808  13.228  1.00  0.00     0.167 C 
ENDBRANCH   7  10
BRANCH   4  16
HETATM   16  N   UNL     1     -40.587 -53.547  11.399  1.00  0.00    -0.273 NA
HETATM   17  H   UNL     1     -40.951 -54.010  10.577  1.00  0.00     0.127 HD
HETATM   18  H   UNL     1     -39.654 -53.164  11.329  1.00  0.00     0.127 HD
ENDBRANCH   4  16
BRANCH   1  19
HETATM   19  O   UNL     1     -41.518 -49.116  12.115  1.00  0.00    -0.327 OA
HETATM   20  C   UNL     1     -40.320 -48.973  11.364  1.00  0.00     0.213 C 
ENDBRANCH   1  19
TORSDOF 3
ENDMDL
MODEL 9
REMARK VINA RESULT:      -5.1      7.204      7.785
REMARK  3 active torsions:
REMARK  status: ('A' for Active; 'I' for Inactive)
REMARK    1  A    between atoms: O_2  and  C_3 
REMARK    2  A    between atoms: C_6  and  N_7 
REMARK    3  A    between atoms: C_10  and  N_13 
ROOT
HETATM    1  C   UNL     1     -45.741 -51.520  14.552  1.00  0.00     0.239 A 
HETATM    2  N   UNL     1     -46.619 -51.643  13.570  1.00  0.00    -0.298 N 
ATOM      3  HN  UNL     1     -47.593 -51.351  13.653  1.00  0.00     0.172 HD
HETATM    4  C   UNL     1     -46.118 -52.179  12.477  1.00  0.00     0.172 A 
HETATM    5  N   UNL     1     -44.856 -52.534  12.316  1.00  0.00    -0.166 N 
ATOM      6  HN  UNL     1     -44.526 -52.948  11.445  1.00  0.00     0.187 HD
HETATM    7  C   UNL     1     -44.036 -52.326  13.342  1.00  0.00     0.685 A 
HETATM    8  N   UNL     1     -44.444 -51.818  14.497  1.00  0.00    -0.154 N 
ATOM      9  HN  UNL     1     -43.812 -51.667  15.284  1.00  0.00     0.188 HD
ENDROOT
BRANCH   7  10
HETATM   10  N   UNL     1     -42.695 -52.568  13.138  1.00  0.00    -0.213 N 
HETATM   11  C   UNL     1     -41.745 -51.458  13.071  1.00  0.00     0.167 C 
HETATM   12  C   UNL     1     -40.502 -51.934  12.295  1.00  0.00     0.188 C 
HETATM   13  O   UNL     1     -39.925 -53.116  12.884  1.00  0.00    -0.388 OA
HETATM   14  C   UNL     1     -40.887 -54.186  12.910  1.00  0.00     0.188 C 
HETATM   15  C   UNL     1     -42.135 -53.796  13.713  1.00  0.00     0.167 C 
ENDBRANCH   7  10
BRANCH   4  16
HETATM   16  N   UNL     1     -46.954 -52.325  11.387  1.00  0.00    -0.273 NA
HETATM   17  H   UNL     1     -47.902 -52.092  11.652  1.00  0.00     0.127 HD
HETATM   18  H   UNL     1     -46.567 -51.826  10.598  1.00  0.00     0.127 HD
ENDBRANCH   4  16
BRANCH   1  19
HETATM   19  O   UNL     1     -46.246 -50.953  15.703  1.00  0.00    -0.327 OA
HETATM   20  C   UNL     1     -47.452 -51.580  16.116  1.00  0.00     0.213 C 
ENDBRANCH   1  19
TORSDOF 3
ENDMDL
