MODEL 1
REMARK VINA RESULT:      -6.6      0.000      0.000
REMARK  6 active torsions:
REMARK  status: ('A' for Active; 'I' for Inactive)
REMARK    1  A    between atoms: C_1  and  C_3 
REMARK    2  A    between atoms: N_2  and  C_7 
REMARK    3  A    between atoms: C_4  and  C_7 
REMARK    4  A    between atoms: C_4  and  O_19 
REMARK    5  A    between atoms: C_8  and  O_9 
REMARK    6  A    between atoms: O_9  and  C_17 
ROOT
HETATM    1  N   UNL     1     -40.348 -51.191  13.579  1.00  0.00     0.091 N 
HETATM    2  C   UNL     1     -40.144 -53.655  13.978  1.00  0.00     0.062 C 
HETATM    3  C   UNL     1     -42.032 -52.748  12.563  1.00  0.00     0.062 C 
HETATM    4  C   UNL     1     -39.996 -52.239  14.568  1.00  0.00     0.275 C 
HETATM    5  C   UNL     1     -41.769 -51.360  13.184  1.00  0.00     0.275 C 
HETATM    6  C   UNL     1     -41.596 -53.873  13.507  1.00  0.00     0.132 C 
ENDROOT
BRANCH   6   7
HETATM    7  O   UNL     1     -42.447 -53.920  14.602  1.00  0.00    -0.346 OA
BRANCH   7   8
HETATM    8  C   UNL     1     -43.808 -53.877  14.568  1.00  0.00     0.070 A 
HETATM    9  C   UNL     1     -44.551 -52.733  14.936  1.00  0.00     0.052 A 
HETATM   10  C   UNL     1     -45.956 -52.753  14.924  1.00  0.00     0.050 A 
HETATM   11  C   UNL     1     -46.617 -53.924  14.524  1.00  0.00     0.016 A 
HETATM   12  C   UNL     1     -45.889 -55.054  14.146  1.00  0.00     0.004 A 
HETATM   13  C   UNL     1     -44.493 -55.030  14.171  1.00  0.00     0.037 A 
BRANCH  10  14
HETATM   14  C   UNL     1     -46.766 -51.550  15.342  1.00  0.00     0.417 C 
HETATM   15  F   UNL     1     -47.801 -51.893  16.196  1.00  0.00    -0.166 F 
HETATM   16  F   UNL     1     -47.309 -50.953  14.219  1.00  0.00    -0.166 F 
HETATM   17  F   UNL     1     -45.948 -50.641  15.987  1.00  0.00    -0.166 F 
ENDBRANCH  10  14
ENDBRANCH   7   8
ENDBRANCH   6   7
BRANCH   1  18
HETATM   18  C   UNL     1     -39.473 -51.103  12.373  1.00  0.00     0.311 C 
BRANCH  18  19
HETATM   19  C   UNL     1     -39.358 -49.721  11.684  1.00  0.00     0.112 C 
HETATM   20  C   UNL     1     -39.318 -48.522  12.633  1.00  0.00     0.071 C 
HETATM   21  C   UNL     1     -39.708 -47.373  11.700  1.00  0.00     0.272 C 
HETATM   22  N   UNL     1     -40.553 -47.950  10.644  1.00  0.00     0.086 N 
HETATM   23  C   UNL     1     -40.655 -49.375  10.949  1.00  0.00     0.308 C 
HETATM   24  H   UNL     1     -41.500 -47.506  10.596  1.00  0.00     0.315 HD
BRANCH  19  25
HETATM   25  O   UNL     1     -38.315 -49.711  10.729  1.00  0.00    -0.386 OA
HETATM   26  H   UNL     1     -38.684 -49.846   9.819  1.00  0.00     0.210 HD
ENDBRANCH  19  25
ENDBRANCH  18  19
ENDBRANCH   1  18
TORSDOF 6
ENDMDL
MODEL 2
REMARK VINA RESULT:      -6.5      2.445      3.501
REMARK  6 active torsions:
REMARK  status: ('A' for Active; 'I' for Inactive)
REMARK    1  A    between atoms: C_1  and  C_3 
REMARK    2  A    between atoms: N_2  and  C_7 
REMARK    3  A    between atoms: C_4  and  C_7 
REMARK    4  A    between atoms: C_4  and  O_19 
REMARK    5  A    between atoms: C_8  and  O_9 
REMARK    6  A    between atoms: O_9  and  C_17 
ROOT
HETATM    1  N   UNL     1     -41.426 -49.122  11.699  1.00  0.00     0.091 N 
HETATM    2  C   UNL     1     -41.443 -50.357  13.877  1.00  0.00     0.062 C 
HETATM    3  C   UNL     1     -39.553 -50.701  12.235  1.00  0.00     0.062 C 
HETATM    4  C   UNL     1     -42.275 -49.810  12.700  1.00  0.00     0.275 C 
HETATM    5  C   UNL     1     -40.455 -50.096  11.140  1.00  0.00     0.275 C 
HETATM    6  C   UNL     1     -40.384 -51.345  13.350  1.00  0.00     0.132 C 
ENDROOT
BRANCH   6   7
HETATM    7  O   UNL     1     -41.002 -52.490  12.870  1.00  0.00    -0.346 OA
BRANCH   7   8
HETATM    8  C   UNL     1     -41.740 -53.374  13.597  1.00  0.00     0.070 A 
HETATM    9  C   UNL     1     -43.121 -53.583  13.383  1.00  0.00     0.052 A 
HETATM   10  C   UNL     1     -43.847 -54.477  14.189  1.00  0.00     0.050 A 
HETATM   11  C   UNL     1     -43.178 -55.177  15.203  1.00  0.00     0.016 A 
HETATM   12  C   UNL     1     -41.810 -54.986  15.411  1.00  0.00     0.004 A 
HETATM   13  C   UNL     1     -41.097 -54.088  14.614  1.00  0.00     0.037 A 
BRANCH  10  14
HETATM   14  C   UNL     1     -45.329 -54.690  13.993  1.00  0.00     0.417 C 
HETATM   15  F   UNL     1     -45.622 -55.995  13.634  1.00  0.00    -0.166 F 
HETATM   16  F   UNL     1     -45.783 -53.850  12.992  1.00  0.00    -0.166 F 
HETATM   17  F   UNL     1     -45.999 -54.398  15.168  1.00  0.00    -0.166 F 
ENDBRANCH  10  14
ENDBRANCH   7   8
ENDBRANCH   6   7
BRANCH   1  18
HETATM   18  C   UNL     1     -40.725 -47.889  12.165  1.00  0.00     0.311 C 
BRANCH  18  19
HETATM   19  C   UNL     1     -41.096 -46.558  11.465  1.00  0.00     0.112 C 
HETATM   20  C   UNL     1     -41.165 -45.336  12.382  1.00  0.00     0.071 C 
HETATM   21  C   UNL     1     -42.006 -44.367  11.547  1.00  0.00     0.272 C 
HETATM   22  N   UNL     1     -42.876 -45.187  10.691  1.00  0.00     0.086 N 
HETATM   23  C   UNL     1     -42.558 -46.576  11.013  1.00  0.00     0.308 C 
HETATM   24  H   UNL     1     -43.893 -44.988  10.838  1.00  0.00     0.315 HD
BRANCH  19  25
HETATM   25  O   UNL     1     -40.301 -46.347  10.314  1.00  0.00    -0.386 OA
HETATM   26  H   UNL     1     -39.394 -46.046  10.577  1.00  0.00     0.210 HD
ENDBRANCH  19  25
ENDBRANCH  18  19
ENDBRANCH   1  18
TORSDOF 6
ENDMDL
MODEL 3
REMARK VINA RESULT:      -6.5      3.047      4.504
REMARK  6 active torsions:
REMARK  status: ('A' for Active; 'I' for Inactive)
REMARK    1  A    between atoms: C_1  and  C_3 
REMARK    2  A    between atoms: N_2  and  C_7 
REMARK    3  A    between atoms: C_4  and  C_7 
REMARK    4  A    between atoms: C_4  and  O_19 
REMARK    5  A    between atoms: C_8  and  O_9 
REMARK    6  A    between atoms: O_9  and  C_17 
ROOT
HETATM    1  N   UNL     1     -41.394 -46.333  12.264  1.00  0.00     0.091 N 
HETATM    2  C   UNL     1     -40.054 -48.447  12.324  1.00  0.00     0.062 C 
HETATM    3  C   UNL     1     -42.243 -48.365  11.064  1.00  0.00     0.062 C 
HETATM    4  C   UNL     1     -40.531 -47.202  13.098  1.00  0.00     0.275 C 
HETATM    5  C   UNL     1     -42.604 -47.096  11.864  1.00  0.00     0.275 C 
HETATM    6  C   UNL     1     -41.272 -49.259  11.843  1.00  0.00     0.132 C 
ENDROOT
BRANCH   6   7
HETATM    7  O   UNL     1     -41.925 -49.822  12.930  1.00  0.00    -0.346 OA
BRANCH   7   8
HETATM    8  C   UNL     1     -42.803 -50.862  12.893  1.00  0.00     0.070 A 
HETATM    9  C   UNL     1     -44.161 -50.736  13.263  1.00  0.00     0.052 A 
HETATM   10  C   UNL     1     -45.017 -51.851  13.248  1.00  0.00     0.050 A 
HETATM   11  C   UNL     1     -44.510 -53.094  12.843  1.00  0.00     0.016 A 
HETATM   12  C   UNL     1     -43.173 -53.223  12.462  1.00  0.00     0.004 A 
HETATM   13  C   UNL     1     -42.325 -52.113  12.490  1.00  0.00     0.037 A 
BRANCH  10  14
HETATM   14  C   UNL     1     -46.463 -51.741  13.668  1.00  0.00     0.417 C 
HETATM   15  F   UNL     1     -46.618 -50.936  14.785  1.00  0.00    -0.166 F 
HETATM   16  F   UNL     1     -46.948 -53.000  13.969  1.00  0.00    -0.166 F 
HETATM   17  F   UNL     1     -47.208 -51.204  12.634  1.00  0.00    -0.166 F 
ENDBRANCH  10  14
ENDBRANCH   7   8
ENDBRANCH   6   7
BRANCH   1  18
HETATM   18  C   UNL     1     -40.747 -45.710  11.071  1.00  0.00     0.311 C 
BRANCH  18  19
HETATM   19  C   UNL     1     -40.561 -44.172  11.092  1.00  0.00     0.112 C 
HETATM   20  C   UNL     1     -39.855 -43.619  12.331  1.00  0.00     0.071 C 
HETATM   21  C   UNL     1     -40.271 -42.145  12.293  1.00  0.00     0.272 C 
HETATM   22  N   UNL     1     -41.574 -42.088  11.615  1.00  0.00     0.086 N 
HETATM   23  C   UNL     1     -41.908 -43.469  11.274  1.00  0.00     0.308 C 
HETATM   24  H   UNL     1     -42.321 -41.655  12.208  1.00  0.00     0.315 HD
BRANCH  19  25
HETATM   25  O   UNL     1     -40.001 -43.709   9.879  1.00  0.00    -0.386 OA
HETATM   26  H   UNL     1     -39.919 -42.721   9.896  1.00  0.00     0.210 HD
ENDBRANCH  19  25
ENDBRANCH  18  19
ENDBRANCH   1  18
TORSDOF 6
ENDMDL
MODEL 4
REMARK VINA RESULT:      -6.4      3.578      7.441
REMARK  6 active torsions:
REMARK  status: ('A' for Active; 'I' for Inactive)
REMARK    1  A    between atoms: C_1  and  C_3 
REMARK    2  A    between atoms: N_2  and  C_7 
REMARK    3  A    between atoms: C_4  and  C_7 
REMARK    4  A    between atoms: C_4  and  O_19 
REMARK    5  A    between atoms: C_8  and  O_9 
REMARK    6  A    between atoms: O_9  and  C_17 
ROOT
HETATM    1  N   UNL     1     -42.367 -52.587  12.696  1.00  0.00     0.091 N 
HETATM    2  C   UNL     1     -40.053 -51.628  12.723  1.00  0.00     0.062 C 
HETATM    3  C   UNL     1     -42.031 -50.194  13.371  1.00  0.00     0.062 C 
HETATM    4  C   UNL     1     -41.051 -52.565  12.012  1.00  0.00     0.275 C 
HETATM    5  C   UNL     1     -42.946 -51.219  12.670  1.00  0.00     0.275 C 
HETATM    6  C   UNL     1     -40.623 -50.197  12.766  1.00  0.00     0.132 C 
ENDROOT
BRANCH   6   7
HETATM    7  O   UNL     1     -40.665 -49.665  11.486  1.00  0.00    -0.346 OA
BRANCH   7   8
HETATM    8  C   UNL     1     -40.914 -48.366  11.159  1.00  0.00     0.070 A 
HETATM    9  C   UNL     1     -42.059 -47.960  10.438  1.00  0.00     0.052 A 
HETATM   10  C   UNL     1     -42.249 -46.611  10.089  1.00  0.00     0.050 A 
HETATM   11  C   UNL     1     -41.292 -45.665  10.482  1.00  0.00     0.016 A 
HETATM   12  C   UNL     1     -40.165 -46.057  11.208  1.00  0.00     0.004 A 
HETATM   13  C   UNL     1     -39.977 -47.400  11.541  1.00  0.00     0.037 A 
BRANCH  10  14
HETATM   14  C   UNL     1     -43.451 -46.164   9.293  1.00  0.00     0.417 C 
HETATM   15  F   UNL     1     -43.241 -46.277   7.929  1.00  0.00    -0.166 F 
HETATM   16  F   UNL     1     -43.724 -44.840   9.584  1.00  0.00    -0.166 F 
HETATM   17  F   UNL     1     -44.546 -46.937   9.633  1.00  0.00    -0.166 F 
ENDBRANCH  10  14
ENDBRANCH   7   8
ENDBRANCH   6   7
BRANCH   1  18
HETATM   18  C   UNL     1     -42.379 -53.138  14.083  1.00  0.00     0.311 C 
BRANCH  18  19
HETATM   19  C   UNL     1     -43.531 -54.108  14.446  1.00  0.00     0.112 C 
HETATM   20  C   UNL     1     -44.475 -54.456  13.295  1.00  0.00     0.071 C 
HETATM   21  C   UNL     1     -45.707 -54.967  14.047  1.00  0.00     0.272 C 
HETATM   22  N   UNL     1     -45.719 -54.292  15.353  1.00  0.00     0.086 N 
HETATM   23  C   UNL     1     -44.545 -53.421  15.363  1.00  0.00     0.308 C 
HETATM   24  H   UNL     1     -46.596 -53.745  15.519  1.00  0.00     0.315 HD
BRANCH  19  25
HETATM   25  O   UNL     1     -43.043 -55.246  15.131  1.00  0.00    -0.386 OA
HETATM   26  H   UNL     1     -42.154 -55.502  14.777  1.00  0.00     0.210 HD
ENDBRANCH  19  25
ENDBRANCH  18  19
ENDBRANCH   1  18
TORSDOF 6
ENDMDL
MODEL 5
REMARK VINA RESULT:      -6.3      4.163      7.839
REMARK  6 active torsions:
REMARK  status: ('A' for Active; 'I' for Inactive)
REMARK    1  A    between atoms: C_1  and  C_3 
REMARK    2  A    between atoms: N_2  and  C_7 
REMARK    3  A    between atoms: C_4  and  C_7 
REMARK    4  A    between atoms: C_4  and  O_19 
REMARK    5  A    between atoms: C_8  and  O_9 
REMARK    6  A    between atoms: O_9  and  C_17 
ROOT
HETATM    1  N   UNL     1     -42.495 -52.008  12.365  1.00  0.00     0.091 N 
HETATM    2  C   UNL     1     -40.142 -51.958  13.219  1.00  0.00     0.062 C 
HETATM    3  C   UNL     1     -41.775 -50.148  13.887  1.00  0.00     0.062 C 
HETATM    4  C   UNL     1     -41.075 -52.267  12.031  1.00  0.00     0.275 C 
HETATM    5  C   UNL     1     -42.658 -50.568  12.694  1.00  0.00     0.275 C 
HETATM    6  C   UNL     1     -40.300 -50.482  13.634  1.00  0.00     0.132 C 
ENDROOT
BRANCH   6   7
HETATM    7  O   UNL     1     -39.797 -49.654  12.642  1.00  0.00    -0.346 OA
BRANCH   7   8
HETATM    8  C   UNL     1     -39.687 -48.298  12.703  1.00  0.00     0.070 A 
HETATM    9  C   UNL     1     -40.012 -47.450  11.620  1.00  0.00     0.052 A 
HETATM   10  C   UNL     1     -39.841 -46.059  11.718  1.00  0.00     0.050 A 
HETATM   11  C   UNL     1     -39.356 -45.515  12.917  1.00  0.00     0.016 A 
HETATM   12  C   UNL     1     -39.046 -46.346  13.996  1.00  0.00     0.004 A 
HETATM   13  C   UNL     1     -39.208 -47.729  13.887  1.00  0.00     0.037 A 
BRANCH  10  14
HETATM   14  C   UNL     1     -40.156 -45.141  10.562  1.00  0.00     0.417 C 
HETATM   15  F   UNL     1     -39.130 -45.109   9.632  1.00  0.00    -0.166 F 
HETATM   16  F   UNL     1     -40.353 -43.858  11.037  1.00  0.00    -0.166 F 
HETATM   17  F   UNL     1     -41.308 -45.571   9.929  1.00  0.00    -0.166 F 
ENDBRANCH  10  14
ENDBRANCH   7   8
ENDBRANCH   6   7
BRANCH   1  18
HETATM   18  C   UNL     1     -43.087 -52.862  13.437  1.00  0.00     0.311 C 
BRANCH  18  19
HETATM   19  C   UNL     1     -44.612 -53.122  13.371  1.00  0.00     0.112 C 
HETATM   20  C   UNL     1     -45.449 -52.346  14.390  1.00  0.00     0.071 C 
HETATM   21  C   UNL     1     -46.745 -53.160  14.413  1.00  0.00     0.272 C 
HETATM   22  N   UNL     1     -46.386 -54.543  14.064  1.00  0.00     0.086 N 
HETATM   23  C   UNL     1     -44.940 -54.537  13.849  1.00  0.00     0.308 C 
HETATM   24  H   UNL     1     -46.654 -55.231  14.806  1.00  0.00     0.315 HD
BRANCH  19  25
HETATM   25  O   UNL     1     -45.094 -53.000  12.047  1.00  0.00    -0.386 OA
HETATM   26  H   UNL     1     -44.353 -53.123  11.401  1.00  0.00     0.210 HD
ENDBRANCH  19  25
ENDBRANCH  18  19
ENDBRANCH   1  18
TORSDOF 6
ENDMDL
MODEL 6
REMARK VINA RESULT:      -6.3      2.305      3.467
REMARK  6 active torsions:
REMARK  status: ('A' for Active; 'I' for Inactive)
REMARK    1  A    between atoms: C_1  and  C_3 
REMARK    2  A    between atoms: N_2  and  C_7 
REMARK    3  A    between atoms: C_4  and  C_7 
REMARK    4  A    between atoms: C_4  and  O_19 
REMARK    5  A    between atoms: C_8  and  O_9 
REMARK    6  A    between atoms: O_9  and  C_17 
ROOT
HETATM    1  N   UNL     1     -41.239 -48.231  10.895  1.00  0.00     0.091 N 
HETATM    2  C   UNL     1     -42.390 -48.966  12.994  1.00  0.00     0.062 C 
HETATM    3  C   UNL     1     -40.202 -50.027  12.306  1.00  0.00     0.062 C 
HETATM    4  C   UNL     1     -42.549 -48.507  11.531  1.00  0.00     0.275 C 
HETATM    5  C   UNL     1     -40.437 -49.482  10.883  1.00  0.00     0.275 C 
HETATM    6  C   UNL     1     -41.526 -50.241  13.048  1.00  0.00     0.132 C 
ENDROOT
BRANCH   6   7
HETATM    7  O   UNL     1     -42.213 -51.303  12.480  1.00  0.00    -0.346 OA
BRANCH   7   8
HETATM    8  C   UNL     1     -43.163 -52.067  13.088  1.00  0.00     0.070 A 
HETATM    9  C   UNL     1     -44.411 -51.554  13.506  1.00  0.00     0.052 A 
HETATM   10  C   UNL     1     -45.342 -52.374  14.167  1.00  0.00     0.050 A 
HETATM   11  C   UNL     1     -45.023 -53.721  14.393  1.00  0.00     0.016 A 
HETATM   12  C   UNL     1     -43.797 -54.239  13.969  1.00  0.00     0.004 A 
HETATM   13  C   UNL     1     -42.872 -53.415  13.323  1.00  0.00     0.037 A 
BRANCH  10  14
HETATM   14  C   UNL     1     -46.668 -51.835  14.647  1.00  0.00     0.417 C 
HETATM   15  F   UNL     1     -47.542 -52.849  15.001  1.00  0.00    -0.166 F 
HETATM   16  F   UNL     1     -47.250 -51.090  13.637  1.00  0.00    -0.166 F 
HETATM   17  F   UNL     1     -46.467 -51.024  15.749  1.00  0.00    -0.166 F 
ENDBRANCH  10  14
ENDBRANCH   7   8
ENDBRANCH   6   7
BRANCH   1  18
HETATM   18  C   UNL     1     -40.449 -47.105  11.475  1.00  0.00     0.311 C 
BRANCH  18  19
HETATM   19  C   UNL     1     -40.801 -45.676  10.994  1.00  0.00     0.112 C 
HETATM   20  C   UNL     1     -39.700 -44.632  11.194  1.00  0.00     0.071 C 
HETATM   21  C   UNL     1     -40.493 -43.325  11.112  1.00  0.00     0.272 C 
HETATM   22  N   UNL     1     -41.860 -43.626  11.563  1.00  0.00     0.086 N 
HETATM   23  C   UNL     1     -41.865 -45.049  11.897  1.00  0.00     0.308 C 
HETATM   24  H   UNL     1     -42.154 -43.046  12.383  1.00  0.00     0.315 HD
BRANCH  19  25
HETATM   25  O   UNL     1     -41.318 -45.693   9.677  1.00  0.00    -0.386 OA
HETATM   26  H   UNL     1     -41.432 -44.767   9.343  1.00  0.00     0.210 HD
ENDBRANCH  19  25
ENDBRANCH  18  19
ENDBRANCH   1  18
TORSDOF 6
ENDMDL
MODEL 7
REMARK VINA RESULT:      -6.2      5.120      6.804
REMARK  6 active torsions:
REMARK  status: ('A' for Active; 'I' for Inactive)
REMARK    1  A    between atoms: C_1  and  C_3 
REMARK    2  A    between atoms: N_2  and  C_7 
REMARK    3  A    between atoms: C_4  and  C_7 
REMARK    4  A    between atoms: C_4  and  O_19 
REMARK    5  A    between atoms: C_8  and  O_9 
REMARK    6  A    between atoms: O_9  and  C_17 
ROOT
HETATM    1  N   UNL     1     -39.296 -47.967  13.057  1.00  0.00     0.091 N 
HETATM    2  C   UNL     1     -41.794 -47.984  12.879  1.00  0.00     0.062 C 
HETATM    3  C   UNL     1     -40.405 -49.517  11.426  1.00  0.00     0.062 C 
HETATM    4  C   UNL     1     -40.523 -47.134  13.081  1.00  0.00     0.275 C 
HETATM    5  C   UNL     1     -39.185 -48.623  11.730  1.00  0.00     0.275 C 
HETATM    6  C   UNL     1     -41.715 -48.727  11.531  1.00  0.00     0.132 C 
ENDROOT
BRANCH   6   7
HETATM    7  O   UNL     1     -41.798 -47.820  10.485  1.00  0.00    -0.346 OA
BRANCH   7   8
HETATM    8  C   UNL     1     -42.938 -47.263   9.989  1.00  0.00     0.070 A 
HETATM    9  C   UNL     1     -44.117 -48.004   9.752  1.00  0.00     0.052 A 
HETATM   10  C   UNL     1     -45.254 -47.390   9.200  1.00  0.00     0.050 A 
HETATM   11  C   UNL     1     -45.211 -46.020   8.901  1.00  0.00     0.016 A 
HETATM   12  C   UNL     1     -44.054 -45.278   9.146  1.00  0.00     0.004 A 
HETATM   13  C   UNL     1     -42.924 -45.898   9.685  1.00  0.00     0.037 A 
BRANCH  10  14
HETATM   14  C   UNL     1     -46.513 -48.173   8.912  1.00  0.00     0.417 C 
HETATM   15  F   UNL     1     -47.646 -47.383   9.002  1.00  0.00    -0.166 F 
HETATM   16  F   UNL     1     -46.627 -49.204   9.827  1.00  0.00    -0.166 F 
HETATM   17  F   UNL     1     -46.447 -48.704   7.637  1.00  0.00    -0.166 F 
ENDBRANCH  10  14
ENDBRANCH   7   8
ENDBRANCH   6   7
BRANCH   1  18
HETATM   18  C   UNL     1     -39.159 -48.970  14.154  1.00  0.00     0.311 C 
BRANCH  18  19
HETATM   19  C   UNL     1     -38.236 -48.597  15.340  1.00  0.00     0.112 C 
HETATM   20  C   UNL     1     -36.981 -47.807  14.965  1.00  0.00     0.071 C 
HETATM   21  C   UNL     1     -36.090 -48.039  16.188  1.00  0.00     0.272 C 
HETATM   22  N   UNL     1     -36.480 -49.337  16.759  1.00  0.00     0.086 N 
HETATM   23  C   UNL     1     -37.551 -49.844  15.904  1.00  0.00     0.308 C 
HETATM   24  H   UNL     1     -35.683 -50.014  16.806  1.00  0.00     0.315 HD
BRANCH  19  25
HETATM   25  O   UNL     1     -38.972 -48.005  16.394  1.00  0.00    -0.386 OA
HETATM   26  H   UNL     1     -38.977 -48.603  17.184  1.00  0.00     0.210 HD
ENDBRANCH  19  25
ENDBRANCH  18  19
ENDBRANCH   1  18
TORSDOF 6
ENDMDL
MODEL 8
REMARK VINA RESULT:      -6.2      2.793      4.593
REMARK  6 active torsions:
REMARK  status: ('A' for Active; 'I' for Inactive)
REMARK    1  A    between atoms: C_1  and  C_3 
REMARK    2  A    between atoms: N_2  and  C_7 
REMARK    3  A    between atoms: C_4  and  C_7 
REMARK    4  A    between atoms: C_4  and  O_19 
REMARK    5  A    between atoms: C_8  and  O_9 
REMARK    6  A    between atoms: O_9  and  C_17 
ROOT
HETATM    1  N   UNL     1     -40.743 -47.352  12.157  1.00  0.00     0.091 N 
HETATM    2  C   UNL     1     -38.811 -48.716  12.980  1.00  0.00     0.062 C 
HETATM    3  C   UNL     1     -40.483 -49.721  11.373  1.00  0.00     0.062 C 
HETATM    4  C   UNL     1     -39.878 -47.656  13.322  1.00  0.00     0.275 C 
HETATM    5  C   UNL     1     -41.460 -48.589  11.753  1.00  0.00     0.275 C 
HETATM    6  C   UNL     1     -39.498 -50.013  12.510  1.00  0.00     0.132 C 
ENDROOT
BRANCH   6   7
HETATM    7  O   UNL     1     -40.170 -50.604  13.570  1.00  0.00    -0.346 OA
BRANCH   7   8
HETATM    8  C   UNL     1     -40.583 -51.900  13.642  1.00  0.00     0.070 A 
HETATM    9  C   UNL     1     -41.941 -52.281  13.549  1.00  0.00     0.052 A 
HETATM   10  C   UNL     1     -42.320 -53.629  13.671  1.00  0.00     0.050 A 
HETATM   11  C   UNL     1     -41.327 -54.600  13.871  1.00  0.00     0.016 A 
HETATM   12  C   UNL     1     -39.983 -54.232  13.949  1.00  0.00     0.004 A 
HETATM   13  C   UNL     1     -39.614 -52.889  13.838  1.00  0.00     0.037 A 
BRANCH  10  14
HETATM   14  C   UNL     1     -43.768 -54.051  13.603  1.00  0.00     0.417 C 
HETATM   15  F   UNL     1     -44.191 -54.243  12.299  1.00  0.00    -0.166 F 
HETATM   16  F   UNL     1     -44.556 -53.070  14.177  1.00  0.00    -0.166 F 
HETATM   17  F   UNL     1     -43.939 -55.234  14.299  1.00  0.00    -0.166 F 
ENDBRANCH  10  14
ENDBRANCH   7   8
ENDBRANCH   6   7
BRANCH   1  18
HETATM   18  C   UNL     1     -40.070 -46.727  10.981  1.00  0.00     0.311 C 
BRANCH  18  19
HETATM   19  C   UNL     1     -40.307 -45.213  10.755  1.00  0.00     0.112 C 
HETATM   20  C   UNL     1     -39.649 -44.291  11.783  1.00  0.00     0.071 C 
HETATM   21  C   UNL     1     -40.450 -42.999  11.599  1.00  0.00     0.272 C 
HETATM   22  N   UNL     1     -41.785 -43.389  11.123  1.00  0.00     0.086 N 
HETATM   23  C   UNL     1     -41.766 -44.848  11.035  1.00  0.00     0.308 C 
HETATM   24  H   UNL     1     -42.552 -43.059  11.754  1.00  0.00     0.315 HD
BRANCH  19  25
HETATM   25  O   UNL     1     -40.027 -44.846   9.418  1.00  0.00    -0.386 OA
HETATM   26  H   UNL     1     -40.059 -45.644   8.831  1.00  0.00     0.210 HD
ENDBRANCH  19  25
ENDBRANCH  18  19
ENDBRANCH   1  18
TORSDOF 6
ENDMDL
MODEL 9
REMARK VINA RESULT:      -6.1      3.213      4.431
REMARK  6 active torsions:
REMARK  status: ('A' for Active; 'I' for Inactive)
REMARK    1  A    between atoms: C_1  and  C_3 
REMARK    2  A    between atoms: N_2  and  C_7 
REMARK    3  A    between atoms: C_4  and  C_7 
REMARK    4  A    between atoms: C_4  and  O_19 
REMARK    5  A    between atoms: C_8  and  O_9 
REMARK    6  A    between atoms: O_9  and  C_17 
ROOT
HETATM    1  N   UNL     1     -41.415 -48.341  10.956  1.00  0.00     0.091 N 
HETATM    2  C   UNL     1     -42.589 -49.189  12.999  1.00  0.00     0.062 C 
HETATM    3  C   UNL     1     -40.351 -50.152  12.327  1.00  0.00     0.062 C 
HETATM    4  C   UNL     1     -42.730 -48.682  11.550  1.00  0.00     0.275 C 
HETATM    5  C   UNL     1     -40.571 -49.563  10.918  1.00  0.00     0.275 C 
HETATM    6  C   UNL     1     -41.684 -50.436  13.028  1.00  0.00     0.132 C 
ENDROOT
BRANCH   6   7
HETATM    7  O   UNL     1     -42.322 -51.499  12.406  1.00  0.00    -0.346 OA
BRANCH   7   8
HETATM    8  C   UNL     1     -42.859 -52.589  13.020  1.00  0.00     0.070 A 
HETATM    9  C   UNL     1     -42.221 -53.265  14.084  1.00  0.00     0.052 A 
HETATM   10  C   UNL     1     -42.798 -54.412  14.657  1.00  0.00     0.050 A 
HETATM   11  C   UNL     1     -44.031 -54.871  14.170  1.00  0.00     0.016 A 
HETATM   12  C   UNL     1     -44.674 -54.199  13.128  1.00  0.00     0.004 A 
HETATM   13  C   UNL     1     -44.089 -53.067  12.555  1.00  0.00     0.037 A 
BRANCH  10  14
HETATM   14  C   UNL     1     -42.116 -55.164  15.775  1.00  0.00     0.417 C 
HETATM   15  F   UNL     1     -40.745 -55.235  15.590  1.00  0.00    -0.166 F 
HETATM   16  F   UNL     1     -42.615 -56.452  15.829  1.00  0.00    -0.166 F 
HETATM   17  F   UNL     1     -42.364 -54.531  16.979  1.00  0.00    -0.166 F 
ENDBRANCH  10  14
ENDBRANCH   7   8
ENDBRANCH   6   7
BRANCH   1  18
HETATM   18  C   UNL     1     -40.676 -47.211  11.595  1.00  0.00     0.311 C 
BRANCH  18  19
HETATM   19  C   UNL     1     -40.913 -45.796  11.014  1.00  0.00     0.112 C 
HETATM   20  C   UNL     1     -39.758 -44.812  11.205  1.00  0.00     0.071 C 
HETATM   21  C   UNL     1     -40.460 -43.465  11.008  1.00  0.00     0.272 C 
HETATM   22  N   UNL     1     -41.862 -43.653  11.409  1.00  0.00     0.086 N 
HETATM   23  C   UNL     1     -41.974 -45.049  11.826  1.00  0.00     0.308 C 
HETATM   24  H   UNL     1     -42.153 -43.006  12.179  1.00  0.00     0.315 HD
BRANCH  19  25
HETATM   25  O   UNL     1     -41.373 -45.862   9.678  1.00  0.00    -0.386 OA
HETATM   26  H   UNL     1     -41.307 -44.971   9.249  1.00  0.00     0.210 HD
ENDBRANCH  19  25
ENDBRANCH  18  19
ENDBRANCH   1  18
TORSDOF 6
ENDMDL
