MODEL 1
REMARK VINA RESULT:      -6.4      0.000      0.000
REMARK  4 active torsions:
REMARK  status: ('A' for Active; 'I' for Inactive)
REMARK    1  A    between atoms: C_2  and  C_3 
REMARK    2  A    between atoms: C_2  and  N_10 
REMARK    3  A    between atoms: C_3  and  N_4 
REMARK       I    between atoms: N_10  and  C_11 
REMARK       I    between atoms: C_11  and  N_13 
REMARK    4  A    between atoms: N_13  and  C_14 
ROOT
HETATM    1  N   UNL     1     -41.322 -47.859  10.264  1.00  0.00    -0.337 N 
HETATM    2  C   UNL     1     -41.627 -48.934  11.087  1.00  0.00     0.322 C 
HETATM    3  O   UNL     1     -42.592 -48.911  11.836  1.00  0.00    -0.247 OA
HETATM    4  N   UNL     1     -40.761 -49.972  10.888  1.00  0.00    -0.288 N 
HETATM    5  H   UNL     1     -40.351 -47.756  10.000  1.00  0.00     0.164 HD
HETATM    6  H   UNL     1     -40.290 -50.031   9.998  1.00  0.00     0.172 HD
ENDROOT
BRANCH   1   7
HETATM    7  C   UNL     1     -42.134 -46.643  10.319  1.00  0.00     0.100 C 
HETATM    8  C   UNL     1     -41.275 -45.419  10.596  1.00  0.00     0.034 C 
BRANCH   7   9
HETATM    9  C   UNL     1     -43.025 -46.465   9.071  1.00  0.00     0.150 C 
BRANCH   9  10
HETATM   10  N   UNL     1     -44.130 -47.411   8.923  1.00  0.00    -0.350 N 
HETATM   11  C   UNL     1     -45.374 -47.230   9.628  1.00  0.00     0.126 C 
HETATM   12  C   UNL     1     -46.358 -48.171   8.955  1.00  0.00     0.029 C 
HETATM   13  C   UNL     1     -45.726 -48.543   7.623  1.00  0.00     0.104 C 
HETATM   14  C   UNL     1     -44.275 -48.172   7.773  1.00  0.00     0.219 C 
HETATM   15  O   UNL     1     -43.402 -48.435   6.962  1.00  0.00    -0.273 OA
ENDBRANCH   9  10
ENDBRANCH   7   9
ENDBRANCH   1   7
BRANCH   4  16
HETATM   16  C   UNL     1     -40.787 -51.157  11.583  1.00  0.00     0.168 A 
HETATM   17  N   UNL     1     -41.470 -52.206  11.179  1.00  0.00    -0.279 N 
HETATM   18  N   UNL     1     -41.345 -53.275  12.047  1.00  0.00    -0.303 N 
ATOM     19  HN  UNL     1     -42.027 -52.227  10.325  1.00  0.00     0.189 HD
HETATM   20  C   UNL     1     -40.532 -52.994  13.044  1.00  0.00     0.160 A 
ATOM     21  HN  UNL     1     -41.822 -54.170  11.930  1.00  0.00     0.186 HD
HETATM   22  S   UNL     1     -39.857 -51.423  12.991  1.00  0.00    -0.046 SA
ENDBRANCH   4  16
TORSDOF 4
ENDMDL
MODEL 2
REMARK VINA RESULT:      -6.1      4.447      6.535
REMARK  4 active torsions:
REMARK  status: ('A' for Active; 'I' for Inactive)
REMARK    1  A    between atoms: C_2  and  C_3 
REMARK    2  A    between atoms: C_2  and  N_10 
REMARK    3  A    between atoms: C_3  and  N_4 
REMARK       I    between atoms: N_10  and  C_11 
REMARK       I    between atoms: C_11  and  N_13 
REMARK    4  A    between atoms: N_13  and  C_14 
ROOT
HETATM    1  N   UNL     1     -43.276 -53.057  13.787  1.00  0.00    -0.337 N 
HETATM    2  C   UNL     1     -42.149 -52.673  13.074  1.00  0.00     0.322 C 
HETATM    3  O   UNL     1     -41.413 -53.496  12.550  1.00  0.00    -0.247 OA
HETATM    4  N   UNL     1     -42.042 -51.312  13.012  1.00  0.00    -0.288 N 
HETATM    5  H   UNL     1     -43.590 -52.422  14.508  1.00  0.00     0.164 HD
HETATM    6  H   UNL     1     -42.884 -50.767  13.115  1.00  0.00     0.172 HD
ENDROOT
BRANCH   1   7
HETATM    7  C   UNL     1     -43.577 -54.478  13.969  1.00  0.00     0.100 C 
HETATM    8  C   UNL     1     -43.014 -54.997  15.283  1.00  0.00     0.034 C 
BRANCH   7   9
HETATM    9  C   UNL     1     -45.080 -54.793  13.808  1.00  0.00     0.150 C 
BRANCH   9  10
HETATM   10  N   UNL     1     -46.005 -53.694  14.077  1.00  0.00    -0.350 N 
HETATM   11  C   UNL     1     -46.315 -53.284  15.423  1.00  0.00     0.126 C 
HETATM   12  C   UNL     1     -46.992 -51.931  15.286  1.00  0.00     0.029 C 
HETATM   13  C   UNL     1     -46.664 -51.447  13.882  1.00  0.00     0.104 C 
HETATM   14  C   UNL     1     -46.206 -52.681  13.152  1.00  0.00     0.219 C 
HETATM   15  O   UNL     1     -45.974 -52.735  11.954  1.00  0.00    -0.273 OA
ENDBRANCH   9  10
ENDBRANCH   7   9
ENDBRANCH   1   7
BRANCH   4  16
HETATM   16  C   UNL     1     -41.012 -50.635  12.406  1.00  0.00     0.168 A 
HETATM   17  N   UNL     1     -40.737 -50.752  11.125  1.00  0.00    -0.279 N 
HETATM   18  N   UNL     1     -39.654 -49.978  10.751  1.00  0.00    -0.303 N 
ATOM     19  HN  UNL     1     -41.263 -51.345  10.482  1.00  0.00     0.189 HD
HETATM   20  C   UNL     1     -39.191 -49.276  11.764  1.00  0.00     0.160 A 
ATOM     21  HN  UNL     1     -39.262 -49.953   9.809  1.00  0.00     0.186 HD
HETATM   22  S   UNL     1     -40.042 -49.496  13.232  1.00  0.00    -0.046 SA
ENDBRANCH   4  16
TORSDOF 4
ENDMDL
MODEL 3
REMARK VINA RESULT:      -6.1      4.803      6.640
REMARK  4 active torsions:
REMARK  status: ('A' for Active; 'I' for Inactive)
REMARK    1  A    between atoms: C_2  and  C_3 
REMARK    2  A    between atoms: C_2  and  N_10 
REMARK    3  A    between atoms: C_3  and  N_4 
REMARK       I    between atoms: N_10  and  C_11 
REMARK       I    between atoms: C_11  and  N_13 
REMARK    4  A    between atoms: N_13  and  C_14 
ROOT
HETATM    1  N   UNL     1     -42.322 -52.701  13.277  1.00  0.00    -0.337 N 
HETATM    2  C   UNL     1     -41.093 -52.540  12.655  1.00  0.00     0.322 C 
HETATM    3  O   UNL     1     -40.508 -53.483  12.143  1.00  0.00    -0.247 OA
HETATM    4  N   UNL     1     -40.703 -51.230  12.658  1.00  0.00    -0.288 N 
HETATM    5  H   UNL     1     -42.549 -52.035  14.004  1.00  0.00     0.164 HD
HETATM    6  H   UNL     1     -41.420 -50.524  12.731  1.00  0.00     0.172 HD
ENDROOT
BRANCH   1   7
HETATM    7  C   UNL     1     -42.922 -54.032  13.379  1.00  0.00     0.100 C 
HETATM    8  C   UNL     1     -42.585 -54.689  14.709  1.00  0.00     0.034 C 
BRANCH   7   9
HETATM    9  C   UNL     1     -44.440 -54.024  13.096  1.00  0.00     0.150 C 
BRANCH   9  10
HETATM   10  N   UNL     1     -45.247 -53.116  13.909  1.00  0.00    -0.350 N 
HETATM   11  C   UNL     1     -45.665 -51.831  13.412  1.00  0.00     0.126 C 
HETATM   12  C   UNL     1     -46.750 -51.363  14.366  1.00  0.00     0.029 C 
HETATM   13  C   UNL     1     -47.186 -52.602  15.132  1.00  0.00     0.104 C 
HETATM   14  C   UNL     1     -46.077 -53.596  14.911  1.00  0.00     0.219 C 
HETATM   15  O   UNL     1     -45.990 -54.677  15.470  1.00  0.00    -0.273 OA
ENDBRANCH   9  10
ENDBRANCH   7   9
ENDBRANCH   1   7
BRANCH   4  16
HETATM   16  C   UNL     1     -39.515 -50.766  12.147  1.00  0.00     0.168 A 
HETATM   17  N   UNL     1     -39.429 -50.155  10.985  1.00  0.00    -0.279 N 
HETATM   18  N   UNL     1     -38.129 -49.787  10.686  1.00  0.00    -0.303 N 
ATOM     19  HN  UNL     1     -40.227 -49.975  10.376  1.00  0.00     0.189 HD
HETATM   20  C   UNL     1     -37.303 -50.098  11.662  1.00  0.00     0.160 A 
ATOM     21  HN  UNL     1     -37.847 -49.332   9.817  1.00  0.00     0.186 HD
HETATM   22  S   UNL     1     -38.044 -50.845  13.011  1.00  0.00    -0.046 SA
ENDBRANCH   4  16
TORSDOF 4
ENDMDL
MODEL 4
REMARK VINA RESULT:      -5.6      3.503      7.404
REMARK  4 active torsions:
REMARK  status: ('A' for Active; 'I' for Inactive)
REMARK    1  A    between atoms: C_2  and  C_3 
REMARK    2  A    between atoms: C_2  and  N_10 
REMARK    3  A    between atoms: C_3  and  N_4 
REMARK       I    between atoms: N_10  and  C_11 
REMARK       I    between atoms: C_11  and  N_13 
REMARK    4  A    between atoms: N_13  and  C_14 
ROOT
HETATM    1  N   UNL     1     -42.099 -52.105  11.884  1.00  0.00    -0.337 N 
HETATM    2  C   UNL     1     -41.860 -50.760  12.130  1.00  0.00     0.322 C 
HETATM    3  O   UNL     1     -42.216 -50.228  13.171  1.00  0.00    -0.247 OA
HETATM    4  N   UNL     1     -41.154 -50.187  11.110  1.00  0.00    -0.288 N 
HETATM    5  H   UNL     1     -42.167 -52.378  10.912  1.00  0.00     0.164 HD
HETATM    6  H   UNL     1     -40.585 -50.788  10.534  1.00  0.00     0.172 HD
ENDROOT
BRANCH   1   7
HETATM    7  C   UNL     1     -42.841 -52.906  12.859  1.00  0.00     0.100 C 
HETATM    8  C   UNL     1     -44.255 -53.191  12.378  1.00  0.00     0.034 C 
BRANCH   7   9
HETATM    9  C   UNL     1     -42.088 -54.191  13.267  1.00  0.00     0.150 C 
BRANCH   9  10
HETATM   10  N   UNL     1     -41.155 -54.069  14.386  1.00  0.00    -0.350 N 
HETATM   11  C   UNL     1     -41.344 -54.811  15.607  1.00  0.00     0.126 C 
HETATM   12  C   UNL     1     -40.024 -54.704  16.351  1.00  0.00     0.029 C 
HETATM   13  C   UNL     1     -39.006 -54.245  15.318  1.00  0.00     0.104 C 
HETATM   14  C   UNL     1     -39.833 -53.705  14.183  1.00  0.00     0.219 C 
HETATM   15  O   UNL     1     -39.382 -53.121  13.210  1.00  0.00    -0.273 OA
ENDBRANCH   9  10
ENDBRANCH   7   9
ENDBRANCH   1   7
BRANCH   4  16
HETATM   16  C   UNL     1     -40.799 -48.861  11.052  1.00  0.00     0.168 A 
HETATM   17  N   UNL     1     -41.374 -48.005  10.235  1.00  0.00    -0.279 N 
HETATM   18  N   UNL     1     -40.842 -46.733  10.356  1.00  0.00    -0.303 N 
ATOM     19  HN  UNL     1     -42.124 -48.250   9.588  1.00  0.00     0.189 HD
HETATM   20  C   UNL     1     -39.920 -46.683  11.295  1.00  0.00     0.160 A 
ATOM     21  HN  UNL     1     -41.128 -45.935   9.789  1.00  0.00     0.186 HD
HETATM   22  S   UNL     1     -39.644 -48.167  12.101  1.00  0.00    -0.046 SA
ENDBRANCH   4  16
TORSDOF 4
ENDMDL
MODEL 5
REMARK VINA RESULT:      -5.5      2.447      4.529
REMARK  4 active torsions:
REMARK  status: ('A' for Active; 'I' for Inactive)
REMARK    1  A    between atoms: C_2  and  C_3 
REMARK    2  A    between atoms: C_2  and  N_10 
REMARK    3  A    between atoms: C_3  and  N_4 
REMARK       I    between atoms: N_10  and  C_11 
REMARK       I    between atoms: C_11  and  N_13 
REMARK    4  A    between atoms: N_13  and  C_14 
ROOT
HETATM    1  N   UNL     1     -42.793 -48.543  11.512  1.00  0.00    -0.337 N 
HETATM    2  C   UNL     1     -41.885 -49.587  11.613  1.00  0.00     0.322 C 
HETATM    3  O   UNL     1     -40.699 -49.428  11.366  1.00  0.00    -0.247 OA
HETATM    4  N   UNL     1     -42.489 -50.727  12.062  1.00  0.00    -0.288 N 
HETATM    5  H   UNL     1     -43.753 -48.799  11.322  1.00  0.00     0.164 HD
HETATM    6  H   UNL     1     -43.335 -50.632  12.603  1.00  0.00     0.172 HD
ENDROOT
BRANCH   1   7
HETATM    7  C   UNL     1     -42.346 -47.228  11.050  1.00  0.00     0.100 C 
HETATM    8  C   UNL     1     -43.238 -46.702   9.936  1.00  0.00     0.034 C 
BRANCH   7   9
HETATM    9  C   UNL     1     -42.188 -46.214  12.203  1.00  0.00     0.150 C 
BRANCH   9  10
HETATM   10  N   UNL     1     -41.072 -45.275  12.093  1.00  0.00    -0.350 N 
HETATM   11  C   UNL     1     -41.293 -43.855  11.978  1.00  0.00     0.126 C 
HETATM   12  C   UNL     1     -39.943 -43.215  12.251  1.00  0.00     0.029 C 
HETATM   13  C   UNL     1     -39.103 -44.293  12.917  1.00  0.00     0.104 C 
HETATM   14  C   UNL     1     -39.823 -45.579  12.611  1.00  0.00     0.219 C 
HETATM   15  O   UNL     1     -39.394 -46.694  12.864  1.00  0.00    -0.273 OA
ENDBRANCH   9  10
ENDBRANCH   7   9
ENDBRANCH   1   7
BRANCH   4  16
HETATM   16  C   UNL     1     -41.856 -51.935  12.229  1.00  0.00     0.168 A 
HETATM   17  N   UNL     1     -41.240 -52.559  11.248  1.00  0.00    -0.279 N 
HETATM   18  N   UNL     1     -40.686 -53.758  11.659  1.00  0.00    -0.303 N 
ATOM     19  HN  UNL     1     -41.179 -52.200  10.294  1.00  0.00     0.189 HD
HETATM   20  C   UNL     1     -40.872 -53.958  12.947  1.00  0.00     0.160 A 
ATOM     21  HN  UNL     1     -40.195 -54.405  11.042  1.00  0.00     0.186 HD
HETATM   22  S   UNL     1     -41.718 -52.705  13.748  1.00  0.00    -0.046 SA
ENDBRANCH   4  16
TORSDOF 4
ENDMDL
MODEL 6
REMARK VINA RESULT:      -5.2      5.300      6.846
REMARK  4 active torsions:
REMARK  status: ('A' for Active; 'I' for Inactive)
REMARK    1  A    between atoms: C_2  and  C_3 
REMARK    2  A    between atoms: C_2  and  N_10 
REMARK    3  A    between atoms: C_3  and  N_4 
REMARK       I    between atoms: N_10  and  C_11 
REMARK       I    between atoms: C_11  and  N_13 
REMARK    4  A    between atoms: N_13  and  C_14 
ROOT
HETATM    1  N   UNL     1     -39.316 -52.384  15.156  1.00  0.00    -0.337 N 
HETATM    2  C   UNL     1     -40.581 -52.204  14.616  1.00  0.00     0.322 C 
HETATM    3  O   UNL     1     -41.130 -51.113  14.622  1.00  0.00    -0.247 OA
HETATM    4  N   UNL     1     -41.052 -53.361  14.060  1.00  0.00    -0.288 N 
HETATM    5  H   UNL     1     -39.098 -53.314  15.490  1.00  0.00     0.164 HD
HETATM    6  H   UNL     1     -40.378 -54.049  13.759  1.00  0.00     0.172 HD
ENDROOT
BRANCH   1   7
HETATM    7  C   UNL     1     -38.630 -51.263  15.800  1.00  0.00     0.100 C 
HETATM    8  C   UNL     1     -38.051 -51.669  17.146  1.00  0.00     0.034 C 
BRANCH   7   9
HETATM    9  C   UNL     1     -37.577 -50.604  14.882  1.00  0.00     0.150 C 
BRANCH   9  10
HETATM   10  N   UNL     1     -38.025 -50.238  13.539  1.00  0.00    -0.350 N 
HETATM   11  C   UNL     1     -38.648 -48.966  13.275  1.00  0.00     0.126 C 
HETATM   12  C   UNL     1     -38.632 -48.816  11.764  1.00  0.00     0.029 C 
HETATM   13  C   UNL     1     -37.621 -49.835  11.260  1.00  0.00     0.104 C 
HETATM   14  C   UNL     1     -37.436 -50.787  12.411  1.00  0.00     0.219 C 
HETATM   15  O   UNL     1     -36.796 -51.825  12.359  1.00  0.00    -0.273 OA
ENDBRANCH   9  10
ENDBRANCH   7   9
ENDBRANCH   1   7
BRANCH   4  16
HETATM   16  C   UNL     1     -42.289 -53.504  13.481  1.00  0.00     0.168 A 
HETATM   17  N   UNL     1     -42.592 -52.989  12.310  1.00  0.00    -0.279 N 
HETATM   18  N   UNL     1     -43.898 -53.262  11.942  1.00  0.00    -0.303 N 
ATOM     19  HN  UNL     1     -41.941 -52.449  11.739  1.00  0.00     0.189 HD
HETATM   20  C   UNL     1     -44.503 -54.014  12.837  1.00  0.00     0.160 A 
ATOM     21  HN  UNL     1     -44.336 -52.924  11.085  1.00  0.00     0.186 HD
HETATM   22  S   UNL     1     -43.532 -54.448  14.176  1.00  0.00    -0.046 SA
ENDBRANCH   4  16
TORSDOF 4
ENDMDL
MODEL 7
REMARK VINA RESULT:      -5.2      3.693      6.927
REMARK  4 active torsions:
REMARK  status: ('A' for Active; 'I' for Inactive)
REMARK    1  A    between atoms: C_2  and  C_3 
REMARK    2  A    between atoms: C_2  and  N_10 
REMARK    3  A    between atoms: C_3  and  N_4 
REMARK       I    between atoms: N_10  and  C_11 
REMARK       I    between atoms: C_11  and  N_13 
REMARK    4  A    between atoms: N_13  and  C_14 
ROOT
HETATM    1  N   UNL     1     -41.501 -51.283  14.320  1.00  0.00    -0.337 N 
HETATM    2  C   UNL     1     -41.833 -50.907  13.026  1.00  0.00     0.322 C 
HETATM    3  O   UNL     1     -42.221 -51.723  12.204  1.00  0.00    -0.247 OA
HETATM    4  N   UNL     1     -41.717 -49.556  12.857  1.00  0.00    -0.288 N 
HETATM    5  H   UNL     1     -40.830 -50.698  14.800  1.00  0.00     0.164 HD
HETATM    6  H   UNL     1     -41.791 -48.970  13.675  1.00  0.00     0.172 HD
ENDROOT
BRANCH   1   7
HETATM    7  C   UNL     1     -41.562 -52.692  14.710  1.00  0.00     0.100 C 
HETATM    8  C   UNL     1     -40.213 -53.185  15.211  1.00  0.00     0.034 C 
BRANCH   7   9
HETATM    9  C   UNL     1     -42.702 -52.984  15.710  1.00  0.00     0.150 C 
BRANCH   9  10
HETATM   10  N   UNL     1     -43.950 -53.490  15.141  1.00  0.00    -0.350 N 
HETATM   11  C   UNL     1     -44.866 -52.621  14.447  1.00  0.00     0.126 C 
HETATM   12  C   UNL     1     -45.820 -53.547  13.713  1.00  0.00     0.029 C 
HETATM   13  C   UNL     1     -45.143 -54.908  13.697  1.00  0.00     0.104 C 
HETATM   14  C   UNL     1     -44.081 -54.816  14.760  1.00  0.00     0.219 C 
HETATM   15  O   UNL     1     -43.399 -55.753  15.145  1.00  0.00    -0.273 OA
ENDBRANCH   9  10
ENDBRANCH   7   9
ENDBRANCH   1   7
BRANCH   4  16
HETATM   16  C   UNL     1     -41.942 -48.893  11.675  1.00  0.00     0.168 A 
HETATM   17  N   UNL     1     -41.314 -49.192  10.559  1.00  0.00    -0.279 N 
HETATM   18  N   UNL     1     -41.705 -48.382   9.508  1.00  0.00    -0.303 N 
ATOM     19  HN  UNL     1     -40.619 -49.935  10.478  1.00  0.00     0.189 HD
HETATM   20  C   UNL     1     -42.648 -47.539   9.874  1.00  0.00     0.160 A 
ATOM     21  HN  UNL     1     -41.313 -48.432   8.567  1.00  0.00     0.186 HD
HETATM   22  S   UNL     1     -43.131 -47.677  11.510  1.00  0.00    -0.046 SA
ENDBRANCH   4  16
TORSDOF 4
ENDMDL
MODEL 8
REMARK VINA RESULT:      -5.2      3.747      6.635
REMARK  4 active torsions:
REMARK  status: ('A' for Active; 'I' for Inactive)
REMARK    1  A    between atoms: C_2  and  C_3 
REMARK    2  A    between atoms: C_2  and  N_10 
REMARK    3  A    between atoms: C_3  and  N_4 
REMARK       I    between atoms: N_10  and  C_11 
REMARK       I    between atoms: C_11  and  N_13 
REMARK    4  A    between atoms: N_13  and  C_14 
ROOT
HETATM    1  N   UNL     1     -40.913 -50.237  12.528  1.00  0.00    -0.337 N 
HETATM    2  C   UNL     1     -41.075 -49.047  11.833  1.00  0.00     0.322 C 
HETATM    3  O   UNL     1     -41.971 -48.903  11.015  1.00  0.00    -0.247 OA
HETATM    4  N   UNL     1     -40.165 -48.110  12.234  1.00  0.00    -0.288 N 
HETATM    5  H   UNL     1     -39.976 -50.445  12.850  1.00  0.00     0.164 HD
HETATM    6  H   UNL     1     -39.771 -48.200  13.158  1.00  0.00     0.172 HD
ENDROOT
BRANCH   1   7
HETATM    7  C   UNL     1     -41.792 -51.373  12.249  1.00  0.00     0.100 C 
HETATM    8  C   UNL     1     -40.993 -52.611  11.875  1.00  0.00     0.034 C 
BRANCH   7   9
HETATM    9  C   UNL     1     -42.795 -51.643  13.392  1.00  0.00     0.150 C 
BRANCH   9  10
HETATM   10  N   UNL     1     -43.112 -53.046  13.658  1.00  0.00    -0.350 N 
HETATM   11  C   UNL     1     -42.641 -53.711  14.846  1.00  0.00     0.126 C 
HETATM   12  C   UNL     1     -43.455 -54.990  14.940  1.00  0.00     0.029 C 
HETATM   13  C   UNL     1     -44.645 -54.790  14.016  1.00  0.00     0.104 C 
HETATM   14  C   UNL     1     -44.250 -53.637  13.132  1.00  0.00     0.219 C 
HETATM   15  O   UNL     1     -44.889 -53.250  12.166  1.00  0.00    -0.273 OA
ENDBRANCH   9  10
ENDBRANCH   7   9
ENDBRANCH   1   7
BRANCH   4  16
HETATM   16  C   UNL     1     -40.055 -46.848  11.703  1.00  0.00     0.168 A 
HETATM   17  N   UNL     1     -40.070 -46.615  10.408  1.00  0.00    -0.279 N 
HETATM   18  N   UNL     1     -39.938 -45.269  10.119  1.00  0.00    -0.303 N 
ATOM     19  HN  UNL     1     -40.168 -47.343   9.700  1.00  0.00     0.189 HD
HETATM   20  C   UNL     1     -39.876 -44.544  11.217  1.00  0.00     0.160 A 
ATOM     21  HN  UNL     1     -39.895 -44.886   9.175  1.00  0.00     0.186 HD
HETATM   22  S   UNL     1     -39.985 -45.441  12.669  1.00  0.00    -0.046 SA
ENDBRANCH   4  16
TORSDOF 4
ENDMDL
MODEL 9
REMARK VINA RESULT:      -5.0      4.668      7.214
REMARK  4 active torsions:
REMARK  status: ('A' for Active; 'I' for Inactive)
REMARK    1  A    between atoms: C_2  and  C_3 
REMARK    2  A    between atoms: C_2  and  N_10 
REMARK    3  A    between atoms: C_3  and  N_4 
REMARK       I    between atoms: N_10  and  C_11 
REMARK       I    between atoms: C_11  and  N_13 
REMARK    4  A    between atoms: N_13  and  C_14 
ROOT
HETATM    1  N   UNL     1     -43.469 -53.730  14.122  1.00  0.00    -0.337 N 
HETATM    2  C   UNL     1     -43.020 -52.660  13.362  1.00  0.00     0.322 C 
HETATM    3  O   UNL     1     -43.796 -51.854  12.870  1.00  0.00    -0.247 OA
HETATM    4  N   UNL     1     -41.655 -52.627  13.310  1.00  0.00    -0.288 N 
HETATM    5  H   UNL     1     -42.873 -54.546  14.146  1.00  0.00     0.164 HD
HETATM    6  H   UNL     1     -41.143 -53.071  14.058  1.00  0.00     0.172 HD
ENDROOT
BRANCH   1   7
HETATM    7  C   UNL     1     -44.906 -53.944  14.306  1.00  0.00     0.100 C 
HETATM    8  C   UNL     1     -45.330 -55.309  13.787  1.00  0.00     0.034 C 
BRANCH   7   9
HETATM    9  C   UNL     1     -45.362 -53.700  15.760  1.00  0.00     0.150 C 
BRANCH   9  10
HETATM   10  N   UNL     1     -45.836 -52.352  16.074  1.00  0.00    -0.350 N 
HETATM   11  C   UNL     1     -47.205 -52.104  16.449  1.00  0.00     0.126 C 
HETATM   12  C   UNL     1     -47.214 -50.702  17.033  1.00  0.00     0.029 C 
HETATM   13  C   UNL     1     -45.761 -50.374  17.340  1.00  0.00     0.104 C 
HETATM   14  C   UNL     1     -44.969 -51.378  16.547  1.00  0.00     0.219 C 
HETATM   15  O   UNL     1     -43.754 -51.366  16.424  1.00  0.00    -0.273 OA
ENDBRANCH   9  10
ENDBRANCH   7   9
ENDBRANCH   1   7
BRANCH   4  16
HETATM   16  C   UNL     1     -40.920 -51.706  12.603  1.00  0.00     0.168 A 
HETATM   17  N   UNL     1     -41.229 -51.334  11.380  1.00  0.00    -0.279 N 
HETATM   18  N   UNL     1     -40.338 -50.403  10.878  1.00  0.00    -0.303 N 
ATOM     19  HN  UNL     1     -42.032 -51.692  10.862  1.00  0.00     0.189 HD
HETATM   20  C   UNL     1     -39.422 -50.082  11.768  1.00  0.00     0.160 A 
ATOM     21  HN  UNL     1     -40.383 -50.014   9.936  1.00  0.00     0.186 HD
HETATM   22  S   UNL     1     -39.586 -50.876  13.275  1.00  0.00    -0.046 SA
ENDBRANCH   4  16
TORSDOF 4
ENDMDL
