MODEL 1
REMARK VINA RESULT:      -5.4      0.000      0.000
REMARK  5 active torsions:
REMARK  status: ('A' for Active; 'I' for Inactive)
REMARK    1  A    between atoms: C_5  and  C_6 
REMARK    2  A    between atoms: C_6  and  N_7 
REMARK    3  A    between atoms: N_7  and  C_8 
REMARK    4  A    between atoms: C_8  and  C_9 
REMARK    5  A    between atoms: C_9  and  C_10 
ROOT
HETATM    1  N   UNL     1     -42.824 -52.665  11.746  1.00  0.00     0.084 N 
HETATM    2  H   UNL     1     -43.549 -51.973  11.550  1.00  0.00     0.315 HD
ENDROOT
BRANCH   1   3
HETATM    3  C   UNL     1     -43.207 -53.434  12.932  1.00  0.00     0.274 C 
BRANCH   3   4
HETATM    4  C   UNL     1     -44.743 -53.552  13.055  1.00  0.00     0.014 C 
HETATM    5  C   UNL     1     -45.419 -52.207  12.732  1.00  0.00     0.007 C 
HETATM    6  C   UNL     1     -45.211 -51.158  13.826  1.00  0.00     0.005 C 
HETATM    7  C   UNL     1     -45.620 -51.653  15.221  1.00  0.00    -0.019 C 
HETATM    8  C   UNL     1     -47.143 -51.701  15.371  1.00  0.00     0.010 C 
HETATM    9  C   UNL     1     -44.982 -53.013  15.539  1.00  0.00     0.005 C 
HETATM   10  C   UNL     1     -45.205 -54.048  14.436  1.00  0.00     0.007 C 
ENDBRANCH   3   4
ENDBRANCH   1   3
BRANCH   1  11
HETATM   11  C   UNL     1     -41.541 -51.985  11.956  1.00  0.00     0.277 C 
BRANCH  11  12
HETATM   12  C   UNL     1     -41.753 -50.654  12.685  1.00  0.00     0.108 C 
BRANCH  12  13
HETATM   13  C   UNL     1     -41.661 -49.508  11.740  1.00  0.00     0.100 A 
HETATM   14  N   UNL     1     -42.667 -48.930  11.115  1.00  0.00    -0.340 N 
HETATM   15  C   UNL     1     -42.068 -47.934  10.401  1.00  0.00     0.199 A 
ATOM     16  HN  UNL     1     -43.658 -49.170  11.155  1.00  0.00     0.168 HD
HETATM   17  N   UNL     1     -40.746 -47.847  10.547  1.00  0.00    -0.293 N 
HETATM   18  N   UNL     1     -40.501 -48.865  11.395  1.00  0.00    -0.284 N 
ATOM     19  HN  UNL     1     -40.092 -47.186  10.128  1.00  0.00     0.188 HD
HETATM   20  C   UNL     1     -39.157 -49.126  11.840  1.00  0.00     0.179 C 
ENDBRANCH  12  13
ENDBRANCH  11  12
ENDBRANCH   1  11
TORSDOF 5
ENDMDL
MODEL 2
REMARK VINA RESULT:      -5.4      1.819      2.801
REMARK  5 active torsions:
REMARK  status: ('A' for Active; 'I' for Inactive)
REMARK    1  A    between atoms: C_5  and  C_6 
REMARK    2  A    between atoms: C_6  and  N_7 
REMARK    3  A    between atoms: N_7  and  C_8 
REMARK    4  A    between atoms: C_8  and  C_9 
REMARK    5  A    between atoms: C_9  and  C_10 
ROOT
HETATM    1  N   UNL     1     -42.824 -52.514  11.763  1.00  0.00     0.084 N 
HETATM    2  H   UNL     1     -43.261 -51.591  11.751  1.00  0.00     0.315 HD
ENDROOT
BRANCH   1   3
HETATM    3  C   UNL     1     -43.369 -53.285  12.883  1.00  0.00     0.274 C 
BRANCH   3   4
HETATM    4  C   UNL     1     -43.716 -52.373  14.080  1.00  0.00     0.014 C 
HETATM    5  C   UNL     1     -44.452 -53.168  15.174  1.00  0.00     0.007 C 
HETATM    6  C   UNL     1     -45.885 -53.535  14.782  1.00  0.00     0.005 C 
HETATM    7  C   UNL     1     -46.716 -52.324  14.334  1.00  0.00    -0.019 C 
HETATM    8  C   UNL     1     -47.124 -51.456  15.527  1.00  0.00     0.010 C 
HETATM    9  C   UNL     1     -45.975 -51.501  13.270  1.00  0.00     0.005 C 
HETATM   10  C   UNL     1     -44.548 -51.141  13.683  1.00  0.00     0.007 C 
ENDBRANCH   3   4
ENDBRANCH   1   3
BRANCH   1  11
HETATM   11  C   UNL     1     -41.370 -52.367  11.889  1.00  0.00     0.277 C 
BRANCH  11  12
HETATM   12  C   UNL     1     -41.002 -50.905  12.169  1.00  0.00     0.108 C 
BRANCH  12  13
HETATM   13  C   UNL     1     -39.537 -50.687  12.023  1.00  0.00     0.100 A 
HETATM   14  N   UNL     1     -38.932 -50.117  11.000  1.00  0.00    -0.340 N 
HETATM   15  C   UNL     1     -37.616 -50.135  11.359  1.00  0.00     0.199 A 
ATOM     16  HN  UNL     1     -39.348 -49.751  10.144  1.00  0.00     0.168 HD
HETATM   17  N   UNL     1     -37.360 -50.675  12.551  1.00  0.00    -0.293 N 
HETATM   18  N   UNL     1     -38.594 -51.032  12.956  1.00  0.00    -0.284 N 
ATOM     19  HN  UNL     1     -36.466 -50.789  13.029  1.00  0.00     0.188 HD
HETATM   20  C   UNL     1     -38.780 -51.657  14.239  1.00  0.00     0.179 C 
ENDBRANCH  12  13
ENDBRANCH  11  12
ENDBRANCH   1  11
TORSDOF 5
ENDMDL
MODEL 3
REMARK VINA RESULT:      -5.3      1.856      2.610
REMARK  5 active torsions:
REMARK  status: ('A' for Active; 'I' for Inactive)
REMARK    1  A    between atoms: C_5  and  C_6 
REMARK    2  A    between atoms: C_6  and  N_7 
REMARK    3  A    between atoms: N_7  and  C_8 
REMARK    4  A    between atoms: C_8  and  C_9 
REMARK    5  A    between atoms: C_9  and  C_10 
ROOT
HETATM    1  N   UNL     1     -42.656 -50.476  12.067  1.00  0.00     0.084 N 
HETATM    2  H   UNL     1     -43.261 -50.747  11.290  1.00  0.00     0.315 HD
ENDROOT
BRANCH   1   3
HETATM    3  C   UNL     1     -43.466 -50.343  13.280  1.00  0.00     0.274 C 
BRANCH   3   4
HETATM    4  C   UNL     1     -43.907 -51.723  13.816  1.00  0.00     0.014 C 
HETATM    5  C   UNL     1     -45.096 -52.267  13.004  1.00  0.00     0.007 C 
HETATM    6  C   UNL     1     -46.401 -51.519  13.284  1.00  0.00     0.005 C 
HETATM    7  C   UNL     1     -46.747 -51.449  14.778  1.00  0.00    -0.019 C 
HETATM    8  C   UNL     1     -47.255 -52.797  15.297  1.00  0.00     0.010 C 
HETATM    9  C   UNL     1     -45.555 -50.943  15.603  1.00  0.00     0.005 C 
HETATM   10  C   UNL     1     -44.263 -51.707  15.313  1.00  0.00     0.007 C 
ENDBRANCH   3   4
ENDBRANCH   1   3
BRANCH   1  11
HETATM   11  C   UNL     1     -41.983 -49.212  11.746  1.00  0.00     0.277 C 
BRANCH  11  12
HETATM   12  C   UNL     1     -42.981 -48.050  11.784  1.00  0.00     0.108 C 
BRANCH  12  13
HETATM   13  C   UNL     1     -43.212 -47.501  10.420  1.00  0.00     0.100 A 
HETATM   14  N   UNL     1     -44.166 -47.863   9.585  1.00  0.00    -0.340 N 
HETATM   15  C   UNL     1     -43.964 -47.057   8.504  1.00  0.00     0.199 A 
ATOM     16  HN  UNL     1     -44.884 -48.575   9.717  1.00  0.00     0.168 HD
HETATM   17  N   UNL     1     -42.943 -46.205   8.613  1.00  0.00    -0.293 N 
HETATM   18  N   UNL     1     -42.468 -46.509   9.836  1.00  0.00    -0.284 N 
ATOM     19  HN  UNL     1     -42.611 -45.509   7.946  1.00  0.00     0.188 HD
HETATM   20  C   UNL     1     -41.341 -45.792  10.371  1.00  0.00     0.179 C 
ENDBRANCH  12  13
ENDBRANCH  11  12
ENDBRANCH   1  11
TORSDOF 5
ENDMDL
MODEL 4
REMARK VINA RESULT:      -5.1      1.979      3.160
REMARK  5 active torsions:
REMARK  status: ('A' for Active; 'I' for Inactive)
REMARK    1  A    between atoms: C_5  and  C_6 
REMARK    2  A    between atoms: C_6  and  N_7 
REMARK    3  A    between atoms: N_7  and  C_8 
REMARK    4  A    between atoms: C_8  and  C_9 
REMARK    5  A    between atoms: C_9  and  C_10 
ROOT
HETATM    1  N   UNL     1     -40.862 -51.101  11.220  1.00  0.00     0.084 N 
HETATM    2  H   UNL     1     -41.073 -51.115  10.221  1.00  0.00     0.315 HD
ENDROOT
BRANCH   1   3
HETATM    3  C   UNL     1     -41.390 -52.320  11.836  1.00  0.00     0.274 C 
BRANCH   3   4
HETATM    4  C   UNL     1     -42.313 -51.993  13.031  1.00  0.00     0.014 C 
HETATM    5  C   UNL     1     -41.719 -52.541  14.342  1.00  0.00     0.007 C 
HETATM    6  C   UNL     1     -41.800 -54.066  14.440  1.00  0.00     0.005 C 
HETATM    7  C   UNL     1     -43.218 -54.610  14.211  1.00  0.00    -0.019 C 
HETATM    8  C   UNL     1     -44.116 -54.353  15.424  1.00  0.00     0.010 C 
HETATM    9  C   UNL     1     -43.834 -54.040  12.926  1.00  0.00     0.005 C 
HETATM   10  C   UNL     1     -43.748 -52.516  12.850  1.00  0.00     0.007 C 
ENDBRANCH   3   4
ENDBRANCH   1   3
BRANCH   1  11
HETATM   11  C   UNL     1     -41.456 -49.906  11.830  1.00  0.00     0.277 C 
BRANCH  11  12
HETATM   12  C   UNL     1     -40.937 -48.639  11.142  1.00  0.00     0.108 C 
BRANCH  12  13
HETATM   13  C   UNL     1     -42.043 -47.911  10.462  1.00  0.00     0.100 A 
HETATM   14  N   UNL     1     -42.536 -48.180   9.269  1.00  0.00    -0.340 N 
HETATM   15  C   UNL     1     -43.532 -47.260   9.122  1.00  0.00     0.199 A 
ATOM     16  HN  UNL     1     -42.244 -48.904   8.613  1.00  0.00     0.168 HD
HETATM   17  N   UNL     1     -43.698 -46.433  10.156  1.00  0.00    -0.293 N 
HETATM   18  N   UNL     1     -42.734 -46.855  10.996  1.00  0.00    -0.284 N 
ATOM     19  HN  UNL     1     -44.375 -45.680  10.277  1.00  0.00     0.188 HD
HETATM   20  C   UNL     1     -42.568 -46.223  12.279  1.00  0.00     0.179 C 
ENDBRANCH  12  13
ENDBRANCH  11  12
ENDBRANCH   1  11
TORSDOF 5
ENDMDL
MODEL 5
REMARK VINA RESULT:      -5.1      1.213      1.948
REMARK  5 active torsions:
REMARK  status: ('A' for Active; 'I' for Inactive)
REMARK    1  A    between atoms: C_5  and  C_6 
REMARK    2  A    between atoms: C_6  and  N_7 
REMARK    3  A    between atoms: N_7  and  C_8 
REMARK    4  A    between atoms: C_8  and  C_9 
REMARK    5  A    between atoms: C_9  and  C_10 
ROOT
HETATM    1  N   UNL     1     -41.916 -53.814  12.628  1.00  0.00     0.084 N 
HETATM    2  H   UNL     1     -42.598 -53.580  11.905  1.00  0.00     0.315 HD
ENDROOT
BRANCH   1   3
HETATM    3  C   UNL     1     -42.597 -53.881  13.923  1.00  0.00     0.274 C 
BRANCH   3   4
HETATM    4  C   UNL     1     -44.127 -53.997  13.749  1.00  0.00     0.014 C 
HETATM    5  C   UNL     1     -44.646 -52.930  12.768  1.00  0.00     0.007 C 
HETATM    6  C   UNL     1     -44.620 -51.518  13.357  1.00  0.00     0.005 C 
HETATM    7  C   UNL     1     -45.341 -51.415  14.708  1.00  0.00    -0.019 C 
HETATM    8  C   UNL     1     -46.862 -51.456  14.533  1.00  0.00     0.010 C 
HETATM    9  C   UNL     1     -44.860 -52.499  15.682  1.00  0.00     0.005 C 
HETATM   10  C   UNL     1     -44.899 -53.903  15.077  1.00  0.00     0.007 C 
ENDBRANCH   3   4
ENDBRANCH   1   3
BRANCH   1  11
HETATM   11  C   UNL     1     -40.854 -52.802  12.646  1.00  0.00     0.277 C 
BRANCH  11  12
HETATM   12  C   UNL     1     -41.286 -51.558  11.863  1.00  0.00     0.108 C 
BRANCH  12  13
HETATM   13  C   UNL     1     -40.164 -50.589  11.741  1.00  0.00     0.100 A 
HETATM   14  N   UNL     1     -38.893 -50.832  11.994  1.00  0.00    -0.340 N 
HETATM   15  C   UNL     1     -38.280 -49.648  11.708  1.00  0.00     0.199 A 
ATOM     16  HN  UNL     1     -38.469 -51.699  12.324  1.00  0.00     0.168 HD
HETATM   17  N   UNL     1     -39.090 -48.677  11.283  1.00  0.00    -0.293 N 
HETATM   18  N   UNL     1     -40.288 -49.290  11.321  1.00  0.00    -0.284 N 
ATOM     19  HN  UNL     1     -38.862 -47.723  11.005  1.00  0.00     0.188 HD
HETATM   20  C   UNL     1     -41.474 -48.582  10.914  1.00  0.00     0.179 C 
ENDBRANCH  12  13
ENDBRANCH  11  12
ENDBRANCH   1  11
TORSDOF 5
ENDMDL
MODEL 6
REMARK VINA RESULT:      -5.0      1.829      2.945
REMARK  5 active torsions:
REMARK  status: ('A' for Active; 'I' for Inactive)
REMARK    1  A    between atoms: C_5  and  C_6 
REMARK    2  A    between atoms: C_6  and  N_7 
REMARK    3  A    between atoms: N_7  and  C_8 
REMARK    4  A    between atoms: C_8  and  C_9 
REMARK    5  A    between atoms: C_9  and  C_10 
ROOT
HETATM    1  N   UNL     1     -43.516 -50.220  12.457  1.00  0.00     0.084 N 
HETATM    2  H   UNL     1     -44.305 -50.293  11.813  1.00  0.00     0.315 HD
ENDROOT
BRANCH   1   3
HETATM    3  C   UNL     1     -43.937 -50.682  13.782  1.00  0.00     0.274 C 
BRANCH   3   4
HETATM    4  C   UNL     1     -45.217 -51.542  13.698  1.00  0.00     0.014 C 
HETATM    5  C   UNL     1     -45.410 -52.355  14.991  1.00  0.00     0.007 C 
HETATM    6  C   UNL     1     -44.408 -53.503  15.128  1.00  0.00     0.005 C 
HETATM    7  C   UNL     1     -44.377 -54.426  13.901  1.00  0.00    -0.019 C 
HETATM    8  C   UNL     1     -45.610 -55.333  13.854  1.00  0.00     0.010 C 
HETATM    9  C   UNL     1     -44.223 -53.622  12.602  1.00  0.00     0.005 C 
HETATM   10  C   UNL     1     -45.237 -52.484  12.482  1.00  0.00     0.007 C 
ENDBRANCH   3   4
ENDBRANCH   1   3
BRANCH   1  11
HETATM   11  C   UNL     1     -43.054 -48.828  12.511  1.00  0.00     0.277 C 
BRANCH  11  12
HETATM   12  C   UNL     1     -41.952 -48.590  11.474  1.00  0.00     0.108 C 
BRANCH  12  13
HETATM   13  C   UNL     1     -42.463 -47.792  10.326  1.00  0.00     0.100 A 
HETATM   14  N   UNL     1     -43.425 -48.148   9.497  1.00  0.00    -0.340 N 
HETATM   15  C   UNL     1     -43.531 -47.079   8.656  1.00  0.00     0.199 A 
ATOM     16  HN  UNL     1     -43.962 -49.015   9.486  1.00  0.00     0.168 HD
HETATM   17  N   UNL     1     -42.698 -46.070   8.913  1.00  0.00    -0.293 N 
HETATM   18  N   UNL     1     -42.017 -46.545   9.973  1.00  0.00    -0.284 N 
ATOM     19  HN  UNL     1     -42.602 -45.175   8.433  1.00  0.00     0.188 HD
HETATM   20  C   UNL     1     -40.997 -45.742  10.595  1.00  0.00     0.179 C 
ENDBRANCH  12  13
ENDBRANCH  11  12
ENDBRANCH   1  11
TORSDOF 5
ENDMDL
MODEL 7
REMARK VINA RESULT:      -5.0      1.297      2.153
REMARK  5 active torsions:
REMARK  status: ('A' for Active; 'I' for Inactive)
REMARK    1  A    between atoms: C_5  and  C_6 
REMARK    2  A    between atoms: C_6  and  N_7 
REMARK    3  A    between atoms: N_7  and  C_8 
REMARK    4  A    between atoms: C_8  and  C_9 
REMARK    5  A    between atoms: C_9  and  C_10 
ROOT
HETATM    1  N   UNL     1     -41.159 -51.877  12.961  1.00  0.00     0.084 N 
HETATM    2  H   UNL     1     -40.492 -52.649  13.005  1.00  0.00     0.315 HD
ENDROOT
BRANCH   1   3
HETATM    3  C   UNL     1     -42.441 -52.380  12.466  1.00  0.00     0.274 C 
BRANCH   3   4
HETATM    4  C   UNL     1     -43.311 -52.935  13.616  1.00  0.00     0.014 C 
HETATM    5  C   UNL     1     -44.619 -53.535  13.067  1.00  0.00     0.007 C 
HETATM    6  C   UNL     1     -45.600 -52.470  12.573  1.00  0.00     0.005 C 
HETATM    7  C   UNL     1     -45.892 -51.387  13.621  1.00  0.00    -0.019 C 
HETATM    8  C   UNL     1     -46.814 -51.913  14.724  1.00  0.00     0.010 C 
HETATM    9  C   UNL     1     -44.595 -50.808  14.203  1.00  0.00     0.005 C 
HETATM   10  C   UNL     1     -43.631 -51.888  14.696  1.00  0.00     0.007 C 
ENDBRANCH   3   4
ENDBRANCH   1   3
BRANCH   1  11
HETATM   11  C   UNL     1     -40.634 -50.826  12.082  1.00  0.00     0.277 C 
BRANCH  11  12
HETATM   12  C   UNL     1     -41.711 -49.770  11.809  1.00  0.00     0.108 C 
BRANCH  12  13
HETATM   13  C   UNL     1     -41.097 -48.472  11.419  1.00  0.00     0.100 A 
HETATM   14  N   UNL     1     -39.979 -47.962  11.899  1.00  0.00    -0.340 N 
HETATM   15  C   UNL     1     -39.841 -46.793  11.210  1.00  0.00     0.199 A 
ATOM     16  HN  UNL     1     -39.365 -48.350  12.615  1.00  0.00     0.168 HD
HETATM   17  N   UNL     1     -40.802 -46.542  10.320  1.00  0.00    -0.293 N 
HETATM   18  N   UNL     1     -41.600 -47.616  10.474  1.00  0.00    -0.284 N 
ATOM     19  HN  UNL     1     -40.905 -45.746   9.690  1.00  0.00     0.188 HD
HETATM   20  C   UNL     1     -42.784 -47.756   9.668  1.00  0.00     0.179 C 
ENDBRANCH  12  13
ENDBRANCH  11  12
ENDBRANCH   1  11
TORSDOF 5
ENDMDL
MODEL 8
REMARK VINA RESULT:      -4.9      2.397      3.630
REMARK  5 active torsions:
REMARK  status: ('A' for Active; 'I' for Inactive)
REMARK    1  A    between atoms: C_5  and  C_6 
REMARK    2  A    between atoms: C_6  and  N_7 
REMARK    3  A    between atoms: N_7  and  C_8 
REMARK    4  A    between atoms: C_8  and  C_9 
REMARK    5  A    between atoms: C_9  and  C_10 
ROOT
HETATM    1  N   UNL     1     -41.954 -51.646  11.871  1.00  0.00     0.084 N 
HETATM    2  H   UNL     1     -42.448 -51.743  10.983  1.00  0.00     0.315 HD
ENDROOT
BRANCH   1   3
HETATM    3  C   UNL     1     -42.650 -52.430  12.893  1.00  0.00     0.274 C 
BRANCH   3   4
HETATM    4  C   UNL     1     -42.029 -53.836  13.045  1.00  0.00     0.014 C 
HETATM    5  C   UNL     1     -42.585 -54.543  14.295  1.00  0.00     0.007 C 
HETATM    6  C   UNL     1     -42.054 -53.949  15.601  1.00  0.00     0.005 C 
HETATM    7  C   UNL     1     -40.521 -53.877  15.651  1.00  0.00    -0.019 C 
HETATM    8  C   UNL     1     -39.904 -55.260  15.875  1.00  0.00     0.010 C 
HETATM    9  C   UNL     1     -39.953 -53.207  14.391  1.00  0.00     0.005 C 
HETATM   10  C   UNL     1     -40.492 -53.819  13.097  1.00  0.00     0.007 C 
ENDBRANCH   3   4
ENDBRANCH   1   3
BRANCH   1  11
HETATM   11  C   UNL     1     -41.896 -50.229  12.248  1.00  0.00     0.277 C 
BRANCH  11  12
HETATM   12  C   UNL     1     -40.899 -49.479  11.357  1.00  0.00     0.108 C 
BRANCH  12  13
HETATM   13  C   UNL     1     -41.558 -48.339  10.663  1.00  0.00     0.100 A 
HETATM   14  N   UNL     1     -42.699 -48.384  10.002  1.00  0.00    -0.340 N 
HETATM   15  C   UNL     1     -42.874 -47.097   9.585  1.00  0.00     0.199 A 
ATOM     16  HN  UNL     1     -43.305 -49.187   9.841  1.00  0.00     0.168 HD
HETATM   17  N   UNL     1     -41.915 -46.246   9.952  1.00  0.00    -0.293 N 
HETATM   18  N   UNL     1     -41.079 -47.056  10.628  1.00  0.00    -0.284 N 
ATOM     19  HN  UNL     1     -41.836 -45.245   9.768  1.00  0.00     0.188 HD
HETATM   20  C   UNL     1     -39.882 -46.523  11.225  1.00  0.00     0.179 C 
ENDBRANCH  12  13
ENDBRANCH  11  12
ENDBRANCH   1  11
TORSDOF 5
ENDMDL
MODEL 9
REMARK VINA RESULT:      -4.8      2.282      6.520
REMARK  5 active torsions:
REMARK  status: ('A' for Active; 'I' for Inactive)
REMARK    1  A    between atoms: C_5  and  C_6 
REMARK    2  A    between atoms: C_6  and  N_7 
REMARK    3  A    between atoms: N_7  and  C_8 
REMARK    4  A    between atoms: C_8  and  C_9 
REMARK    5  A    between atoms: C_9  and  C_10 
ROOT
HETATM    1  N   UNL     1     -41.974 -51.576  11.827  1.00  0.00     0.084 N 
HETATM    2  H   UNL     1     -42.155 -51.927  10.886  1.00  0.00     0.315 HD
ENDROOT
BRANCH   1   3
HETATM    3  C   UNL     1     -40.544 -51.287  11.961  1.00  0.00     0.274 C 
BRANCH   3   4
HETATM    4  C   UNL     1     -40.195 -50.826  13.393  1.00  0.00     0.014 C 
HETATM    5  C   UNL     1     -40.326 -49.297  13.519  1.00  0.00     0.007 C 
HETATM    6  C   UNL     1     -39.213 -48.541  12.790  1.00  0.00     0.005 C 
HETATM    7  C   UNL     1     -37.806 -49.004  13.194  1.00  0.00    -0.019 C 
HETATM    8  C   UNL     1     -37.427 -48.487  14.585  1.00  0.00     0.010 C 
HETATM    9  C   UNL     1     -37.675 -50.531  13.109  1.00  0.00     0.005 C 
HETATM   10  C   UNL     1     -38.793 -51.267  13.849  1.00  0.00     0.007 C 
ENDBRANCH   3   4
ENDBRANCH   1   3
BRANCH   1  11
HETATM   11  C   UNL     1     -42.399 -52.576  12.813  1.00  0.00     0.277 C 
BRANCH  11  12
HETATM   12  C   UNL     1     -43.566 -53.405  12.265  1.00  0.00     0.108 C 
BRANCH  12  13
HETATM   13  C   UNL     1     -44.864 -52.926  12.814  1.00  0.00     0.100 A 
HETATM   14  N   UNL     1     -45.368 -51.715  12.678  1.00  0.00    -0.340 N 
HETATM   15  C   UNL     1     -46.564 -51.794  13.328  1.00  0.00     0.199 A 
ATOM     16  HN  UNL     1     -44.961 -50.911  12.200  1.00  0.00     0.168 HD
HETATM   17  N   UNL     1     -46.844 -52.985  13.858  1.00  0.00    -0.293 N 
HETATM   18  N   UNL     1     -45.746 -53.691  13.531  1.00  0.00    -0.284 N 
ATOM     19  HN  UNL     1     -47.672 -53.282  14.376  1.00  0.00     0.188 HD
HETATM   20  C   UNL     1     -45.638 -55.076  13.909  1.00  0.00     0.179 C 
ENDBRANCH  12  13
ENDBRANCH  11  12
ENDBRANCH   1  11
TORSDOF 5
ENDMDL
