MODEL 1
REMARK VINA RESULT:      -5.9      0.000      0.000
REMARK  4 active torsions:
REMARK  status: ('A' for Active; 'I' for Inactive)
REMARK    1  A    between atoms: N_11  and  C_12 
REMARK    2  A    between atoms: C_12  and  C_13 
REMARK    3  A    between atoms: C_13  and  O_14 
REMARK    4  A    between atoms: C_13  and  C_15 
ROOT
HETATM    1  C   UNL     1     -41.837 -56.134  16.811  1.00  0.00     0.164 C 
HETATM    2  N   UNL     1     -41.673 -55.172  15.739  1.00  0.00    -0.269 N 
HETATM    3  C   UNL     1     -40.401 -54.597  15.544  1.00  0.00     0.332 A 
HETATM    4  O   UNL     1     -39.443 -54.899  16.261  1.00  0.00    -0.246 OA
HETATM    5  N   UNL     1     -40.273 -53.670  14.507  1.00  0.00    -0.287 N 
HETATM    6  C   UNL     1     -38.996 -53.036  14.235  1.00  0.00     0.163 C 
HETATM    7  C   UNL     1     -41.370 -53.361  13.740  1.00  0.00     0.145 A 
HETATM    8  N   UNL     1     -41.405 -52.472  12.708  1.00  0.00    -0.336 N 
ATOM      9  HN  UNL     1     -40.639 -51.902  12.348  1.00  0.00     0.168 HD
HETATM   10  C   UNL     1     -42.651 -52.515  12.280  1.00  0.00     0.185 A 
HETATM   11  N   UNL     1     -43.405 -53.403  13.004  1.00  0.00    -0.333 N 
HETATM   12  C   UNL     1     -42.583 -53.942  13.953  1.00  0.00     0.149 A 
HETATM   13  C   UNL     1     -42.812 -54.908  14.970  1.00  0.00     0.282 A 
HETATM   14  O   UNL     1     -43.903 -55.448  15.144  1.00  0.00    -0.265 OA
ENDROOT
BRANCH  11  15
HETATM   15  C   UNL     1     -44.817 -53.671  12.811  1.00  0.00     0.171 C 
BRANCH  15  16
HETATM   16  C   UNL     1     -45.640 -52.404  12.556  1.00  0.00     0.243 C 
BRANCH  16  17
HETATM   17  O   UNL     1     -46.836 -52.712  11.811  1.00  0.00    -0.385 OA
HETATM   18  H   UNL     1     -47.382 -53.329  12.340  1.00  0.00     0.210 HD
ENDBRANCH  16  17
BRANCH  16  19
HETATM   19  C   UNL     1     -45.936 -51.692  13.886  1.00  0.00     0.414 C 
HETATM   20  F   UNL     1     -45.920 -52.545  14.935  1.00  0.00    -0.168 F 
HETATM   21  F   UNL     1     -45.016 -50.732  14.136  1.00  0.00    -0.168 F 
HETATM   22  F   UNL     1     -47.153 -51.102  13.875  1.00  0.00    -0.168 F 
ENDBRANCH  16  19
ENDBRANCH  15  16
ENDBRANCH  11  15
TORSDOF 4
ENDMDL
MODEL 2
REMARK VINA RESULT:      -5.8      5.222      6.213
REMARK  4 active torsions:
REMARK  status: ('A' for Active; 'I' for Inactive)
REMARK    1  A    between atoms: N_11  and  C_12 
REMARK    2  A    between atoms: C_12  and  C_13 
REMARK    3  A    between atoms: C_13  and  O_14 
REMARK    4  A    between atoms: C_13  and  C_15 
ROOT
HETATM    1  C   UNL     1     -41.804 -52.077  13.166  1.00  0.00     0.164 C 
HETATM    2  N   UNL     1     -41.141 -50.906  12.624  1.00  0.00    -0.269 N 
HETATM    3  C   UNL     1     -39.735 -50.924  12.514  1.00  0.00     0.332 A 
HETATM    4  O   UNL     1     -39.076 -51.907  12.864  1.00  0.00    -0.246 OA
HETATM    5  N   UNL     1     -39.123 -49.782  11.994  1.00  0.00    -0.287 N 
HETATM    6  C   UNL     1     -37.681 -49.721  11.841  1.00  0.00     0.163 C 
HETATM    7  C   UNL     1     -39.899 -48.710  11.624  1.00  0.00     0.145 A 
HETATM    8  N   UNL     1     -39.448 -47.528  11.117  1.00  0.00    -0.336 N 
ATOM      9  HN  UNL     1     -38.482 -47.253  10.936  1.00  0.00     0.168 HD
HETATM   10  C   UNL     1     -40.541 -46.821  10.912  1.00  0.00     0.185 A 
HETATM   11  N   UNL     1     -41.668 -47.516  11.269  1.00  0.00    -0.333 N 
HETATM   12  C   UNL     1     -41.255 -48.731  11.739  1.00  0.00     0.149 A 
HETATM   13  C   UNL     1     -41.974 -49.850  12.239  1.00  0.00     0.282 A 
HETATM   14  O   UNL     1     -43.200 -49.874  12.320  1.00  0.00    -0.265 OA
ENDROOT
BRANCH  11  15
HETATM   15  C   UNL     1     -43.029 -47.020  11.197  1.00  0.00     0.171 C 
BRANCH  15  16
HETATM   16  C   UNL     1     -43.726 -47.370   9.879  1.00  0.00     0.243 C 
BRANCH  16  17
HETATM   17  O   UNL     1     -44.958 -48.080  10.123  1.00  0.00    -0.385 OA
HETATM   18  H   UNL     1     -45.368 -48.299   9.260  1.00  0.00     0.210 HD
ENDBRANCH  16  17
BRANCH  16  19
HETATM   19  C   UNL     1     -43.932 -46.098   9.039  1.00  0.00     0.414 C 
HETATM   20  F   UNL     1     -43.538 -44.983   9.697  1.00  0.00    -0.168 F 
HETATM   21  F   UNL     1     -43.220 -46.157   7.890  1.00  0.00    -0.168 F 
HETATM   22  F   UNL     1     -45.231 -45.923   8.709  1.00  0.00    -0.168 F 
ENDBRANCH  16  19
ENDBRANCH  15  16
ENDBRANCH  11  15
TORSDOF 4
ENDMDL
MODEL 3
REMARK VINA RESULT:      -5.8      6.963      9.271
REMARK  4 active torsions:
REMARK  status: ('A' for Active; 'I' for Inactive)
REMARK    1  A    between atoms: N_11  and  C_12 
REMARK    2  A    between atoms: C_12  and  C_13 
REMARK    3  A    between atoms: C_13  and  O_14 
REMARK    4  A    between atoms: C_13  and  C_15 
ROOT
HETATM    1  C   UNL     1     -41.124 -43.309  11.397  1.00  0.00     0.164 C 
HETATM    2  N   UNL     1     -41.470 -44.675  11.049  1.00  0.00    -0.269 N 
HETATM    3  C   UNL     1     -42.641 -44.898  10.298  1.00  0.00     0.332 A 
HETATM    4  O   UNL     1     -43.362 -43.963   9.939  1.00  0.00    -0.246 OA
HETATM    5  N   UNL     1     -42.952 -46.223   9.981  1.00  0.00    -0.287 N 
HETATM    6  C   UNL     1     -44.137 -46.539   9.205  1.00  0.00     0.163 C 
HETATM    7  C   UNL     1     -42.122 -47.230  10.410  1.00  0.00     0.145 A 
HETATM    8  N   UNL     1     -42.299 -48.564  10.192  1.00  0.00    -0.336 N 
ATOM      9  HN  UNL     1     -43.060 -49.020   9.689  1.00  0.00     0.168 HD
HETATM   10  C   UNL     1     -41.263 -49.131  10.777  1.00  0.00     0.185 A 
HETATM   11  N   UNL     1     -40.436 -48.203  11.355  1.00  0.00    -0.333 N 
HETATM   12  C   UNL     1     -40.994 -46.976  11.128  1.00  0.00     0.149 A 
HETATM   13  C   UNL     1     -40.582 -45.664  11.485  1.00  0.00     0.282 A 
HETATM   14  O   UNL     1     -39.550 -45.436  12.115  1.00  0.00    -0.265 OA
ENDROOT
BRANCH  11  15
HETATM   15  C   UNL     1     -39.225 -48.491  12.100  1.00  0.00     0.171 C 
BRANCH  15  16
HETATM   16  C   UNL     1     -38.625 -49.860  11.764  1.00  0.00     0.243 C 
BRANCH  16  17
HETATM   17  O   UNL     1     -37.820 -49.787  10.570  1.00  0.00    -0.385 OA
HETATM   18  H   UNL     1     -37.899 -48.885  10.195  1.00  0.00     0.210 HD
ENDBRANCH  16  17
BRANCH  16  19
HETATM   19  C   UNL     1     -37.845 -50.403  12.973  1.00  0.00     0.414 C 
HETATM   20  F   UNL     1     -36.827 -51.212  12.601  1.00  0.00    -0.168 F 
HETATM   21  F   UNL     1     -37.310 -49.394  13.697  1.00  0.00    -0.168 F 
HETATM   22  F   UNL     1     -38.641 -51.123  13.797  1.00  0.00    -0.168 F 
ENDBRANCH  16  19
ENDBRANCH  15  16
ENDBRANCH  11  15
TORSDOF 4
ENDMDL
MODEL 4
REMARK VINA RESULT:      -5.7      7.305      8.666
REMARK  4 active torsions:
REMARK  status: ('A' for Active; 'I' for Inactive)
REMARK    1  A    between atoms: N_11  and  C_12 
REMARK    2  A    between atoms: C_12  and  C_13 
REMARK    3  A    between atoms: C_13  and  O_14 
REMARK    4  A    between atoms: C_13  and  C_15 
ROOT
HETATM    1  C   UNL     1     -40.589 -42.744  12.180  1.00  0.00     0.164 C 
HETATM    2  N   UNL     1     -40.616 -44.188  12.051  1.00  0.00    -0.269 N 
HETATM    3  C   UNL     1     -39.823 -44.954  12.930  1.00  0.00     0.332 A 
HETATM    4  O   UNL     1     -39.121 -44.419  13.792  1.00  0.00    -0.246 OA
HETATM    5  N   UNL     1     -39.865 -46.342  12.780  1.00  0.00    -0.287 N 
HETATM    6  C   UNL     1     -39.083 -47.203  13.648  1.00  0.00     0.163 C 
HETATM    7  C   UNL     1     -40.657 -46.890  11.800  1.00  0.00     0.145 A 
HETATM    8  N   UNL     1     -40.791 -48.218  11.525  1.00  0.00    -0.336 N 
ATOM      9  HN  UNL     1     -40.332 -49.002  11.989  1.00  0.00     0.168 HD
HETATM   10  C   UNL     1     -41.646 -48.260  10.523  1.00  0.00     0.185 A 
HETATM   11  N   UNL     1     -42.061 -47.005  10.158  1.00  0.00    -0.333 N 
HETATM   12  C   UNL     1     -41.415 -46.119  10.974  1.00  0.00     0.149 A 
HETATM   13  C   UNL     1     -41.456 -44.701  11.057  1.00  0.00     0.282 A 
HETATM   14  O   UNL     1     -42.160 -44.009  10.323  1.00  0.00    -0.265 OA
ENDROOT
BRANCH  11  15
HETATM   15  C   UNL     1     -42.978 -46.695   9.077  1.00  0.00     0.171 C 
BRANCH  15  16
HETATM   16  C   UNL     1     -44.394 -46.374   9.565  1.00  0.00     0.243 C 
BRANCH  16  17
HETATM   17  O   UNL     1     -44.763 -45.025   9.212  1.00  0.00    -0.385 OA
HETATM   18  H   UNL     1     -45.657 -45.041   8.812  1.00  0.00     0.210 HD
ENDBRANCH  16  17
BRANCH  16  19
HETATM   19  C   UNL     1     -45.385 -47.420   9.028  1.00  0.00     0.414 C 
HETATM   20  F   UNL     1     -46.537 -46.857   8.596  1.00  0.00    -0.168 F 
HETATM   21  F   UNL     1     -44.855 -48.098   7.984  1.00  0.00    -0.168 F 
HETATM   22  F   UNL     1     -45.719 -48.323   9.978  1.00  0.00    -0.168 F 
ENDBRANCH  16  19
ENDBRANCH  15  16
ENDBRANCH  11  15
TORSDOF 4
ENDMDL
MODEL 5
REMARK VINA RESULT:      -5.5      5.869      7.256
REMARK  4 active torsions:
REMARK  status: ('A' for Active; 'I' for Inactive)
REMARK    1  A    between atoms: N_11  and  C_12 
REMARK    2  A    between atoms: C_12  and  C_13 
REMARK    3  A    between atoms: C_13  and  O_14 
REMARK    4  A    between atoms: C_13  and  C_15 
ROOT
HETATM    1  C   UNL     1     -37.826 -50.721  12.845  1.00  0.00     0.164 C 
HETATM    2  N   UNL     1     -39.232 -50.440  12.626  1.00  0.00    -0.269 N 
HETATM    3  C   UNL     1     -40.136 -51.522  12.613  1.00  0.00     0.332 A 
HETATM    4  O   UNL     1     -39.752 -52.682  12.785  1.00  0.00    -0.246 OA
HETATM    5  N   UNL     1     -41.483 -51.223  12.395  1.00  0.00    -0.287 N 
HETATM    6  C   UNL     1     -42.480 -52.278  12.373  1.00  0.00     0.163 C 
HETATM    7  C   UNL     1     -41.860 -49.917  12.201  1.00  0.00     0.145 A 
HETATM    8  N   UNL     1     -43.127 -49.473  11.965  1.00  0.00    -0.336 N 
ATOM      9  HN  UNL     1     -43.981 -50.027  11.892  1.00  0.00     0.168 HD
HETATM   10  C   UNL     1     -43.001 -48.166  11.852  1.00  0.00     0.185 A 
HETATM   11  N   UNL     1     -41.699 -47.767  12.012  1.00  0.00    -0.333 N 
HETATM   12  C   UNL     1     -40.960 -48.897  12.227  1.00  0.00     0.149 A 
HETATM   13  C   UNL     1     -39.571 -49.094  12.459  1.00  0.00     0.282 A 
HETATM   14  O   UNL     1     -38.764 -48.167  12.504  1.00  0.00    -0.265 OA
ENDROOT
BRANCH  11  15
HETATM   15  C   UNL     1     -41.211 -46.404  11.922  1.00  0.00     0.171 C 
BRANCH  15  16
HETATM   16  C   UNL     1     -40.698 -46.041  10.525  1.00  0.00     0.243 C 
BRANCH  16  17
HETATM   17  O   UNL     1     -41.797 -45.792   9.625  1.00  0.00    -0.385 OA
HETATM   18  H   UNL     1     -42.635 -45.869  10.126  1.00  0.00     0.210 HD
ENDBRANCH  16  17
BRANCH  16  19
HETATM   19  C   UNL     1     -39.724 -44.855  10.614  1.00  0.00     0.414 C 
HETATM   20  F   UNL     1     -38.777 -44.899   9.648  1.00  0.00    -0.168 F 
HETATM   21  F   UNL     1     -40.379 -43.679  10.478  1.00  0.00    -0.168 F 
HETATM   22  F   UNL     1     -39.076 -44.830  11.801  1.00  0.00    -0.168 F 
ENDBRANCH  16  19
ENDBRANCH  15  16
ENDBRANCH  11  15
TORSDOF 4
ENDMDL
MODEL 6
REMARK VINA RESULT:      -5.5      3.975      5.547
REMARK  4 active torsions:
REMARK  status: ('A' for Active; 'I' for Inactive)
REMARK    1  A    between atoms: N_11  and  C_12 
REMARK    2  A    between atoms: C_12  and  C_13 
REMARK    3  A    between atoms: C_13  and  O_14 
REMARK    4  A    between atoms: C_13  and  C_15 
ROOT
HETATM    1  C   UNL     1     -40.516 -55.159  15.873  1.00  0.00     0.164 C 
HETATM    2  N   UNL     1     -41.278 -54.265  15.022  1.00  0.00    -0.269 N 
HETATM    3  C   UNL     1     -42.608 -54.612  14.708  1.00  0.00     0.332 A 
HETATM    4  O   UNL     1     -43.121 -55.646  15.141  1.00  0.00    -0.246 OA
HETATM    5  N   UNL     1     -43.317 -53.735  13.883  1.00  0.00    -0.287 N 
HETATM    6  C   UNL     1     -44.693 -54.015  13.516  1.00  0.00     0.163 C 
HETATM    7  C   UNL     1     -42.700 -52.599  13.420  1.00  0.00     0.145 A 
HETATM    8  N   UNL     1     -43.254 -51.660  12.601  1.00  0.00    -0.336 N 
ATOM      9  HN  UNL     1     -44.195 -51.652  12.206  1.00  0.00     0.168 HD
HETATM   10  C   UNL     1     -42.300 -50.766  12.435  1.00  0.00     0.185 A 
HETATM   11  N   UNL     1     -41.163 -51.104  13.122  1.00  0.00    -0.333 N 
HETATM   12  C   UNL     1     -41.416 -52.292  13.750  1.00  0.00     0.149 A 
HETATM   13  C   UNL     1     -40.616 -53.108  14.595  1.00  0.00     0.282 A 
HETATM   14  O   UNL     1     -39.464 -52.817  14.910  1.00  0.00    -0.265 OA
ENDROOT
BRANCH  11  15
HETATM   15  C   UNL     1     -39.922 -50.354  13.132  1.00  0.00     0.171 C 
BRANCH  15  16
HETATM   16  C   UNL     1     -39.061 -50.599  11.889  1.00  0.00     0.243 C 
BRANCH  16  17
HETATM   17  O   UNL     1     -39.602 -49.905  10.747  1.00  0.00    -0.385 OA
HETATM   18  H   UNL     1     -40.579 -49.970  10.776  1.00  0.00     0.210 HD
ENDBRANCH  16  17
BRANCH  16  19
HETATM   19  C   UNL     1     -37.599 -50.218  12.177  1.00  0.00     0.414 C 
HETATM   20  F   UNL     1     -36.930 -49.881  11.052  1.00  0.00    -0.168 F 
HETATM   21  F   UNL     1     -37.532 -49.160  13.016  1.00  0.00    -0.168 F 
HETATM   22  F   UNL     1     -36.922 -51.240  12.749  1.00  0.00    -0.168 F 
ENDBRANCH  16  19
ENDBRANCH  15  16
ENDBRANCH  11  15
TORSDOF 4
ENDMDL
MODEL 7
REMARK VINA RESULT:      -5.5      3.681      5.820
REMARK  4 active torsions:
REMARK  status: ('A' for Active; 'I' for Inactive)
REMARK    1  A    between atoms: N_11  and  C_12 
REMARK    2  A    between atoms: C_12  and  C_13 
REMARK    3  A    between atoms: C_13  and  O_14 
REMARK    4  A    between atoms: C_13  and  C_15 
ROOT
HETATM    1  C   UNL     1     -44.287 -54.107  12.872  1.00  0.00     0.164 C 
HETATM    2  N   UNL     1     -43.045 -54.043  13.619  1.00  0.00    -0.269 N 
HETATM    3  C   UNL     1     -42.891 -54.891  14.735  1.00  0.00     0.332 A 
HETATM    4  O   UNL     1     -43.784 -55.671  15.077  1.00  0.00    -0.246 OA
HETATM    5  N   UNL     1     -41.687 -54.805  15.439  1.00  0.00    -0.287 N 
HETATM    6  C   UNL     1     -41.446 -55.647  16.597  1.00  0.00     0.163 C 
HETATM    7  C   UNL     1     -40.727 -53.915  15.024  1.00  0.00     0.145 A 
HETATM    8  N   UNL     1     -39.515 -53.709  15.613  1.00  0.00    -0.336 N 
ATOM      9  HN  UNL     1     -39.135 -54.170  16.439  1.00  0.00     0.168 HD
HETATM   10  C   UNL     1     -38.945 -52.780  14.872  1.00  0.00     0.185 A 
HETATM   11  N   UNL     1     -39.753 -52.393  13.833  1.00  0.00    -0.333 N 
HETATM   12  C   UNL     1     -40.908 -53.117  13.937  1.00  0.00     0.149 A 
HETATM   13  C   UNL     1     -42.087 -53.141  13.145  1.00  0.00     0.282 A 
HETATM   14  O   UNL     1     -42.238 -52.435  12.149  1.00  0.00    -0.265 OA
ENDROOT
BRANCH  11  15
HETATM   15  C   UNL     1     -39.441 -51.374  12.849  1.00  0.00     0.171 C 
BRANCH  15  16
HETATM   16  C   UNL     1     -37.987 -50.898  12.918  1.00  0.00     0.243 C 
BRANCH  16  17
HETATM   17  O   UNL     1     -37.102 -51.864  12.314  1.00  0.00    -0.385 OA
HETATM   18  H   UNL     1     -37.644 -52.572  11.908  1.00  0.00     0.210 HD
ENDBRANCH  16  17
BRANCH  16  19
HETATM   19  C   UNL     1     -37.860 -49.501  12.287  1.00  0.00     0.414 C 
HETATM   20  F   UNL     1     -36.958 -49.478  11.279  1.00  0.00    -0.168 F 
HETATM   21  F   UNL     1     -39.043 -49.093  11.775  1.00  0.00    -0.168 F 
HETATM   22  F   UNL     1     -37.464 -48.579  13.193  1.00  0.00    -0.168 F 
ENDBRANCH  16  19
ENDBRANCH  15  16
ENDBRANCH  11  15
TORSDOF 4
ENDMDL
MODEL 8
REMARK VINA RESULT:      -5.4      1.945      3.067
REMARK  4 active torsions:
REMARK  status: ('A' for Active; 'I' for Inactive)
REMARK    1  A    between atoms: N_11  and  C_12 
REMARK    2  A    between atoms: C_12  and  C_13 
REMARK    3  A    between atoms: C_13  and  O_14 
REMARK    4  A    between atoms: C_13  and  C_15 
ROOT
HETATM    1  C   UNL     1     -39.923 -50.934  12.534  1.00  0.00     0.164 C 
HETATM    2  N   UNL     1     -40.459 -51.989  13.372  1.00  0.00    -0.269 N 
HETATM    3  C   UNL     1     -39.575 -52.975  13.855  1.00  0.00     0.332 A 
HETATM    4  O   UNL     1     -38.373 -52.950  13.579  1.00  0.00    -0.246 OA
HETATM    5  N   UNL     1     -40.119 -53.981  14.657  1.00  0.00    -0.287 N 
HETATM    6  C   UNL     1     -39.276 -55.031  15.200  1.00  0.00     0.163 C 
HETATM    7  C   UNL     1     -41.465 -53.971  14.930  1.00  0.00     0.145 A 
HETATM    8  N   UNL     1     -42.140 -54.887  15.680  1.00  0.00    -0.336 N 
ATOM      9  HN  UNL     1     -41.764 -55.712  16.147  1.00  0.00     0.168 HD
HETATM   10  C   UNL     1     -43.389 -54.465  15.667  1.00  0.00     0.185 A 
HETATM   11  N   UNL     1     -43.527 -53.313  14.937  1.00  0.00    -0.333 N 
HETATM   12  C   UNL     1     -42.288 -52.998  14.452  1.00  0.00     0.149 A 
HETATM   13  C   UNL     1     -41.830 -51.922  13.644  1.00  0.00     0.282 A 
HETATM   14  O   UNL     1     -42.572 -51.033  13.232  1.00  0.00    -0.265 OA
ENDROOT
BRANCH  11  15
HETATM   15  C   UNL     1     -44.769 -52.602  14.699  1.00  0.00     0.171 C 
BRANCH  15  16
HETATM   16  C   UNL     1     -45.392 -52.923  13.336  1.00  0.00     0.243 C 
BRANCH  16  17
HETATM   17  O   UNL     1     -46.072 -54.194  13.371  1.00  0.00    -0.385 OA
HETATM   18  H   UNL     1     -47.036 -54.031  13.433  1.00  0.00     0.210 HD
ENDBRANCH  16  17
BRANCH  16  19
HETATM   19  C   UNL     1     -46.310 -51.771  12.893  1.00  0.00     0.414 C 
HETATM   20  F   UNL     1     -47.115 -51.347  13.895  1.00  0.00    -0.168 F 
HETATM   21  F   UNL     1     -45.585 -50.705  12.485  1.00  0.00    -0.168 F 
HETATM   22  F   UNL     1     -47.112 -52.139  11.869  1.00  0.00    -0.168 F 
ENDBRANCH  16  19
ENDBRANCH  15  16
ENDBRANCH  11  15
TORSDOF 4
ENDMDL
MODEL 9
REMARK VINA RESULT:      -5.3      2.694      3.824
REMARK  4 active torsions:
REMARK  status: ('A' for Active; 'I' for Inactive)
REMARK    1  A    between atoms: N_11  and  C_12 
REMARK    2  A    between atoms: C_12  and  C_13 
REMARK    3  A    between atoms: C_13  and  O_14 
REMARK    4  A    between atoms: C_13  and  C_15 
ROOT
HETATM    1  C   UNL     1     -38.237 -51.817  16.669  1.00  0.00     0.164 C 
HETATM    2  N   UNL     1     -38.785 -51.656  15.336  1.00  0.00    -0.269 N 
HETATM    3  C   UNL     1     -38.325 -50.581  14.548  1.00  0.00     0.332 A 
HETATM    4  O   UNL     1     -37.477 -49.791  14.972  1.00  0.00    -0.246 OA
HETATM    5  N   UNL     1     -38.873 -50.447  13.270  1.00  0.00    -0.287 N 
HETATM    6  C   UNL     1     -38.450 -49.371  12.393  1.00  0.00     0.163 C 
HETATM    7  C   UNL     1     -39.820 -51.347  12.846  1.00  0.00     0.145 A 
HETATM    8  N   UNL     1     -40.452 -51.340  11.638  1.00  0.00    -0.336 N 
ATOM      9  HN  UNL     1     -40.329 -50.677  10.873  1.00  0.00     0.168 HD
HETATM   10  C   UNL     1     -41.257 -52.382  11.683  1.00  0.00     0.185 A 
HETATM   11  N   UNL     1     -41.154 -53.051  12.876  1.00  0.00    -0.333 N 
HETATM   12  C   UNL     1     -40.235 -52.378  13.631  1.00  0.00     0.149 A 
HETATM   13  C   UNL     1     -39.727 -52.611  14.938  1.00  0.00     0.282 A 
HETATM   14  O   UNL     1     -40.088 -53.557  15.636  1.00  0.00    -0.265 OA
ENDROOT
BRANCH  11  15
HETATM   15  C   UNL     1     -41.918 -54.222  13.261  1.00  0.00     0.171 C 
BRANCH  15  16
HETATM   16  C   UNL     1     -43.416 -53.938  13.415  1.00  0.00     0.243 C 
BRANCH  16  17
HETATM   17  O   UNL     1     -44.099 -54.095  12.155  1.00  0.00    -0.385 OA
HETATM   18  H   UNL     1     -44.027 -55.032  11.876  1.00  0.00     0.210 HD
ENDBRANCH  16  17
BRANCH  16  19
HETATM   19  C   UNL     1     -44.007 -54.823  14.525  1.00  0.00     0.414 C 
HETATM   20  F   UNL     1     -43.067 -55.592  15.119  1.00  0.00    -0.168 F 
HETATM   21  F   UNL     1     -44.577 -54.068  15.493  1.00  0.00    -0.168 F 
HETATM   22  F   UNL     1     -44.955 -55.658  14.044  1.00  0.00    -0.168 F 
ENDBRANCH  16  19
ENDBRANCH  15  16
ENDBRANCH  11  15
TORSDOF 4
ENDMDL
