MODEL 1
REMARK VINA RESULT:      -6.5      0.000      0.000
REMARK  4 active torsions:
REMARK  status: ('A' for Active; 'I' for Inactive)
REMARK    1  A    between atoms: N_6  and  C_7 
REMARK    2  A    between atoms: C_7  and  C_8 
REMARK    3  A    between atoms: C_8  and  O_9 
REMARK    4  A    between atoms: C_8  and  C_10 
ROOT
HETATM    1  C   UNL     1     -40.324 -51.592  12.892  1.00  0.00     0.169 C 
ENDROOT
BRANCH   1   2
HETATM    2  N   UNL     1     -40.264 -50.188  12.495  1.00  0.00    -0.307 N 
HETATM    3  C   UNL     1     -40.742 -49.792  11.276  1.00  0.00     0.186 A 
HETATM    4  N   UNL     1     -40.674 -48.590  10.813  1.00  0.00    -0.355 N 
HETATM    5  C   UNL     1     -40.081 -47.640  11.607  1.00  0.00     0.017 A 
ATOM      6  HN  UNL     1     -41.046 -48.355   9.893  1.00  0.00     0.166 HD
HETATM    7  C   UNL     1     -39.982 -46.275  10.975  1.00  0.00     0.069 C 
HETATM    8  C   UNL     1     -39.620 -47.879  12.849  1.00  0.00     0.028 A 
HETATM    9  C   UNL     1     -39.747 -49.265  13.372  1.00  0.00     0.256 A 
HETATM   10  C   UNL     1     -38.974 -46.852  13.726  1.00  0.00     0.056 C 
HETATM   11  O   UNL     1     -39.392 -49.549  14.515  1.00  0.00    -0.267 OA
ENDBRANCH   1   2
BRANCH   1  12
HETATM   12  C   UNL     1     -41.255 -52.451  12.007  1.00  0.00     0.169 C 
BRANCH  12  13
HETATM   13  O   UNL     1     -40.455 -53.465  11.382  1.00  0.00    -0.389 OA
HETATM   14  H   UNL     1     -39.726 -53.026  10.910  1.00  0.00     0.210 HD
ENDBRANCH  12  13
BRANCH  12  15
HETATM   15  C   UNL     1     -42.396 -53.144  12.744  1.00  0.00    -0.025 A 
HETATM   16  C   UNL     1     -42.195 -54.094  13.763  1.00  0.00     0.013 A 
HETATM   17  C   UNL     1     -43.277 -54.730  14.382  1.00  0.00     0.046 A 
HETATM   18  C   UNL     1     -44.573 -54.420  13.994  1.00  0.00     0.154 A 
HETATM   19  F   UNL     1     -45.602 -55.048  14.579  1.00  0.00    -0.203 F 
HETATM   20  C   UNL     1     -44.796 -53.473  13.006  1.00  0.00     0.155 A 
HETATM   21  F   UNL     1     -46.047 -53.174  12.629  1.00  0.00    -0.203 F 
HETATM   22  C   UNL     1     -43.723 -52.834  12.385  1.00  0.00     0.055 A 
ENDBRANCH  12  15
ENDBRANCH   1  12
TORSDOF 4
ENDMDL
MODEL 2
REMARK VINA RESULT:      -6.4      4.562      5.828
REMARK  4 active torsions:
REMARK  status: ('A' for Active; 'I' for Inactive)
REMARK    1  A    between atoms: N_6  and  C_7 
REMARK    2  A    between atoms: C_7  and  C_8 
REMARK    3  A    between atoms: C_8  and  O_9 
REMARK    4  A    between atoms: C_8  and  C_10 
ROOT
HETATM    1  C   UNL     1     -44.637 -54.076  12.965  1.00  0.00     0.169 C 
ENDROOT
BRANCH   1   2
HETATM    2  N   UNL     1     -43.272 -54.081  13.485  1.00  0.00    -0.307 N 
HETATM    3  C   UNL     1     -42.266 -53.465  12.793  1.00  0.00     0.186 A 
HETATM    4  N   UNL     1     -41.023 -53.472  13.139  1.00  0.00    -0.355 N 
HETATM    5  C   UNL     1     -40.691 -54.144  14.289  1.00  0.00     0.017 A 
ATOM      6  HN  UNL     1     -40.314 -52.996  12.579  1.00  0.00     0.166 HD
HETATM    7  C   UNL     1     -39.215 -54.162  14.594  1.00  0.00     0.069 C 
HETATM    8  C   UNL     1     -41.586 -54.744  15.094  1.00  0.00     0.028 A 
HETATM    9  C   UNL     1     -43.017 -54.687  14.692  1.00  0.00     0.256 A 
HETATM   10  C   UNL     1     -41.238 -55.478  16.352  1.00  0.00     0.056 C 
HETATM   11  O   UNL     1     -43.898 -55.171  15.401  1.00  0.00    -0.267 OA
ENDBRANCH   1   2
BRANCH   1  12
HETATM   12  C   UNL     1     -45.243 -52.662  12.818  1.00  0.00     0.169 C 
BRANCH  12  13
HETATM   13  O   UNL     1     -46.499 -52.792  12.137  1.00  0.00    -0.389 OA
HETATM   14  H   UNL     1     -47.210 -52.708  12.796  1.00  0.00     0.210 HD
ENDBRANCH  12  13
BRANCH  12  15
HETATM   15  C   UNL     1     -45.497 -51.925  14.129  1.00  0.00    -0.025 A 
HETATM   16  C   UNL     1     -44.517 -51.160  14.789  1.00  0.00     0.013 A 
HETATM   17  C   UNL     1     -44.792 -50.533  16.011  1.00  0.00     0.046 A 
HETATM   18  C   UNL     1     -46.050 -50.660  16.583  1.00  0.00     0.154 A 
HETATM   19  F   UNL     1     -46.297 -50.073  17.762  1.00  0.00    -0.203 F 
HETATM   20  C   UNL     1     -47.036 -51.393  15.941  1.00  0.00     0.155 A 
HETATM   21  F   UNL     1     -48.251 -51.517  16.494  1.00  0.00    -0.203 F 
HETATM   22  C   UNL     1     -46.772 -52.019  14.723  1.00  0.00     0.055 A 
ENDBRANCH  12  15
ENDBRANCH   1  12
TORSDOF 4
ENDMDL
MODEL 3
REMARK VINA RESULT:      -6.3      1.463      2.149
REMARK  4 active torsions:
REMARK  status: ('A' for Active; 'I' for Inactive)
REMARK    1  A    between atoms: N_6  and  C_7 
REMARK    2  A    between atoms: C_7  and  C_8 
REMARK    3  A    between atoms: C_8  and  O_9 
REMARK    4  A    between atoms: C_8  and  C_10 
ROOT
HETATM    1  C   UNL     1     -40.839 -51.378  12.889  1.00  0.00     0.169 C 
ENDROOT
BRANCH   1   2
HETATM    2  N   UNL     1     -40.843 -50.032  12.325  1.00  0.00    -0.307 N 
HETATM    3  C   UNL     1     -39.786 -49.591  11.576  1.00  0.00     0.186 A 
HETATM    4  N   UNL     1     -39.671 -48.401  11.092  1.00  0.00    -0.355 N 
HETATM    5  C   UNL     1     -40.689 -47.515  11.346  1.00  0.00     0.017 A 
ATOM      6  HN  UNL     1     -38.856 -48.128  10.543  1.00  0.00     0.166 HD
HETATM    7  C   UNL     1     -40.456 -46.128  10.803  1.00  0.00     0.069 C 
HETATM    8  C   UNL     1     -41.811 -47.831  12.018  1.00  0.00     0.028 A 
HETATM    9  C   UNL     1     -41.934 -49.222  12.530  1.00  0.00     0.256 A 
HETATM   10  C   UNL     1     -42.930 -46.876  12.299  1.00  0.00     0.056 C 
HETATM   11  O   UNL     1     -42.951 -49.599  13.112  1.00  0.00    -0.267 OA
ENDBRANCH   1   2
BRANCH   1  12
HETATM   12  C   UNL     1     -41.528 -52.432  11.993  1.00  0.00     0.169 C 
BRANCH  12  13
HETATM   13  O   UNL     1     -40.538 -53.400  11.614  1.00  0.00    -0.389 OA
HETATM   14  H   UNL     1     -39.809 -52.929  11.172  1.00  0.00     0.210 HD
ENDBRANCH  12  13
BRANCH  12  15
HETATM   15  C   UNL     1     -42.688 -53.180  12.641  1.00  0.00    -0.025 A 
HETATM   16  C   UNL     1     -44.036 -52.965  12.298  1.00  0.00     0.013 A 
HETATM   17  C   UNL     1     -45.066 -53.651  12.952  1.00  0.00     0.046 A 
HETATM   18  C   UNL     1     -44.760 -54.563  13.952  1.00  0.00     0.154 A 
HETATM   19  F   UNL     1     -45.754 -55.201  14.585  1.00  0.00    -0.203 F 
HETATM   20  C   UNL     1     -43.439 -54.805  14.293  1.00  0.00     0.155 A 
HETATM   21  F   UNL     1     -43.142 -55.686  15.260  1.00  0.00    -0.203 F 
HETATM   22  C   UNL     1     -42.406 -54.127  13.646  1.00  0.00     0.055 A 
ENDBRANCH  12  15
ENDBRANCH   1  12
TORSDOF 4
ENDMDL
MODEL 4
REMARK VINA RESULT:      -6.2      3.861      6.715
REMARK  4 active torsions:
REMARK  status: ('A' for Active; 'I' for Inactive)
REMARK    1  A    between atoms: N_6  and  C_7 
REMARK    2  A    between atoms: C_7  and  C_8 
REMARK    3  A    between atoms: C_8  and  O_9 
REMARK    4  A    between atoms: C_8  and  C_10 
ROOT
HETATM    1  C   UNL     1     -42.275 -52.086  12.107  1.00  0.00     0.169 C 
ENDROOT
BRANCH   1   2
HETATM    2  N   UNL     1     -43.396 -52.613  12.881  1.00  0.00    -0.307 N 
HETATM    3  C   UNL     1     -43.471 -53.948  13.169  1.00  0.00     0.186 A 
HETATM    4  N   UNL     1     -44.451 -54.514  13.789  1.00  0.00    -0.355 N 
HETATM    5  C   UNL     1     -45.491 -53.713  14.190  1.00  0.00     0.017 A 
ATOM      6  HN  UNL     1     -44.454 -55.518  13.972  1.00  0.00     0.166 HD
HETATM    7  C   UNL     1     -46.627 -54.453  14.850  1.00  0.00     0.069 C 
HETATM    8  C   UNL     1     -45.520 -52.378  14.023  1.00  0.00     0.028 A 
HETATM    9  C   UNL     1     -44.359 -51.747  13.341  1.00  0.00     0.256 A 
HETATM   10  C   UNL     1     -46.647 -51.493  14.458  1.00  0.00     0.056 C 
HETATM   11  O   UNL     1     -44.292 -50.528  13.194  1.00  0.00    -0.267 OA
ENDBRANCH   1   2
BRANCH   1  12
HETATM   12  C   UNL     1     -40.897 -52.610  12.570  1.00  0.00     0.169 C 
BRANCH  12  13
HETATM   13  O   UNL     1     -40.387 -53.471  11.541  1.00  0.00    -0.389 OA
HETATM   14  H   UNL     1     -39.924 -54.212  11.969  1.00  0.00     0.210 HD
ENDBRANCH  12  13
BRANCH  12  15
HETATM   15  C   UNL     1     -39.850 -51.535  12.842  1.00  0.00    -0.025 A 
HETATM   16  C   UNL     1     -38.874 -51.642  13.850  1.00  0.00     0.013 A 
HETATM   17  C   UNL     1     -37.959 -50.608  14.083  1.00  0.00     0.046 A 
HETATM   18  C   UNL     1     -38.007 -49.458  13.307  1.00  0.00     0.154 A 
HETATM   19  F   UNL     1     -37.140 -48.466  13.550  1.00  0.00    -0.203 F 
HETATM   20  C   UNL     1     -38.948 -49.339  12.296  1.00  0.00     0.155 A 
HETATM   21  F   UNL     1     -38.995 -48.228  11.547  1.00  0.00    -0.203 F 
HETATM   22  C   UNL     1     -39.862 -50.365  12.056  1.00  0.00     0.055 A 
ENDBRANCH  12  15
ENDBRANCH   1  12
TORSDOF 4
ENDMDL
MODEL 5
REMARK VINA RESULT:      -6.1      2.055      2.487
REMARK  4 active torsions:
REMARK  status: ('A' for Active; 'I' for Inactive)
REMARK    1  A    between atoms: N_6  and  C_7 
REMARK    2  A    between atoms: C_7  and  C_8 
REMARK    3  A    between atoms: C_8  and  O_9 
REMARK    4  A    between atoms: C_8  and  C_10 
ROOT
HETATM    1  C   UNL     1     -39.919 -52.943  13.763  1.00  0.00     0.169 C 
ENDROOT
BRANCH   1   2
HETATM    2  N   UNL     1     -39.264 -51.668  14.046  1.00  0.00    -0.307 N 
HETATM    3  C   UNL     1     -39.340 -50.638  13.150  1.00  0.00     0.186 A 
HETATM    4  N   UNL     1     -38.744 -49.501  13.281  1.00  0.00    -0.355 N 
HETATM    5  C   UNL     1     -37.981 -49.315  14.408  1.00  0.00     0.017 A 
ATOM      6  HN  UNL     1     -38.835 -48.770  12.576  1.00  0.00     0.166 HD
HETATM    7  C   UNL     1     -37.265 -47.990  14.462  1.00  0.00     0.069 C 
HETATM    8  C   UNL     1     -37.865 -50.222  15.395  1.00  0.00     0.028 A 
HETATM    9  C   UNL     1     -38.595 -51.507  15.235  1.00  0.00     0.256 A 
HETATM   10  C   UNL     1     -37.038 -50.031  16.629  1.00  0.00     0.056 C 
HETATM   11  O   UNL     1     -38.576 -52.365  16.117  1.00  0.00    -0.267 OA
ENDBRANCH   1   2
BRANCH   1  12
HETATM   12  C   UNL     1     -41.034 -52.848  12.697  1.00  0.00     0.169 C 
BRANCH  12  13
HETATM   13  O   UNL     1     -40.590 -53.563  11.534  1.00  0.00    -0.389 OA
HETATM   14  H   UNL     1     -39.906 -53.028  11.095  1.00  0.00     0.210 HD
ENDBRANCH  12  13
BRANCH  12  15
HETATM   15  C   UNL     1     -42.382 -53.425  13.114  1.00  0.00    -0.025 A 
HETATM   16  C   UNL     1     -42.528 -54.418  14.101  1.00  0.00     0.013 A 
HETATM   17  C   UNL     1     -43.787 -54.942  14.419  1.00  0.00     0.046 A 
HETATM   18  C   UNL     1     -44.915 -54.475  13.758  1.00  0.00     0.154 A 
HETATM   19  F   UNL     1     -46.113 -54.995  14.055  1.00  0.00    -0.203 F 
HETATM   20  C   UNL     1     -44.797 -53.483  12.796  1.00  0.00     0.155 A 
HETATM   21  F   UNL     1     -45.886 -53.033  12.157  1.00  0.00    -0.203 F 
HETATM   22  C   UNL     1     -43.547 -52.956  12.474  1.00  0.00     0.055 A 
ENDBRANCH  12  15
ENDBRANCH   1  12
TORSDOF 4
ENDMDL
MODEL 6
REMARK VINA RESULT:      -5.9      1.739      2.109
REMARK  4 active torsions:
REMARK  status: ('A' for Active; 'I' for Inactive)
REMARK    1  A    between atoms: N_6  and  C_7 
REMARK    2  A    between atoms: C_7  and  C_8 
REMARK    3  A    between atoms: C_8  and  O_9 
REMARK    4  A    between atoms: C_8  and  C_10 
ROOT
HETATM    1  C   UNL     1     -41.453 -52.212  13.759  1.00  0.00     0.169 C 
ENDROOT
BRANCH   1   2
HETATM    2  N   UNL     1     -40.906 -50.965  13.230  1.00  0.00    -0.307 N 
HETATM    3  C   UNL     1     -41.660 -49.824  13.226  1.00  0.00     0.186 A 
HETATM    4  N   UNL     1     -41.288 -48.696  12.723  1.00  0.00    -0.355 N 
HETATM    5  C   UNL     1     -40.040 -48.640  12.154  1.00  0.00     0.017 A 
ATOM      6  HN  UNL     1     -41.897 -47.879  12.747  1.00  0.00     0.166 HD
HETATM    7  C   UNL     1     -39.700 -47.310  11.532  1.00  0.00     0.069 C 
HETATM    8  C   UNL     1     -39.173 -49.669  12.140  1.00  0.00     0.028 A 
HETATM    9  C   UNL     1     -39.614 -50.946  12.762  1.00  0.00     0.256 A 
HETATM   10  C   UNL     1     -37.808 -49.620  11.525  1.00  0.00     0.056 C 
HETATM   11  O   UNL     1     -38.859 -51.915  12.830  1.00  0.00    -0.267 OA
ENDBRANCH   1   2
BRANCH   1  12
HETATM   12  C   UNL     1     -42.422 -52.926  12.792  1.00  0.00     0.169 C 
BRANCH  12  13
HETATM   13  O   UNL     1     -41.866 -54.214  12.485  1.00  0.00    -0.389 OA
HETATM   14  H   UNL     1     -41.190 -54.094  11.795  1.00  0.00     0.210 HD
ENDBRANCH  12  13
BRANCH  12  15
HETATM   15  C   UNL     1     -43.834 -53.143  13.328  1.00  0.00    -0.025 A 
HETATM   16  C   UNL     1     -44.347 -54.409  13.667  1.00  0.00     0.013 A 
HETATM   17  C   UNL     1     -45.664 -54.557  14.119  1.00  0.00     0.046 A 
HETATM   18  C   UNL     1     -46.480 -53.441  14.242  1.00  0.00     0.154 A 
HETATM   19  F   UNL     1     -47.745 -53.595  14.657  1.00  0.00    -0.203 F 
HETATM   20  C   UNL     1     -45.990 -52.182  13.932  1.00  0.00     0.155 A 
HETATM   21  F   UNL     1     -46.778 -51.104  14.050  1.00  0.00    -0.203 F 
HETATM   22  C   UNL     1     -44.679 -52.025  13.482  1.00  0.00     0.055 A 
ENDBRANCH  12  15
ENDBRANCH   1  12
TORSDOF 4
ENDMDL
MODEL 7
REMARK VINA RESULT:      -5.8      2.522      3.471
REMARK  4 active torsions:
REMARK  status: ('A' for Active; 'I' for Inactive)
REMARK    1  A    between atoms: N_6  and  C_7 
REMARK    2  A    between atoms: C_7  and  C_8 
REMARK    3  A    between atoms: C_8  and  O_9 
REMARK    4  A    between atoms: C_8  and  C_10 
ROOT
HETATM    1  C   UNL     1     -42.140 -53.962  14.402  1.00  0.00     0.169 C 
ENDROOT
BRANCH   1   2
HETATM    2  N   UNL     1     -41.761 -52.799  13.604  1.00  0.00    -0.307 N 
HETATM    3  C   UNL     1     -41.570 -52.917  12.255  1.00  0.00     0.186 A 
HETATM    4  N   UNL     1     -41.174 -51.965  11.480  1.00  0.00    -0.355 N 
HETATM    5  C   UNL     1     -40.930 -50.743  12.057  1.00  0.00     0.017 A 
ATOM      6  HN  UNL     1     -41.045 -52.114  10.479  1.00  0.00     0.166 HD
HETATM    7  C   UNL     1     -40.410 -49.698  11.102  1.00  0.00     0.069 C 
HETATM    8  C   UNL     1     -41.131 -50.472  13.359  1.00  0.00     0.028 A 
HETATM    9  C   UNL     1     -41.626 -51.579  14.221  1.00  0.00     0.256 A 
HETATM   10  C   UNL     1     -40.872 -49.143  14.000  1.00  0.00     0.056 C 
HETATM   11  O   UNL     1     -41.878 -51.395  15.411  1.00  0.00    -0.267 OA
ENDBRANCH   1   2
BRANCH   1  12
HETATM   12  C   UNL     1     -43.592 -54.433  14.166  1.00  0.00     0.169 C 
BRANCH  12  13
HETATM   13  O   UNL     1     -43.761 -55.690  14.838  1.00  0.00    -0.389 OA
HETATM   14  H   UNL     1     -44.468 -56.182  14.384  1.00  0.00     0.210 HD
ENDBRANCH  12  13
BRANCH  12  15
HETATM   15  C   UNL     1     -44.674 -53.484  14.673  1.00  0.00    -0.025 A 
HETATM   16  C   UNL     1     -45.017 -53.357  16.032  1.00  0.00     0.013 A 
HETATM   17  C   UNL     1     -46.044 -52.498  16.441  1.00  0.00     0.046 A 
HETATM   18  C   UNL     1     -46.737 -51.754  15.496  1.00  0.00     0.154 A 
HETATM   19  F   UNL     1     -47.731 -50.949  15.894  1.00  0.00    -0.203 F 
HETATM   20  C   UNL     1     -46.403 -51.849  14.154  1.00  0.00     0.155 A 
HETATM   21  F   UNL     1     -47.072 -51.131  13.241  1.00  0.00    -0.203 F 
HETATM   22  C   UNL     1     -45.380 -52.701  13.738  1.00  0.00     0.055 A 
ENDBRANCH  12  15
ENDBRANCH   1  12
TORSDOF 4
ENDMDL
MODEL 8
REMARK VINA RESULT:      -5.7      3.390      5.696
REMARK  4 active torsions:
REMARK  status: ('A' for Active; 'I' for Inactive)
REMARK    1  A    between atoms: N_6  and  C_7 
REMARK    2  A    between atoms: C_7  and  C_8 
REMARK    3  A    between atoms: C_8  and  O_9 
REMARK    4  A    between atoms: C_8  and  C_10 
ROOT
HETATM    1  C   UNL     1     -41.500 -53.650  13.811  1.00  0.00     0.169 C 
ENDROOT
BRANCH   1   2
HETATM    2  N   UNL     1     -42.855 -53.136  13.628  1.00  0.00    -0.307 N 
HETATM    3  C   UNL     1     -43.522 -53.344  12.453  1.00  0.00     0.186 A 
HETATM    4  N   UNL     1     -44.691 -52.874  12.175  1.00  0.00    -0.355 N 
HETATM    5  C   UNL     1     -45.310 -52.114  13.137  1.00  0.00     0.017 A 
ATOM      6  HN  UNL     1     -45.138 -53.060  11.277  1.00  0.00     0.166 HD
HETATM    7  C   UNL     1     -46.644 -51.548  12.718  1.00  0.00     0.069 C 
HETATM    8  C   UNL     1     -44.794 -51.879  14.357  1.00  0.00     0.028 A 
HETATM    9  C   UNL     1     -43.462 -52.465  14.663  1.00  0.00     0.256 A 
HETATM   10  C   UNL     1     -45.460 -51.054  15.415  1.00  0.00     0.056 C 
HETATM   11  O   UNL     1     -42.948 -52.333  15.772  1.00  0.00    -0.267 OA
ENDBRANCH   1   2
BRANCH   1  12
HETATM   12  C   UNL     1     -40.438 -52.926  12.953  1.00  0.00     0.169 C 
BRANCH  12  13
HETATM   13  O   UNL     1     -40.570 -53.396  11.603  1.00  0.00    -0.389 OA
HETATM   14  H   UNL     1     -39.730 -53.815  11.346  1.00  0.00     0.210 HD
ENDBRANCH  12  13
BRANCH  12  15
HETATM   15  C   UNL     1     -40.547 -51.405  12.931  1.00  0.00    -0.025 A 
HETATM   16  C   UNL     1     -40.342 -50.597  14.065  1.00  0.00     0.013 A 
HETATM   17  C   UNL     1     -40.492 -49.207  13.998  1.00  0.00     0.046 A 
HETATM   18  C   UNL     1     -40.844 -48.608  12.796  1.00  0.00     0.154 A 
HETATM   19  F   UNL     1     -41.003 -47.279  12.747  1.00  0.00    -0.203 F 
HETATM   20  C   UNL     1     -41.032 -49.382  11.662  1.00  0.00     0.155 A 
HETATM   21  F   UNL     1     -41.373 -48.805  10.501  1.00  0.00    -0.203 F 
HETATM   22  C   UNL     1     -40.884 -50.768  11.719  1.00  0.00     0.055 A 
ENDBRANCH  12  15
ENDBRANCH   1  12
TORSDOF 4
ENDMDL
MODEL 9
REMARK VINA RESULT:      -5.6      3.026      4.814
REMARK  4 active torsions:
REMARK  status: ('A' for Active; 'I' for Inactive)
REMARK    1  A    between atoms: N_6  and  C_7 
REMARK    2  A    between atoms: C_7  and  C_8 
REMARK    3  A    between atoms: C_8  and  O_9 
REMARK    4  A    between atoms: C_8  and  C_10 
ROOT
HETATM    1  C   UNL     1     -40.179 -51.773  13.229  1.00  0.00     0.169 C 
ENDROOT
BRANCH   1   2
HETATM    2  N   UNL     1     -40.175 -52.537  14.474  1.00  0.00    -0.307 N 
HETATM    3  C   UNL     1     -40.924 -52.123  15.542  1.00  0.00     0.186 A 
HETATM    4  N   UNL     1     -40.934 -52.693  16.700  1.00  0.00    -0.355 N 
HETATM    5  C   UNL     1     -40.137 -53.799  16.866  1.00  0.00     0.017 A 
ATOM      6  HN  UNL     1     -41.512 -52.336  17.461  1.00  0.00     0.166 HD
HETATM    7  C   UNL     1     -40.153 -54.372  18.260  1.00  0.00     0.069 C 
HETATM    8  C   UNL     1     -39.396 -54.346  15.886  1.00  0.00     0.028 A 
HETATM    9  C   UNL     1     -39.433 -53.691  14.551  1.00  0.00     0.256 A 
HETATM   10  C   UNL     1     -38.524 -55.552  16.053  1.00  0.00     0.056 C 
HETATM   11  O   UNL     1     -38.820 -54.160  13.594  1.00  0.00    -0.267 OA
ENDBRANCH   1   2
BRANCH   1  12
HETATM   12  C   UNL     1     -41.225 -52.263  12.202  1.00  0.00     0.169 C 
BRANCH  12  13
HETATM   13  O   UNL     1     -40.681 -53.413  11.537  1.00  0.00    -0.389 OA
HETATM   14  H   UNL     1     -41.383 -53.803  10.987  1.00  0.00     0.210 HD
ENDBRANCH  12  13
BRANCH  12  15
HETATM   15  C   UNL     1     -42.577 -52.658  12.788  1.00  0.00    -0.025 A 
HETATM   16  C   UNL     1     -42.945 -53.990  13.056  1.00  0.00     0.013 A 
HETATM   17  C   UNL     1     -44.214 -54.301  13.559  1.00  0.00     0.046 A 
HETATM   18  C   UNL     1     -45.127 -53.284  13.804  1.00  0.00     0.154 A 
HETATM   19  F   UNL     1     -46.345 -53.594  14.267  1.00  0.00    -0.203 F 
HETATM   20  C   UNL     1     -44.779 -51.964  13.566  1.00  0.00     0.155 A 
HETATM   21  F   UNL     1     -45.660 -50.982  13.801  1.00  0.00    -0.203 F 
HETATM   22  C   UNL     1     -43.516 -51.645  13.066  1.00  0.00     0.055 A 
ENDBRANCH  12  15
ENDBRANCH   1  12
TORSDOF 4
ENDMDL
