MODEL 1
REMARK VINA RESULT:      -5.0      0.000      0.000
REMARK  8 active torsions:
REMARK  status: ('A' for Active; 'I' for Inactive)
REMARK    1  A    between atoms: O_2  and  C_3 
REMARK    2  A    between atoms: C_8  and  N_9 
REMARK    3  A    between atoms: N_9  and  C_10 
REMARK    4  A    between atoms: C_10  and  C_11 
REMARK    5  A    between atoms: C_11  and  O_12 
REMARK    6  A    between atoms: O_12  and  C_13 
REMARK    7  A    between atoms: C_13  and  C_14 
REMARK    8  A    between atoms: C_14  and  O_15 
ROOT
HETATM    1  C   UNL     1     -41.594 -46.522  10.466  1.00  0.00     0.145 A 
HETATM    2  C   UNL     1     -42.916 -46.686  10.787  1.00  0.00     0.073 A 
HETATM    3  C   UNL     1     -43.269 -47.963  11.140  1.00  0.00     0.095 A 
HETATM    4  N   UNL     1     -42.401 -48.992  11.169  1.00  0.00    -0.343 N 
ATOM      5  HN  UNL     1     -42.695 -49.930  11.444  1.00  0.00     0.167 HD
HETATM    6  C   UNL     1     -41.134 -48.730  10.821  1.00  0.00     0.159 A 
HETATM    7  N   UNL     1     -40.690 -47.515  10.488  1.00  0.00    -0.313 N 
ATOM      8  HN  UNL     1     -39.710 -47.350  10.261  1.00  0.00     0.170 HD
ENDROOT
BRANCH   6   9
HETATM    9  N   UNL     1     -40.275 -49.812  10.783  1.00  0.00    -0.262 NA
HETATM   10  H   UNL     1     -40.802 -50.636  11.059  1.00  0.00     0.130 HD
BRANCH   9  11
HETATM   11  C   UNL     1     -38.995 -49.666  11.465  1.00  0.00     0.121 C 
BRANCH  11  12
HETATM   12  C   UNL     1     -38.958 -50.482  12.763  1.00  0.00     0.182 C 
BRANCH  12  13
HETATM   13  O   UNL     1     -39.368 -51.829  12.483  1.00  0.00    -0.388 OA
BRANCH  13  14
HETATM   14  C   UNL     1     -40.487 -52.212  13.293  1.00  0.00     0.193 C 
BRANCH  14  15
HETATM   15  C   UNL     1     -41.508 -52.918  12.407  1.00  0.00     0.190 C 
BRANCH  15  16
HETATM   16  O   UNL     1     -41.292 -52.574  11.040  1.00  0.00    -0.399 OA
HETATM   17  H   UNL     1     -40.668 -53.245  10.701  1.00  0.00     0.209 HD
ENDBRANCH  15  16
ENDBRANCH  14  15
ENDBRANCH  13  14
ENDBRANCH  12  13
ENDBRANCH  11  12
ENDBRANCH   9  11
ENDBRANCH   6   9
BRANCH   1  18
HETATM   18  O   UNL     1     -41.203 -45.249  10.099  1.00  0.00    -0.341 OA
HETATM   19  C   UNL     1     -39.800 -45.042  10.243  1.00  0.00     0.211 C 
ENDBRANCH   1  18
TORSDOF 8
ENDMDL
MODEL 2
REMARK VINA RESULT:      -4.8      1.294      2.086
REMARK  8 active torsions:
REMARK  status: ('A' for Active; 'I' for Inactive)
REMARK    1  A    between atoms: O_2  and  C_3 
REMARK    2  A    between atoms: C_8  and  N_9 
REMARK    3  A    between atoms: N_9  and  C_10 
REMARK    4  A    between atoms: C_10  and  C_11 
REMARK    5  A    between atoms: C_11  and  O_12 
REMARK    6  A    between atoms: O_12  and  C_13 
REMARK    7  A    between atoms: C_13  and  C_14 
REMARK    8  A    between atoms: C_14  and  O_15 
ROOT
HETATM    1  C   UNL     1     -42.718 -47.426  10.372  1.00  0.00     0.145 A 
HETATM    2  C   UNL     1     -42.028 -46.286  10.688  1.00  0.00     0.073 A 
HETATM    3  C   UNL     1     -40.711 -46.480  11.013  1.00  0.00     0.095 A 
HETATM    4  N   UNL     1     -40.122 -47.692  11.034  1.00  0.00    -0.343 N 
ATOM      5  HN  UNL     1     -39.137 -47.801  11.274  1.00  0.00     0.167 HD
HETATM    6  C   UNL     1     -40.889 -48.746  10.727  1.00  0.00     0.159 A 
HETATM    7  N   UNL     1     -42.173 -48.654  10.372  1.00  0.00    -0.313 N 
ATOM      8  HN  UNL     1     -42.714 -49.478  10.112  1.00  0.00     0.170 HD
ENDROOT
BRANCH   6   9
HETATM    9  N   UNL     1     -40.289 -49.987  10.828  1.00  0.00    -0.262 NA
HETATM   10  H   UNL     1     -40.980 -50.638  11.188  1.00  0.00     0.130 HD
BRANCH   9  11
HETATM   11  C   UNL     1     -39.001 -50.047  11.510  1.00  0.00     0.121 C 
BRANCH  11  12
HETATM   12  C   UNL     1     -39.148 -50.600  12.932  1.00  0.00     0.182 C 
BRANCH  12  13
HETATM   13  O   UNL     1     -39.054 -52.033  12.891  1.00  0.00    -0.388 OA
BRANCH  13  14
HETATM   14  C   UNL     1     -40.141 -52.646  13.596  1.00  0.00     0.193 C 
BRANCH  14  15
HETATM   15  C   UNL     1     -41.156 -53.151  12.576  1.00  0.00     0.190 C 
BRANCH  15  16
HETATM   16  O   UNL     1     -40.556 -53.231  11.284  1.00  0.00    -0.399 OA
HETATM   17  H   UNL     1     -41.228 -52.883  10.666  1.00  0.00     0.209 HD
ENDBRANCH  15  16
ENDBRANCH  14  15
ENDBRANCH  13  14
ENDBRANCH  12  13
ENDBRANCH  11  12
ENDBRANCH   9  11
ENDBRANCH   6   9
BRANCH   1  18
HETATM   18  O   UNL     1     -44.051 -47.269  10.046  1.00  0.00    -0.341 OA
HETATM   19  C   UNL     1     -44.301 -47.451   8.653  1.00  0.00     0.211 C 
ENDBRANCH   1  18
TORSDOF 8
ENDMDL
MODEL 3
REMARK VINA RESULT:      -4.8      4.006      6.233
REMARK  8 active torsions:
REMARK  status: ('A' for Active; 'I' for Inactive)
REMARK    1  A    between atoms: O_2  and  C_3 
REMARK    2  A    between atoms: C_8  and  N_9 
REMARK    3  A    between atoms: N_9  and  C_10 
REMARK    4  A    between atoms: C_10  and  C_11 
REMARK    5  A    between atoms: C_11  and  O_12 
REMARK    6  A    between atoms: O_12  and  C_13 
REMARK    7  A    between atoms: C_13  and  C_14 
REMARK    8  A    between atoms: C_14  and  O_15 
ROOT
HETATM    1  C   UNL     1     -43.964 -53.945  12.920  1.00  0.00     0.145 A 
HETATM    2  C   UNL     1     -44.285 -54.495  14.132  1.00  0.00     0.073 A 
HETATM    3  C   UNL     1     -43.213 -54.872  14.898  1.00  0.00     0.095 A 
HETATM    4  N   UNL     1     -41.933 -54.728  14.504  1.00  0.00    -0.343 N 
ATOM      5  HN  UNL     1     -41.156 -55.013  15.101  1.00  0.00     0.167 HD
HETATM    6  C   UNL     1     -41.725 -54.196  13.292  1.00  0.00     0.159 A 
HETATM    7  N   UNL     1     -42.703 -53.774  12.487  1.00  0.00    -0.313 N 
ATOM      8  HN  UNL     1     -42.502 -53.343  11.585  1.00  0.00     0.170 HD
ENDROOT
BRANCH   6   9
HETATM    9  N   UNL     1     -40.409 -54.126  12.874  1.00  0.00    -0.262 NA
HETATM   10  H   UNL     1     -40.234 -54.922  12.268  1.00  0.00     0.130 HD
BRANCH   9  11
HETATM   11  C   UNL     1     -39.397 -53.926  13.903  1.00  0.00     0.121 C 
BRANCH  11  12
HETATM   12  C   UNL     1     -39.011 -52.447  14.028  1.00  0.00     0.182 C 
BRANCH  12  13
HETATM   13  O   UNL     1     -39.015 -51.849  12.722  1.00  0.00    -0.388 OA
BRANCH  13  14
HETATM   14  C   UNL     1     -39.598 -50.540  12.751  1.00  0.00     0.193 C 
BRANCH  14  15
HETATM   15  C   UNL     1     -40.954 -50.597  12.056  1.00  0.00     0.190 C 
BRANCH  15  16
HETATM   16  O   UNL     1     -40.977 -51.667  11.114  1.00  0.00    -0.399 OA
HETATM   17  H   UNL     1     -40.459 -52.385  11.527  1.00  0.00     0.209 HD
ENDBRANCH  15  16
ENDBRANCH  14  15
ENDBRANCH  13  14
ENDBRANCH  12  13
ENDBRANCH  11  12
ENDBRANCH   9  11
ENDBRANCH   6   9
BRANCH   1  18
HETATM   18  O   UNL     1     -45.020 -53.559  12.118  1.00  0.00    -0.341 OA
HETATM   19  C   UNL     1     -45.891 -52.632  12.764  1.00  0.00     0.211 C 
ENDBRANCH   1  18
TORSDOF 8
ENDMDL
MODEL 4
REMARK VINA RESULT:      -4.7      3.015      6.115
REMARK  8 active torsions:
REMARK  status: ('A' for Active; 'I' for Inactive)
REMARK    1  A    between atoms: O_2  and  C_3 
REMARK    2  A    between atoms: C_8  and  N_9 
REMARK    3  A    between atoms: N_9  and  C_10 
REMARK    4  A    between atoms: C_10  and  C_11 
REMARK    5  A    between atoms: C_11  and  O_12 
REMARK    6  A    between atoms: O_12  and  C_13 
REMARK    7  A    between atoms: C_13  and  C_14 
REMARK    8  A    between atoms: C_14  and  O_15 
ROOT
HETATM    1  C   UNL     1     -43.516 -53.797  12.803  1.00  0.00     0.145 A 
HETATM    2  C   UNL     1     -42.863 -54.319  13.889  1.00  0.00     0.073 A 
HETATM    3  C   UNL     1     -41.609 -53.812  14.106  1.00  0.00     0.095 A 
HETATM    4  N   UNL     1     -41.039 -52.877  13.321  1.00  0.00    -0.343 N 
ATOM      5  HN  UNL     1     -40.106 -52.515  13.514  1.00  0.00     0.167 HD
HETATM    6  C   UNL     1     -41.754 -52.445  12.274  1.00  0.00     0.159 A 
HETATM    7  N   UNL     1     -42.993 -52.859  11.996  1.00  0.00    -0.313 N 
ATOM      8  HN  UNL     1     -43.518 -52.481  11.208  1.00  0.00     0.170 HD
ENDROOT
BRANCH   6   9
HETATM    9  N   UNL     1     -41.125 -51.543  11.436  1.00  0.00    -0.262 NA
HETATM   10  H   UNL     1     -40.148 -51.813  11.366  1.00  0.00     0.130 HD
BRANCH   9  11
HETATM   11  C   UNL     1     -41.334 -50.127  11.712  1.00  0.00     0.121 C 
BRANCH  11  12
HETATM   12  C   UNL     1     -40.063 -49.312  11.441  1.00  0.00     0.182 C 
BRANCH  12  13
HETATM   13  O   UNL     1     -39.124 -49.538  12.503  1.00  0.00    -0.388 OA
BRANCH  13  14
HETATM   14  C   UNL     1     -37.792 -49.692  11.995  1.00  0.00     0.193 C 
BRANCH  14  15
HETATM   15  C   UNL     1     -37.252 -51.043  12.451  1.00  0.00     0.190 C 
BRANCH  15  16
HETATM   16  O   UNL     1     -38.306 -51.833  12.998  1.00  0.00    -0.399 OA
HETATM   17  H   UNL     1     -38.732 -51.265  13.669  1.00  0.00     0.209 HD
ENDBRANCH  15  16
ENDBRANCH  14  15
ENDBRANCH  13  14
ENDBRANCH  12  13
ENDBRANCH  11  12
ENDBRANCH   9  11
ENDBRANCH   6   9
BRANCH   1  18
HETATM   18  O   UNL     1     -44.781 -54.290  12.550  1.00  0.00    -0.341 OA
HETATM   19  C   UNL     1     -45.351 -54.950  13.678  1.00  0.00     0.211 C 
ENDBRANCH   1  18
TORSDOF 8
ENDMDL
MODEL 5
REMARK VINA RESULT:      -4.6      1.331      2.234
REMARK  8 active torsions:
REMARK  status: ('A' for Active; 'I' for Inactive)
REMARK    1  A    between atoms: O_2  and  C_3 
REMARK    2  A    between atoms: C_8  and  N_9 
REMARK    3  A    between atoms: N_9  and  C_10 
REMARK    4  A    between atoms: C_10  and  C_11 
REMARK    5  A    between atoms: C_11  and  O_12 
REMARK    6  A    between atoms: O_12  and  C_13 
REMARK    7  A    between atoms: C_13  and  C_14 
REMARK    8  A    between atoms: C_14  and  O_15 
ROOT
HETATM    1  C   UNL     1     -40.633 -46.642  10.854  1.00  0.00     0.145 A 
HETATM    2  C   UNL     1     -41.876 -46.270  10.413  1.00  0.00     0.073 A 
HETATM    3  C   UNL     1     -42.751 -47.306  10.215  1.00  0.00     0.095 A 
HETATM    4  N   UNL     1     -42.431 -48.598  10.423  1.00  0.00    -0.343 N 
ATOM      5  HN  UNL     1     -43.109 -49.346  10.272  1.00  0.00     0.167 HD
HETATM    6  C   UNL     1     -41.184 -48.857  10.836  1.00  0.00     0.159 A 
HETATM    7  N   UNL     1     -40.270 -47.915  11.083  1.00  0.00    -0.313 N 
ATOM      8  HN  UNL     1     -39.341 -48.151  11.429  1.00  0.00     0.170 HD
ENDROOT
BRANCH   6   9
HETATM    9  N   UNL     1     -40.851 -50.192  10.971  1.00  0.00    -0.262 NA
HETATM   10  H   UNL     1     -41.075 -50.658  10.097  1.00  0.00     0.130 HD
BRANCH   9  11
HETATM   11  C   UNL     1     -41.344 -50.881  12.158  1.00  0.00     0.121 C 
BRANCH  11  12
HETATM   12  C   UNL     1     -40.189 -51.397  13.025  1.00  0.00     0.182 C 
BRANCH  12  13
HETATM   13  O   UNL     1     -39.000 -51.477  12.224  1.00  0.00    -0.388 OA
BRANCH  13  14
HETATM   14  C   UNL     1     -37.933 -50.713  12.800  1.00  0.00     0.193 C 
BRANCH  14  15
HETATM   15  C   UNL     1     -37.292 -49.870  11.702  1.00  0.00     0.190 C 
BRANCH  15  16
HETATM   16  O   UNL     1     -37.997 -50.045  10.475  1.00  0.00    -0.399 OA
HETATM   17  H   UNL     1     -37.876 -49.208   9.987  1.00  0.00     0.209 HD
ENDBRANCH  15  16
ENDBRANCH  14  15
ENDBRANCH  13  14
ENDBRANCH  12  13
ENDBRANCH  11  12
ENDBRANCH   9  11
ENDBRANCH   6   9
BRANCH   1  18
HETATM   18  O   UNL     1     -39.722 -45.624  11.059  1.00  0.00    -0.341 OA
HETATM   19  C   UNL     1     -40.310 -44.329  10.951  1.00  0.00     0.211 C 
ENDBRANCH   1  18
TORSDOF 8
ENDMDL
MODEL 6
REMARK VINA RESULT:      -4.6      3.210      4.980
REMARK  8 active torsions:
REMARK  status: ('A' for Active; 'I' for Inactive)
REMARK    1  A    between atoms: O_2  and  C_3 
REMARK    2  A    between atoms: C_8  and  N_9 
REMARK    3  A    between atoms: N_9  and  C_10 
REMARK    4  A    between atoms: C_10  and  C_11 
REMARK    5  A    between atoms: C_11  and  O_12 
REMARK    6  A    between atoms: O_12  and  C_13 
REMARK    7  A    between atoms: C_13  and  C_14 
REMARK    8  A    between atoms: C_14  and  O_15 
ROOT
HETATM    1  C   UNL     1     -45.330 -47.411   8.847  1.00  0.00     0.145 A 
HETATM    2  C   UNL     1     -44.567 -48.070   7.920  1.00  0.00     0.073 A 
HETATM    3  C   UNL     1     -43.287 -47.599   7.786  1.00  0.00     0.095 A 
HETATM    4  N   UNL     1     -42.799 -46.563   8.497  1.00  0.00    -0.343 N 
ATOM      5  HN  UNL     1     -41.838 -46.241   8.379  1.00  0.00     0.167 HD
HETATM    6  C   UNL     1     -43.632 -45.975   9.365  1.00  0.00     0.159 A 
HETATM    7  N   UNL     1     -44.886 -46.379   9.584  1.00  0.00    -0.313 N 
ATOM      8  HN  UNL     1     -45.479 -45.926  10.279  1.00  0.00     0.170 HD
ENDROOT
BRANCH   6   9
HETATM    9  N   UNL     1     -43.139 -44.868  10.030  1.00  0.00    -0.262 NA
HETATM   10  H   UNL     1     -43.000 -44.131   9.344  1.00  0.00     0.130 HD
BRANCH   9  11
HETATM   11  C   UNL     1     -42.002 -45.080  10.917  1.00  0.00     0.121 C 
BRANCH  11  12
HETATM   12  C   UNL     1     -42.259 -46.240  11.886  1.00  0.00     0.182 C 
BRANCH  12  13
HETATM   13  O   UNL     1     -41.003 -46.830  12.257  1.00  0.00    -0.388 OA
BRANCH  13  14
HETATM   14  C   UNL     1     -40.447 -47.592  11.179  1.00  0.00     0.193 C 
BRANCH  14  15
HETATM   15  C   UNL     1     -41.286 -48.853  10.993  1.00  0.00     0.190 C 
BRANCH  15  16
HETATM   16  O   UNL     1     -40.578 -49.799  10.195  1.00  0.00    -0.399 OA
HETATM   17  H   UNL     1     -39.647 -49.737  10.486  1.00  0.00     0.209 HD
ENDBRANCH  15  16
ENDBRANCH  14  15
ENDBRANCH  13  14
ENDBRANCH  12  13
ENDBRANCH  11  12
ENDBRANCH   9  11
ENDBRANCH   6   9
BRANCH   1  18
HETATM   18  O   UNL     1     -46.629 -47.855   9.004  1.00  0.00    -0.341 OA
HETATM   19  C   UNL     1     -46.856 -49.121   8.387  1.00  0.00     0.211 C 
ENDBRANCH   1  18
TORSDOF 8
ENDMDL
MODEL 7
REMARK VINA RESULT:      -4.5      2.642      6.527
REMARK  8 active torsions:
REMARK  status: ('A' for Active; 'I' for Inactive)
REMARK    1  A    between atoms: O_2  and  C_3 
REMARK    2  A    between atoms: C_8  and  N_9 
REMARK    3  A    between atoms: N_9  and  C_10 
REMARK    4  A    between atoms: C_10  and  C_11 
REMARK    5  A    between atoms: C_11  and  O_12 
REMARK    6  A    between atoms: O_12  and  C_13 
REMARK    7  A    between atoms: C_13  and  C_14 
REMARK    8  A    between atoms: C_14  and  O_15 
ROOT
HETATM    1  C   UNL     1     -43.509 -53.730  12.737  1.00  0.00     0.145 A 
HETATM    2  C   UNL     1     -42.827 -54.296  13.782  1.00  0.00     0.073 A 
HETATM    3  C   UNL     1     -41.539 -53.854  13.937  1.00  0.00     0.095 A 
HETATM    4  N   UNL     1     -40.965 -52.941  13.130  1.00  0.00    -0.343 N 
ATOM      5  HN  UNL     1     -40.006 -52.628  13.277  1.00  0.00     0.167 HD
HETATM    6  C   UNL     1     -41.711 -52.463  12.126  1.00  0.00     0.159 A 
HETATM    7  N   UNL     1     -42.982 -52.811  11.911  1.00  0.00    -0.313 N 
ATOM      8  HN  UNL     1     -43.527 -52.399  11.154  1.00  0.00     0.170 HD
ENDROOT
BRANCH   6   9
HETATM    9  N   UNL     1     -41.082 -51.584  11.263  1.00  0.00    -0.262 NA
HETATM   10  H   UNL     1     -40.557 -52.134  10.589  1.00  0.00     0.130 HD
BRANCH   9  11
HETATM   11  C   UNL     1     -40.323 -50.495  11.865  1.00  0.00     0.121 C 
BRANCH  11  12
HETATM   12  C   UNL     1     -41.201 -49.257  12.083  1.00  0.00     0.182 C 
BRANCH  12  13
HETATM   13  O   UNL     1     -40.846 -48.252  11.121  1.00  0.00    -0.388 OA
BRANCH  13  14
HETATM   14  C   UNL     1     -41.930 -47.987  10.222  1.00  0.00     0.193 C 
BRANCH  14  15
HETATM   15  C   UNL     1     -42.317 -46.517  10.350  1.00  0.00     0.190 C 
BRANCH  15  16
HETATM   16  O   UNL     1     -41.954 -45.809   9.166  1.00  0.00    -0.399 OA
HETATM   17  H   UNL     1     -42.346 -44.920   9.267  1.00  0.00     0.209 HD
ENDBRANCH  15  16
ENDBRANCH  14  15
ENDBRANCH  13  14
ENDBRANCH  12  13
ENDBRANCH  11  12
ENDBRANCH   9  11
ENDBRANCH   6   9
BRANCH   1  18
HETATM   18  O   UNL     1     -44.809 -54.156  12.546  1.00  0.00    -0.341 OA
HETATM   19  C   UNL     1     -45.311 -54.902  13.653  1.00  0.00     0.211 C 
ENDBRANCH   1  18
TORSDOF 8
ENDMDL
MODEL 8
REMARK VINA RESULT:      -4.4      3.948      6.619
REMARK  8 active torsions:
REMARK  status: ('A' for Active; 'I' for Inactive)
REMARK    1  A    between atoms: O_2  and  C_3 
REMARK    2  A    between atoms: C_8  and  N_9 
REMARK    3  A    between atoms: N_9  and  C_10 
REMARK    4  A    between atoms: C_10  and  C_11 
REMARK    5  A    between atoms: C_11  and  O_12 
REMARK    6  A    between atoms: O_12  and  C_13 
REMARK    7  A    between atoms: C_13  and  C_14 
REMARK    8  A    between atoms: C_14  and  O_15 
ROOT
HETATM    1  C   UNL     1     -44.086 -54.559  14.044  1.00  0.00     0.145 A 
HETATM    2  C   UNL     1     -45.393 -54.178  13.886  1.00  0.00     0.073 A 
HETATM    3  C   UNL     1     -45.600 -53.200  12.949  1.00  0.00     0.095 A 
HETATM    4  N   UNL     1     -44.608 -52.636  12.233  1.00  0.00    -0.343 N 
ATOM      5  HN  UNL     1     -44.796 -51.915  11.537  1.00  0.00     0.167 HD
HETATM    6  C   UNL     1     -43.363 -53.066  12.476  1.00  0.00     0.159 A 
HETATM    7  N   UNL     1     -43.065 -54.032  13.348  1.00  0.00    -0.313 N 
ATOM      8  HN  UNL     1     -42.107 -54.354  13.480  1.00  0.00     0.170 HD
ENDROOT
BRANCH   6   9
HETATM    9  N   UNL     1     -42.351 -52.423  11.787  1.00  0.00    -0.262 NA
HETATM   10  H   UNL     1     -42.542 -52.518  10.794  1.00  0.00     0.130 HD
BRANCH   9  11
HETATM   11  C   UNL     1     -40.981 -52.752  12.164  1.00  0.00     0.121 C 
BRANCH  11  12
HETATM   12  C   UNL     1     -40.296 -51.572  12.863  1.00  0.00     0.182 C 
BRANCH  12  13
HETATM   13  O   UNL     1     -38.917 -51.524  12.464  1.00  0.00    -0.388 OA
BRANCH  13  14
HETATM   14  C   UNL     1     -38.352 -50.229  12.701  1.00  0.00     0.193 C 
BRANCH  14  15
HETATM   15  C   UNL     1     -37.322 -49.943  11.613  1.00  0.00     0.190 C 
BRANCH  15  16
HETATM   16  O   UNL     1     -37.920 -50.074  10.325  1.00  0.00    -0.399 OA
HETATM   17  H   UNL     1     -38.458 -49.267  10.208  1.00  0.00     0.209 HD
ENDBRANCH  15  16
ENDBRANCH  14  15
ENDBRANCH  13  14
ENDBRANCH  12  13
ENDBRANCH  11  12
ENDBRANCH   9  11
ENDBRANCH   6   9
BRANCH   1  18
HETATM   18  O   UNL     1     -43.839 -55.539  14.985  1.00  0.00    -0.341 OA
HETATM   19  C   UNL     1     -42.603 -55.345  15.669  1.00  0.00     0.211 C 
ENDBRANCH   1  18
TORSDOF 8
ENDMDL
MODEL 9
REMARK VINA RESULT:      -4.4      3.811      5.872
REMARK  8 active torsions:
REMARK  status: ('A' for Active; 'I' for Inactive)
REMARK    1  A    between atoms: O_2  and  C_3 
REMARK    2  A    between atoms: C_8  and  N_9 
REMARK    3  A    between atoms: N_9  and  C_10 
REMARK    4  A    between atoms: C_10  and  C_11 
REMARK    5  A    between atoms: C_11  and  O_12 
REMARK    6  A    between atoms: O_12  and  C_13 
REMARK    7  A    between atoms: C_13  and  C_14 
REMARK    8  A    between atoms: C_14  and  O_15 
ROOT
HETATM    1  C   UNL     1     -44.256 -53.273  12.727  1.00  0.00     0.145 A 
HETATM    2  C   UNL     1     -44.452 -51.966  13.088  1.00  0.00     0.073 A 
HETATM    3  C   UNL     1     -43.316 -51.200  13.119  1.00  0.00     0.095 A 
HETATM    4  N   UNL     1     -42.090 -51.677  12.829  1.00  0.00    -0.343 N 
ATOM      5  HN  UNL     1     -41.265 -51.078  12.855  1.00  0.00     0.167 HD
HETATM    6  C   UNL     1     -42.004 -52.974  12.505  1.00  0.00     0.159 A 
HETATM    7  N   UNL     1     -43.055 -53.792  12.421  1.00  0.00    -0.313 N 
ATOM      8  HN  UNL     1     -42.952 -54.766  12.138  1.00  0.00     0.170 HD
ENDROOT
BRANCH   6   9
HETATM    9  N   UNL     1     -40.730 -53.464  12.285  1.00  0.00    -0.262 NA
HETATM   10  H   UNL     1     -40.740 -53.969  11.403  1.00  0.00     0.130 HD
BRANCH   9  11
HETATM   11  C   UNL     1     -40.101 -54.190  13.381  1.00  0.00     0.121 C 
BRANCH  11  12
HETATM   12  C   UNL     1     -39.097 -53.307  14.132  1.00  0.00     0.182 C 
BRANCH  12  13
HETATM   13  O   UNL     1     -39.263 -51.944  13.713  1.00  0.00    -0.388 OA
BRANCH  13  14
HETATM   14  C   UNL     1     -38.003 -51.337  13.404  1.00  0.00     0.193 C 
BRANCH  14  15
HETATM   15  C   UNL     1     -38.156 -50.526  12.122  1.00  0.00     0.190 C 
BRANCH  15  16
HETATM   16  O   UNL     1     -39.428 -50.781  11.529  1.00  0.00    -0.399 OA
HETATM   17  H   UNL     1     -39.231 -51.128  10.637  1.00  0.00     0.209 HD
ENDBRANCH  15  16
ENDBRANCH  14  15
ENDBRANCH  13  14
ENDBRANCH  12  13
ENDBRANCH  11  12
ENDBRANCH   9  11
ENDBRANCH   6   9
BRANCH   1  18
HETATM   18  O   UNL     1     -45.379 -54.077  12.690  1.00  0.00    -0.341 OA
HETATM   19  C   UNL     1     -45.397 -55.043  13.739  1.00  0.00     0.211 C 
ENDBRANCH   1  18
TORSDOF 8
ENDMDL
