MODEL 1
REMARK VINA RESULT:      -6.8      0.000      0.000
REMARK  3 active torsions:
REMARK  status: ('A' for Active; 'I' for Inactive)
REMARK    1  A    between atoms: N_6  and  C_7 
REMARK    2  A    between atoms: C_7  and  C_8 
REMARK       I    between atoms: C_8  and  N_10 
REMARK       I    between atoms: N_10  and  C_11 
REMARK       I    between atoms: C_11  and  N_13 
REMARK    3  A    between atoms: N_13  and  C_14 
ROOT
HETATM    1  C   UNL     1     -41.227 -50.179  11.921  1.00  0.00     0.245 C 
HETATM    2  O   UNL     1     -42.435 -50.146  12.177  1.00  0.00    -0.271 OA
HETATM    3  N   UNL     1     -40.504 -51.357  11.863  1.00  0.00    -0.278 N 
HETATM    4  C   UNL     1     -40.897 -52.614  12.260  1.00  0.00     0.323 C 
HETATM    5  O   UNL     1     -40.090 -53.535  12.316  1.00  0.00    -0.247 OA
HETATM    6  N   UNL     1     -42.217 -52.728  12.585  1.00  0.00    -0.338 N 
HETATM    7  H   UNL     1     -39.521 -51.278  11.619  1.00  0.00     0.173 HD
HETATM    8  H   UNL     1     -42.781 -51.887  12.478  1.00  0.00     0.164 HD
ENDROOT
BRANCH   1   9
HETATM    9  C   UNL     1     -40.509 -48.941  11.398  1.00  0.00     0.255 C 
BRANCH   9  10
HETATM   10  N   UNL     1     -41.356 -47.930  10.763  1.00  0.00    -0.248 N 
HETATM   11  N   UNL     1     -42.184 -48.358   9.744  1.00  0.00    -0.305 N 
HETATM   12  C   UNL     1     -43.028 -47.495   9.275  1.00  0.00     0.133 A 
ATOM     13  HN  UNL     1     -42.132 -49.309   9.379  1.00  0.00     0.186 HD
HETATM   14  C   UNL     1     -43.181 -46.107   9.725  1.00  0.00     0.078 A 
HETATM   15 CL   UNL     1     -44.376 -45.157   8.944  1.00  0.00    -0.081 Cl
HETATM   16  C   UNL     1     -42.385 -45.701  10.715  1.00  0.00     0.126 A 
HETATM   17  C   UNL     1     -41.396 -46.645  11.311  1.00  0.00     0.285 A 
HETATM   18 CL   UNL     1     -42.453 -44.107  11.383  1.00  0.00    -0.076 Cl
HETATM   19  O   UNL     1     -40.679 -46.292  12.245  1.00  0.00    -0.265 OA
ENDBRANCH   9  10
ENDBRANCH   1   9
BRANCH   6  20
HETATM   20  C   UNL     1     -42.850 -53.926  13.082  1.00  0.00     0.086 C 
HETATM   21  C   UNL     1     -44.338 -54.022  12.738  1.00  0.00     0.025 C 
HETATM   22  C   UNL     1     -45.007 -54.710  13.931  1.00  0.00     0.002 C 
HETATM   23  C   UNL     1     -43.898 -55.003  14.933  1.00  0.00     0.002 C 
HETATM   24  C   UNL     1     -42.825 -53.980  14.609  1.00  0.00     0.025 C 
ENDBRANCH   6  20
TORSDOF 3
ENDMDL
MODEL 2
REMARK VINA RESULT:      -6.3      2.251      2.675
REMARK  3 active torsions:
REMARK  status: ('A' for Active; 'I' for Inactive)
REMARK    1  A    between atoms: N_6  and  C_7 
REMARK    2  A    between atoms: C_7  and  C_8 
REMARK       I    between atoms: C_8  and  N_10 
REMARK       I    between atoms: N_10  and  C_11 
REMARK       I    between atoms: C_11  and  N_13 
REMARK    3  A    between atoms: N_13  and  C_14 
ROOT
HETATM    1  C   UNL     1     -41.678 -49.784  11.860  1.00  0.00     0.245 C 
HETATM    2  O   UNL     1     -42.670 -49.111  12.154  1.00  0.00    -0.271 OA
HETATM    3  N   UNL     1     -41.651 -51.165  11.954  1.00  0.00    -0.278 N 
HETATM    4  C   UNL     1     -42.574 -51.991  12.553  1.00  0.00     0.323 C 
HETATM    5  O   UNL     1     -42.335 -53.182  12.717  1.00  0.00    -0.247 OA
HETATM    6  N   UNL     1     -43.729 -51.378  12.942  1.00  0.00    -0.338 N 
HETATM    7  H   UNL     1     -40.795 -51.627  11.664  1.00  0.00     0.173 HD
HETATM    8  H   UNL     1     -43.805 -50.386  12.729  1.00  0.00     0.164 HD
ENDROOT
BRANCH   1   9
HETATM    9  C   UNL     1     -40.499 -49.154  11.126  1.00  0.00     0.255 C 
BRANCH   9  10
HETATM   10  N   UNL     1     -40.433 -47.693  11.160  1.00  0.00    -0.248 N 
HETATM   11  N   UNL     1     -41.212 -47.010  10.246  1.00  0.00    -0.305 N 
HETATM   12  C   UNL     1     -41.257 -45.722  10.362  1.00  0.00     0.133 A 
ATOM     13  HN  UNL     1     -41.727 -47.499   9.513  1.00  0.00     0.186 HD
HETATM   14  C   UNL     1     -40.555 -44.923  11.373  1.00  0.00     0.078 A 
HETATM   15 CL   UNL     1     -40.775 -43.223  11.321  1.00  0.00    -0.081 Cl
HETATM   16  C   UNL     1     -39.810 -45.587  12.258  1.00  0.00     0.126 A 
HETATM   17  C   UNL     1     -39.721 -47.075  12.191  1.00  0.00     0.285 A 
HETATM   18 CL   UNL     1     -38.940 -44.804  13.531  1.00  0.00    -0.076 Cl
HETATM   19  O   UNL     1     -39.064 -47.700  13.020  1.00  0.00    -0.265 OA
ENDBRANCH   9  10
ENDBRANCH   1   9
BRANCH   6  20
HETATM   20  C   UNL     1     -44.817 -52.021  13.640  1.00  0.00     0.086 C 
HETATM   21  C   UNL     1     -46.178 -51.367  13.390  1.00  0.00     0.025 C 
HETATM   22  C   UNL     1     -46.955 -51.489  14.703  1.00  0.00     0.002 C 
HETATM   23  C   UNL     1     -46.037 -52.213  15.678  1.00  0.00     0.002 C 
HETATM   24  C   UNL     1     -44.642 -51.929  15.154  1.00  0.00     0.025 C 
ENDBRANCH   6  20
TORSDOF 3
ENDMDL
MODEL 3
REMARK VINA RESULT:      -6.2      4.039      7.619
REMARK  3 active torsions:
REMARK  status: ('A' for Active; 'I' for Inactive)
REMARK    1  A    between atoms: N_6  and  C_7 
REMARK    2  A    between atoms: C_7  and  C_8 
REMARK       I    between atoms: C_8  and  N_10 
REMARK       I    between atoms: N_10  and  C_11 
REMARK       I    between atoms: C_11  and  N_13 
REMARK    3  A    between atoms: N_13  and  C_14 
ROOT
HETATM    1  C   UNL     1     -40.845 -51.125  11.858  1.00  0.00     0.245 C 
HETATM    2  O   UNL     1     -41.764 -50.370  12.190  1.00  0.00    -0.271 OA
HETATM    3  N   UNL     1     -39.530 -50.709  11.756  1.00  0.00    -0.278 N 
HETATM    4  C   UNL     1     -39.043 -49.422  11.789  1.00  0.00     0.323 C 
HETATM    5  O   UNL     1     -37.873 -49.187  11.510  1.00  0.00    -0.247 OA
HETATM    6  N   UNL     1     -39.956 -48.470  12.137  1.00  0.00    -0.338 N 
HETATM    7  H   UNL     1     -38.845 -51.414  11.500  1.00  0.00     0.173 HD
HETATM    8  H   UNL     1     -40.891 -48.804  12.360  1.00  0.00     0.164 HD
ENDROOT
BRANCH   1   9
HETATM    9  C   UNL     1     -41.063 -52.632  11.787  1.00  0.00     0.255 C 
BRANCH   9  10
HETATM   10  N   UNL     1     -42.224 -53.145  12.516  1.00  0.00    -0.248 N 
HETATM   11  N   UNL     1     -43.464 -52.933  11.947  1.00  0.00    -0.305 N 
HETATM   12  C   UNL     1     -44.476 -53.500  12.520  1.00  0.00     0.133 A 
ATOM     13  HN  UNL     1     -43.577 -52.355  11.113  1.00  0.00     0.186 HD
HETATM   14  C   UNL     1     -44.425 -54.345  13.720  1.00  0.00     0.078 A 
HETATM   15 CL   UNL     1     -45.910 -54.986  14.291  1.00  0.00    -0.081 Cl
HETATM   16  C   UNL     1     -43.225 -54.553  14.261  1.00  0.00     0.126 A 
HETATM   17  C   UNL     1     -42.012 -53.939  13.646  1.00  0.00     0.285 A 
HETATM   18 CL   UNL     1     -42.983 -55.544  15.658  1.00  0.00    -0.076 Cl
HETATM   19  O   UNL     1     -40.897 -54.150  14.118  1.00  0.00    -0.265 OA
ENDBRANCH   9  10
ENDBRANCH   1   9
BRANCH   6  20
HETATM   20  C   UNL     1     -39.700 -47.050  12.184  1.00  0.00     0.086 C 
HETATM   21  C   UNL     1     -40.516 -46.314  13.249  1.00  0.00     0.025 C 
HETATM   22  C   UNL     1     -40.842 -44.939  12.660  1.00  0.00     0.002 C 
HETATM   23  C   UNL     1     -40.205 -44.905  11.277  1.00  0.00     0.002 C 
HETATM   24  C   UNL     1     -40.102 -46.365  10.879  1.00  0.00     0.025 C 
ENDBRANCH   6  20
TORSDOF 3
ENDMDL
MODEL 4
REMARK VINA RESULT:      -6.0      3.737      4.968
REMARK  3 active torsions:
REMARK  status: ('A' for Active; 'I' for Inactive)
REMARK    1  A    between atoms: N_6  and  C_7 
REMARK    2  A    between atoms: C_7  and  C_8 
REMARK       I    between atoms: C_8  and  N_10 
REMARK       I    between atoms: N_10  and  C_11 
REMARK       I    between atoms: C_11  and  N_13 
REMARK    3  A    between atoms: N_13  and  C_14 
ROOT
HETATM    1  C   UNL     1     -42.005 -51.835  12.660  1.00  0.00     0.245 C 
HETATM    2  O   UNL     1     -42.269 -51.077  13.597  1.00  0.00    -0.271 OA
HETATM    3  N   UNL     1     -42.911 -52.751  12.156  1.00  0.00    -0.278 N 
HETATM    4  C   UNL     1     -44.121 -53.130  12.690  1.00  0.00     0.323 C 
HETATM    5  O   UNL     1     -44.740 -54.082  12.230  1.00  0.00    -0.247 OA
HETATM    6  N   UNL     1     -44.542 -52.379  13.749  1.00  0.00    -0.338 N 
HETATM    7  H   UNL     1     -42.604 -53.311  11.366  1.00  0.00     0.173 HD
HETATM    8  H   UNL     1     -43.938 -51.605  14.020  1.00  0.00     0.164 HD
ENDROOT
BRANCH   1   9
HETATM    9  C   UNL     1     -40.745 -51.631  11.826  1.00  0.00     0.255 C 
BRANCH   9  10
HETATM   10  N   UNL     1     -39.794 -50.642  12.336  1.00  0.00    -0.248 N 
HETATM   11  N   UNL     1     -40.035 -49.321  12.016  1.00  0.00    -0.305 N 
HETATM   12  C   UNL     1     -39.274 -48.435  12.575  1.00  0.00     0.133 A 
ATOM     13  HN  UNL     1     -40.778 -49.055  11.369  1.00  0.00     0.186 HD
HETATM   14  C   UNL     1     -38.179 -48.709  13.513  1.00  0.00     0.078 A 
HETATM   15 CL   UNL     1     -37.312 -47.360  14.121  1.00  0.00    -0.081 Cl
HETATM   16  C   UNL     1     -37.956 -49.986  13.825  1.00  0.00     0.126 A 
HETATM   17  C   UNL     1     -38.802 -51.059  13.226  1.00  0.00     0.285 A 
HETATM   18 CL   UNL     1     -36.725 -50.482  14.934  1.00  0.00    -0.076 Cl
HETATM   19  O   UNL     1     -38.626 -52.237  13.530  1.00  0.00    -0.265 OA
ENDBRANCH   9  10
ENDBRANCH   1   9
BRANCH   6  20
HETATM   20  C   UNL     1     -45.745 -52.617  14.511  1.00  0.00     0.086 C 
HETATM   21  C   UNL     1     -46.736 -51.451  14.473  1.00  0.00     0.025 C 
HETATM   22  C   UNL     1     -47.401 -51.414  15.851  1.00  0.00     0.002 C 
HETATM   23  C   UNL     1     -46.790 -52.556  16.652  1.00  0.00     0.002 C 
HETATM   24  C   UNL     1     -45.441 -52.788  15.998  1.00  0.00     0.025 C 
ENDBRANCH   6  20
TORSDOF 3
ENDMDL
MODEL 5
REMARK VINA RESULT:      -5.9      3.723      5.300
REMARK  3 active torsions:
REMARK  status: ('A' for Active; 'I' for Inactive)
REMARK    1  A    between atoms: N_6  and  C_7 
REMARK    2  A    between atoms: C_7  and  C_8 
REMARK       I    between atoms: C_8  and  N_10 
REMARK       I    between atoms: N_10  and  C_11 
REMARK       I    between atoms: C_11  and  N_13 
REMARK    3  A    between atoms: N_13  and  C_14 
ROOT
HETATM    1  C   UNL     1     -43.016 -53.073  13.596  1.00  0.00     0.245 C 
HETATM    2  O   UNL     1     -43.202 -51.976  14.130  1.00  0.00    -0.271 OA
HETATM    3  N   UNL     1     -43.937 -54.104  13.656  1.00  0.00    -0.278 N 
HETATM    4  C   UNL     1     -45.063 -54.190  14.442  1.00  0.00     0.323 C 
HETATM    5  O   UNL     1     -45.694 -55.238  14.522  1.00  0.00    -0.247 OA
HETATM    6  N   UNL     1     -45.391 -53.044  15.105  1.00  0.00    -0.338 N 
HETATM    7  H   UNL     1     -43.701 -54.959  13.162  1.00  0.00     0.173 HD
HETATM    8  H   UNL     1     -44.791 -52.239  14.935  1.00  0.00     0.164 HD
ENDROOT
BRANCH   1   9
HETATM    9  C   UNL     1     -41.867 -53.277  12.615  1.00  0.00     0.255 C 
BRANCH   9  10
HETATM   10  N   UNL     1     -41.059 -52.092  12.323  1.00  0.00    -0.248 N 
HETATM   11  N   UNL     1     -41.688 -51.052  11.669  1.00  0.00    -0.305 N 
HETATM   12  C   UNL     1     -41.013 -49.955  11.530  1.00  0.00     0.133 A 
ATOM     13  HN  UNL     1     -42.639 -51.143  11.312  1.00  0.00     0.186 HD
HETATM   14  C   UNL     1     -39.643 -49.721  12.001  1.00  0.00     0.078 A 
HETATM   15 CL   UNL     1     -38.963 -48.177  11.696  1.00  0.00    -0.081 Cl
HETATM   16  C   UNL     1     -39.043 -50.726  12.639  1.00  0.00     0.126 A 
HETATM   17  C   UNL     1     -39.765 -52.016  12.845  1.00  0.00     0.285 A 
HETATM   18 CL   UNL     1     -37.442 -50.610  13.282  1.00  0.00    -0.076 Cl
HETATM   19  O   UNL     1     -39.234 -52.939  13.459  1.00  0.00    -0.265 OA
ENDBRANCH   9  10
ENDBRANCH   1   9
BRANCH   6  20
HETATM   20  C   UNL     1     -46.490 -52.903  16.030  1.00  0.00     0.086 C 
HETATM   21  C   UNL     1     -47.361 -51.673  15.767  1.00  0.00     0.025 C 
HETATM   22  C   UNL     1     -47.816 -51.172  17.140  1.00  0.00     0.002 C 
HETATM   23  C   UNL     1     -47.209 -52.123  18.164  1.00  0.00     0.002 C 
HETATM   24  C   UNL     1     -45.995 -52.700  17.461  1.00  0.00     0.025 C 
ENDBRANCH   6  20
TORSDOF 3
ENDMDL
MODEL 6
REMARK VINA RESULT:      -5.8      3.900      7.867
REMARK  3 active torsions:
REMARK  status: ('A' for Active; 'I' for Inactive)
REMARK    1  A    between atoms: N_6  and  C_7 
REMARK    2  A    between atoms: C_7  and  C_8 
REMARK       I    between atoms: C_8  and  N_10 
REMARK       I    between atoms: N_10  and  C_11 
REMARK       I    between atoms: C_11  and  N_13 
REMARK    3  A    between atoms: N_13  and  C_14 
ROOT
HETATM    1  C   UNL     1     -40.720 -48.197  11.437  1.00  0.00     0.245 C 
HETATM    2  O   UNL     1     -41.309 -47.990  12.502  1.00  0.00    -0.271 OA
HETATM    3  N   UNL     1     -40.170 -47.183  10.673  1.00  0.00    -0.278 N 
HETATM    4  C   UNL     1     -40.339 -45.825  10.818  1.00  0.00     0.323 C 
HETATM    5  O   UNL     1     -39.933 -45.047   9.961  1.00  0.00    -0.247 OA
HETATM    6  N   UNL     1     -40.986 -45.444  11.956  1.00  0.00    -0.338 N 
HETATM    7  H   UNL     1     -39.684 -47.460   9.825  1.00  0.00     0.173 HD
HETATM    8  H   UNL     1     -41.255 -46.192  12.592  1.00  0.00     0.164 HD
ENDROOT
BRANCH   1   9
HETATM    9  C   UNL     1     -40.337 -49.612  11.022  1.00  0.00     0.255 C 
BRANCH   9  10
HETATM   10  N   UNL     1     -40.812 -50.686  11.897  1.00  0.00    -0.248 N 
HETATM   11  N   UNL     1     -42.176 -50.893  11.947  1.00  0.00    -0.305 N 
HETATM   12  C   UNL     1     -42.587 -51.924  12.614  1.00  0.00     0.133 A 
ATOM     13  HN  UNL     1     -42.830 -50.263  11.482  1.00  0.00     0.186 HD
HETATM   14  C   UNL     1     -41.735 -52.889  13.320  1.00  0.00     0.078 A 
HETATM   15 CL   UNL     1     -42.520 -54.178  14.134  1.00  0.00    -0.081 Cl
HETATM   16  C   UNL     1     -40.419 -52.688  13.261  1.00  0.00     0.126 A 
HETATM   17  C   UNL     1     -39.874 -51.526  12.501  1.00  0.00     0.285 A 
HETATM   18 CL   UNL     1     -39.272 -53.743  14.014  1.00  0.00    -0.076 Cl
HETATM   19  O   UNL     1     -38.661 -51.348  12.414  1.00  0.00    -0.265 OA
ENDBRANCH   9  10
ENDBRANCH   1   9
BRANCH   6  20
HETATM   20  C   UNL     1     -41.331 -44.085  12.302  1.00  0.00     0.086 C 
HETATM   21  C   UNL     1     -41.641 -43.890  13.787  1.00  0.00     0.025 C 
HETATM   22  C   UNL     1     -42.746 -42.832  13.855  1.00  0.00     0.002 C 
HETATM   23  C   UNL     1     -43.046 -42.434  12.416  1.00  0.00     0.002 C 
HETATM   24  C   UNL     1     -42.611 -43.637  11.600  1.00  0.00     0.025 C 
ENDBRANCH   6  20
TORSDOF 3
ENDMDL
MODEL 7
REMARK VINA RESULT:      -5.8      2.407      2.797
REMARK  3 active torsions:
REMARK  status: ('A' for Active; 'I' for Inactive)
REMARK    1  A    between atoms: N_6  and  C_7 
REMARK    2  A    between atoms: C_7  and  C_8 
REMARK       I    between atoms: C_8  and  N_10 
REMARK       I    between atoms: N_10  and  C_11 
REMARK       I    between atoms: C_11  and  N_13 
REMARK    3  A    between atoms: N_13  and  C_14 
ROOT
HETATM    1  C   UNL     1     -39.331 -48.868  12.542  1.00  0.00     0.245 C 
HETATM    2  O   UNL     1     -40.328 -49.251  13.162  1.00  0.00    -0.271 OA
HETATM    3  N   UNL     1     -38.273 -49.702  12.230  1.00  0.00    -0.278 N 
HETATM    4  C   UNL     1     -38.030 -50.974  12.695  1.00  0.00     0.323 C 
HETATM    5  O   UNL     1     -36.961 -51.531  12.472  1.00  0.00    -0.247 OA
HETATM    6  N   UNL     1     -39.051 -51.530  13.410  1.00  0.00    -0.338 N 
HETATM    7  H   UNL     1     -37.511 -49.295  11.695  1.00  0.00     0.173 HD
HETATM    8  H   UNL     1     -39.892 -50.964  13.507  1.00  0.00     0.164 HD
ENDROOT
BRANCH   1   9
HETATM    9  C   UNL     1     -39.318 -47.507  11.855  1.00  0.00     0.255 C 
BRANCH   9  10
HETATM   10  N   UNL     1     -40.529 -47.154  11.112  1.00  0.00    -0.248 N 
HETATM   11  N   UNL     1     -41.196 -48.184  10.479  1.00  0.00    -0.305 N 
HETATM   12  C   UNL     1     -42.335 -47.896   9.936  1.00  0.00     0.133 A 
ATOM     13  HN  UNL     1     -40.809 -49.127  10.440  1.00  0.00     0.186 HD
HETATM   14  C   UNL     1     -42.979 -46.576   9.931  1.00  0.00     0.078 A 
HETATM   15 CL   UNL     1     -44.496 -46.447   9.142  1.00  0.00    -0.081 Cl
HETATM   16  C   UNL     1     -42.334 -45.588  10.550  1.00  0.00     0.126 A 
HETATM   17  C   UNL     1     -41.021 -45.850  11.208  1.00  0.00     0.285 A 
HETATM   18 CL   UNL     1     -42.963 -43.980  10.662  1.00  0.00    -0.076 Cl
HETATM   19  O   UNL     1     -40.432 -44.954  11.809  1.00  0.00    -0.265 OA
ENDBRANCH   9  10
ENDBRANCH   1   9
BRANCH   6  20
HETATM   20  C   UNL     1     -39.011 -52.824  14.047  1.00  0.00     0.086 C 
HETATM   21  C   UNL     1     -40.199 -53.720  13.690  1.00  0.00     0.025 C 
HETATM   22  C   UNL     1     -40.513 -54.532  14.949  1.00  0.00     0.002 C 
HETATM   23  C   UNL     1     -39.501 -54.098  16.002  1.00  0.00     0.002 C 
HETATM   24  C   UNL     1     -39.091 -52.703  15.568  1.00  0.00     0.025 C 
ENDBRANCH   6  20
TORSDOF 3
ENDMDL
MODEL 8
REMARK VINA RESULT:      -5.6      1.928      2.675
REMARK  3 active torsions:
REMARK  status: ('A' for Active; 'I' for Inactive)
REMARK    1  A    between atoms: N_6  and  C_7 
REMARK    2  A    between atoms: C_7  and  C_8 
REMARK       I    between atoms: C_8  and  N_10 
REMARK       I    between atoms: N_10  and  C_11 
REMARK       I    between atoms: C_11  and  N_13 
REMARK    3  A    between atoms: N_13  and  C_14 
ROOT
HETATM    1  C   UNL     1     -41.502 -49.386  11.545  1.00  0.00     0.245 C 
HETATM    2  O   UNL     1     -42.694 -49.316  11.859  1.00  0.00    -0.271 OA
HETATM    3  N   UNL     1     -40.832 -50.589  11.403  1.00  0.00    -0.278 N 
HETATM    4  C   UNL     1     -41.259 -51.845  11.765  1.00  0.00     0.323 C 
HETATM    5  O   UNL     1     -40.490 -52.800  11.744  1.00  0.00    -0.247 OA
HETATM    6  N   UNL     1     -42.566 -51.921  12.147  1.00  0.00    -0.338 N 
HETATM    7  H   UNL     1     -39.858 -50.539  11.117  1.00  0.00     0.173 HD
HETATM    8  H   UNL     1     -43.098 -51.054  12.102  1.00  0.00     0.164 HD
ENDROOT
BRANCH   1   9
HETATM    9  C   UNL     1     -40.756 -48.156  11.040  1.00  0.00     0.255 C 
BRANCH   9  10
HETATM   10  N   UNL     1     -40.822 -46.972  11.899  1.00  0.00    -0.248 N 
HETATM   11  N   UNL     1     -40.765 -47.184  13.262  1.00  0.00    -0.305 N 
HETATM   12  C   UNL     1     -40.688 -46.134  14.014  1.00  0.00     0.133 A 
ATOM     13  HN  UNL     1     -40.782 -48.125  13.657  1.00  0.00     0.186 HD
HETATM   14  C   UNL     1     -40.659 -44.741  13.550  1.00  0.00     0.078 A 
HETATM   15 CL   UNL     1     -40.553 -43.518  14.747  1.00  0.00    -0.081 Cl
HETATM   16  C   UNL     1     -40.707 -44.543  12.233  1.00  0.00     0.126 A 
HETATM   17  C   UNL     1     -40.785 -45.708  11.305  1.00  0.00     0.285 A 
HETATM   18 CL   UNL     1     -40.655 -42.969  11.517  1.00  0.00    -0.076 Cl
HETATM   19  O   UNL     1     -40.798 -45.539  10.087  1.00  0.00    -0.265 OA
ENDBRANCH   9  10
ENDBRANCH   1   9
BRANCH   6  20
HETATM   20  C   UNL     1     -43.226 -53.113  12.623  1.00  0.00     0.086 C 
HETATM   21  C   UNL     1     -44.750 -53.063  12.498  1.00  0.00     0.025 C 
HETATM   22  C   UNL     1     -45.301 -53.818  13.711  1.00  0.00     0.002 C 
HETATM   23  C   UNL     1     -44.092 -54.293  14.504  1.00  0.00     0.002 C 
HETATM   24  C   UNL     1     -42.990 -53.325  14.117  1.00  0.00     0.025 C 
ENDBRANCH   6  20
TORSDOF 3
ENDMDL
MODEL 9
REMARK VINA RESULT:      -5.5      4.192      7.976
REMARK  3 active torsions:
REMARK  status: ('A' for Active; 'I' for Inactive)
REMARK    1  A    between atoms: N_6  and  C_7 
REMARK    2  A    between atoms: C_7  and  C_8 
REMARK       I    between atoms: C_8  and  N_10 
REMARK       I    between atoms: N_10  and  C_11 
REMARK       I    between atoms: C_11  and  N_13 
REMARK    3  A    between atoms: N_13  and  C_14 
ROOT
HETATM    1  C   UNL     1     -41.103 -50.797  12.135  1.00  0.00     0.245 C 
HETATM    2  O   UNL     1     -40.119 -50.489  12.814  1.00  0.00    -0.271 OA
HETATM    3  N   UNL     1     -41.924 -49.860  11.533  1.00  0.00    -0.278 N 
HETATM    4  C   UNL     1     -41.941 -48.498  11.728  1.00  0.00     0.323 C 
HETATM    5  O   UNL     1     -42.840 -47.808  11.260  1.00  0.00    -0.247 OA
HETATM    6  N   UNL     1     -40.908 -48.010  12.474  1.00  0.00    -0.338 N 
HETATM    7  H   UNL     1     -42.694 -50.217  10.974  1.00  0.00     0.173 HD
HETATM    8  H   UNL     1     -40.220 -48.691  12.788  1.00  0.00     0.164 HD
ENDROOT
BRANCH   1   9
HETATM    9  C   UNL     1     -41.330 -52.241  11.703  1.00  0.00     0.255 C 
BRANCH   9  10
HETATM   10  N   UNL     1     -41.642 -53.188  12.775  1.00  0.00    -0.248 N 
HETATM   11  N   UNL     1     -40.618 -53.509  13.644  1.00  0.00    -0.305 N 
HETATM   12  C   UNL     1     -40.926 -54.239  14.667  1.00  0.00     0.133 A 
ATOM     13  HN  UNL     1     -39.663 -53.186  13.486  1.00  0.00     0.186 HD
HETATM   14  C   UNL     1     -42.262 -54.757  14.985  1.00  0.00     0.078 A 
HETATM   15 CL   UNL     1     -42.418 -55.705  16.406  1.00  0.00    -0.081 Cl
HETATM   16  C   UNL     1     -43.249 -54.437  14.148  1.00  0.00     0.126 A 
HETATM   17  C   UNL     1     -42.968 -53.589  12.953  1.00  0.00     0.285 A 
HETATM   18 CL   UNL     1     -44.886 -54.940  14.388  1.00  0.00    -0.076 Cl
HETATM   19  O   UNL     1     -43.875 -53.262  12.191  1.00  0.00    -0.265 OA
ENDBRANCH   9  10
ENDBRANCH   1   9
BRANCH   6  20
HETATM   20  C   UNL     1     -40.741 -46.630  12.862  1.00  0.00     0.086 C 
HETATM   21  C   UNL     1     -40.203 -45.738  11.740  1.00  0.00     0.025 C 
HETATM   22  C   UNL     1     -39.300 -44.704  12.416  1.00  0.00     0.002 C 
HETATM   23  C   UNL     1     -39.339 -45.011  13.907  1.00  0.00     0.002 C 
HETATM   24  C   UNL     1     -39.705 -46.482  13.973  1.00  0.00     0.025 C 
ENDBRANCH   6  20
TORSDOF 3
ENDMDL
