MODEL 1
REMARK VINA RESULT:      -7.0      0.000      0.000
REMARK  6 active torsions:
REMARK  status: ('A' for Active; 'I' for Inactive)
REMARK    1  A    between atoms: N_11  and  C_12 
REMARK    2  A    between atoms: C_12  and  C_13 
REMARK    3  A    between atoms: C_13  and  O_14 
REMARK    4  A    between atoms: C_13  and  C_15 
REMARK    5  A    between atoms: C_15  and  O_16 
REMARK    6  A    between atoms: O_16  and  C_17 
ROOT
HETATM    1  C   UNL     1     -40.487 -51.556  12.919  1.00  0.00     0.164 C 
ENDROOT
BRANCH   1   2
HETATM    2  N   UNL     1     -40.234 -50.257  12.319  1.00  0.00    -0.332 N 
HETATM    3  C   UNL     1     -39.015 -49.797  11.859  1.00  0.00     0.080 A 
HETATM    4  C   UNL     1     -37.734 -50.546  11.949  1.00  0.00     0.089 C 
HETATM    5  N   UNL     1     -39.141 -48.606  11.311  1.00  0.00    -0.344 N 
HETATM    6  C   UNL     1     -40.472 -48.295  11.383  1.00  0.00     0.060 A 
ATOM      7  HN  UNL     1     -38.398 -48.031  10.915  1.00  0.00     0.167 HD
HETATM    8  C   UNL     1     -41.140 -47.154  10.915  1.00  0.00     0.032 A 
HETATM    9  C   UNL     1     -41.189 -49.308  12.016  1.00  0.00     0.062 A 
HETATM   10  C   UNL     1     -42.522 -47.056  11.105  1.00  0.00     0.002 A 
HETATM   11  C   UNL     1     -43.224 -48.074  11.752  1.00  0.00     0.002 A 
HETATM   12  C   UNL     1     -42.575 -49.224  12.221  1.00  0.00     0.032 A 
ENDBRANCH   1   2
BRANCH   1  13
HETATM   13  C   UNL     1     -41.355 -52.502  12.078  1.00  0.00     0.160 C 
BRANCH  13  14
HETATM   14  O   UNL     1     -40.534 -53.417  11.343  1.00  0.00    -0.392 OA
HETATM   15  H   UNL     1     -39.657 -53.009  11.226  1.00  0.00     0.210 HD
ENDBRANCH  13  14
BRANCH  13  16
HETATM   16  C   UNL     1     -42.427 -53.244  12.891  1.00  0.00     0.209 C 
BRANCH  16  17
HETATM   17  O   UNL     1     -43.698 -52.945  12.305  1.00  0.00    -0.345 OA
BRANCH  17  18
HETATM   18  C   UNL     1     -44.783 -52.898  13.135  1.00  0.00     0.107 A 
HETATM   19  C   UNL     1     -45.261 -51.605  13.375  1.00  0.00     0.040 A 
HETATM   20  C   UNL     1     -46.355 -51.392  14.219  1.00  0.00     0.003 A 
HETATM   21  C   UNL     1     -46.981 -52.475  14.833  1.00  0.00     0.003 A 
HETATM   22  C   UNL     1     -46.514 -53.767  14.598  1.00  0.00     0.045 A 
HETATM   23  C   UNL     1     -45.422 -53.973  13.754  1.00  0.00     0.149 A 
HETATM   24  F   UNL     1     -45.011 -55.237  13.567  1.00  0.00    -0.203 F 
ENDBRANCH  17  18
ENDBRANCH  16  17
ENDBRANCH  13  16
ENDBRANCH   1  13
TORSDOF 6
ENDMDL
MODEL 2
REMARK VINA RESULT:      -6.6      1.025      1.442
REMARK  6 active torsions:
REMARK  status: ('A' for Active; 'I' for Inactive)
REMARK    1  A    between atoms: N_11  and  C_12 
REMARK    2  A    between atoms: C_12  and  C_13 
REMARK    3  A    between atoms: C_13  and  O_14 
REMARK    4  A    between atoms: C_13  and  C_15 
REMARK    5  A    between atoms: C_15  and  O_16 
REMARK    6  A    between atoms: O_16  and  C_17 
ROOT
HETATM    1  C   UNL     1     -40.733 -51.383  12.992  1.00  0.00     0.164 C 
ENDROOT
BRANCH   1   2
HETATM    2  N   UNL     1     -40.393 -50.126  12.347  1.00  0.00    -0.332 N 
HETATM    3  C   UNL     1     -39.140 -49.756  11.894  1.00  0.00     0.080 A 
HETATM    4  C   UNL     1     -37.907 -50.574  12.041  1.00  0.00     0.089 C 
HETATM    5  N   UNL     1     -39.187 -48.583  11.299  1.00  0.00    -0.344 N 
HETATM    6  C   UNL     1     -40.498 -48.193  11.331  1.00  0.00     0.060 A 
ATOM      7  HN  UNL     1     -38.403 -48.069  10.895  1.00  0.00     0.167 HD
HETATM    8  C   UNL     1     -41.089 -47.035  10.806  1.00  0.00     0.032 A 
HETATM    9  C   UNL     1     -41.284 -49.136  11.988  1.00  0.00     0.062 A 
HETATM   10  C   UNL     1     -42.466 -46.849  10.963  1.00  0.00     0.002 A 
HETATM   11  C   UNL     1     -43.238 -47.798  11.634  1.00  0.00     0.002 A 
HETATM   12  C   UNL     1     -42.667 -48.964  12.161  1.00  0.00     0.032 A 
ENDBRANCH   1   2
BRANCH   1  13
HETATM   13  C   UNL     1     -41.478 -52.389  12.104  1.00  0.00     0.160 C 
BRANCH  13  14
HETATM   14  O   UNL     1     -40.553 -53.145  11.315  1.00  0.00    -0.392 OA
HETATM   15  H   UNL     1     -40.876 -54.063  11.266  1.00  0.00     0.210 HD
ENDBRANCH  13  14
BRANCH  13  16
HETATM   16  C   UNL     1     -42.433 -53.309  12.878  1.00  0.00     0.209 C 
BRANCH  16  17
HETATM   17  O   UNL     1     -43.727 -53.198  12.274  1.00  0.00    -0.345 OA
BRANCH  17  18
HETATM   18  C   UNL     1     -44.807 -53.096  13.105  1.00  0.00     0.107 A 
HETATM   19  C   UNL     1     -45.192 -54.307  13.690  1.00  0.00     0.040 A 
HETATM   20  C   UNL     1     -46.292 -54.369  14.551  1.00  0.00     0.003 A 
HETATM   21  C   UNL     1     -47.020 -53.214  14.832  1.00  0.00     0.003 A 
HETATM   22  C   UNL     1     -46.642 -52.001  14.258  1.00  0.00     0.045 A 
HETATM   23  C   UNL     1     -45.542 -51.947  13.400  1.00  0.00     0.149 A 
HETATM   24  F   UNL     1     -45.227 -50.756  12.869  1.00  0.00    -0.203 F 
ENDBRANCH  17  18
ENDBRANCH  16  17
ENDBRANCH  13  16
ENDBRANCH   1  13
TORSDOF 6
ENDMDL
MODEL 3
REMARK VINA RESULT:      -6.3      2.671      6.477
REMARK  6 active torsions:
REMARK  status: ('A' for Active; 'I' for Inactive)
REMARK    1  A    between atoms: N_11  and  C_12 
REMARK    2  A    between atoms: C_12  and  C_13 
REMARK    3  A    between atoms: C_13  and  O_14 
REMARK    4  A    between atoms: C_13  and  C_15 
REMARK    5  A    between atoms: C_15  and  O_16 
REMARK    6  A    between atoms: O_16  and  C_17 
ROOT
HETATM    1  C   UNL     1     -42.379 -52.257  12.195  1.00  0.00     0.164 C 
ENDROOT
BRANCH   1   2
HETATM    2  N   UNL     1     -43.424 -52.095  13.191  1.00  0.00    -0.332 N 
HETATM    3  C   UNL     1     -43.756 -50.920  13.838  1.00  0.00     0.080 A 
HETATM    4  C   UNL     1     -43.056 -49.621  13.656  1.00  0.00     0.089 C 
HETATM    5  N   UNL     1     -44.792 -51.100  14.631  1.00  0.00    -0.344 N 
HETATM    6  C   UNL     1     -45.166 -52.407  14.475  1.00  0.00     0.060 A 
ATOM      7  HN  UNL     1     -45.227 -50.406  15.239  1.00  0.00     0.167 HD
HETATM    8  C   UNL     1     -46.231 -53.098  15.069  1.00  0.00     0.032 A 
HETATM    9  C   UNL     1     -44.324 -53.065  13.581  1.00  0.00     0.062 A 
HETATM   10  C   UNL     1     -46.420 -54.448  14.755  1.00  0.00     0.002 A 
HETATM   11  C   UNL     1     -45.561 -55.096  13.866  1.00  0.00     0.002 A 
HETATM   12  C   UNL     1     -44.494 -54.420  13.258  1.00  0.00     0.032 A 
ENDBRANCH   1   2
BRANCH   1  13
HETATM   13  C   UNL     1     -41.169 -53.086  12.652  1.00  0.00     0.160 C 
BRANCH  13  14
HETATM   14  O   UNL     1     -40.515 -53.683  11.526  1.00  0.00    -0.392 OA
HETATM   15  H   UNL     1     -40.822 -53.227  10.721  1.00  0.00     0.210 HD
ENDBRANCH  13  14
BRANCH  13  16
HETATM   16  C   UNL     1     -40.177 -52.302  13.523  1.00  0.00     0.209 C 
BRANCH  16  17
HETATM   17  O   UNL     1     -39.282 -51.611  12.644  1.00  0.00    -0.345 OA
BRANCH  17  18
HETATM   18  C   UNL     1     -39.323 -50.245  12.644  1.00  0.00     0.107 A 
HETATM   19  C   UNL     1     -38.802 -49.658  13.802  1.00  0.00     0.040 A 
HETATM   20  C   UNL     1     -38.791 -48.269  13.959  1.00  0.00     0.003 A 
HETATM   21  C   UNL     1     -39.306 -47.452  12.954  1.00  0.00     0.003 A 
HETATM   22  C   UNL     1     -39.825 -48.026  11.794  1.00  0.00     0.045 A 
HETATM   23  C   UNL     1     -39.832 -49.414  11.644  1.00  0.00     0.149 A 
HETATM   24  F   UNL     1     -40.348 -49.914  10.511  1.00  0.00    -0.203 F 
ENDBRANCH  17  18
ENDBRANCH  16  17
ENDBRANCH  13  16
ENDBRANCH   1  13
TORSDOF 6
ENDMDL
MODEL 4
REMARK VINA RESULT:      -6.3      2.234      3.335
REMARK  6 active torsions:
REMARK  status: ('A' for Active; 'I' for Inactive)
REMARK    1  A    between atoms: N_11  and  C_12 
REMARK    2  A    between atoms: C_12  and  C_13 
REMARK    3  A    between atoms: C_13  and  O_14 
REMARK    4  A    between atoms: C_13  and  C_15 
REMARK    5  A    between atoms: C_15  and  O_16 
REMARK    6  A    between atoms: O_16  and  C_17 
ROOT
HETATM    1  C   UNL     1     -41.492 -48.632  12.146  1.00  0.00     0.164 C 
ENDROOT
BRANCH   1   2
HETATM    2  N   UNL     1     -41.790 -47.541  11.233  1.00  0.00    -0.332 N 
HETATM    3  C   UNL     1     -40.902 -46.569  10.809  1.00  0.00     0.080 A 
HETATM    4  C   UNL     1     -39.492 -46.449  11.263  1.00  0.00     0.089 C 
HETATM    5  N   UNL     1     -41.472 -45.768   9.933  1.00  0.00    -0.344 N 
HETATM    6  C   UNL     1     -42.743 -46.243   9.754  1.00  0.00     0.060 A 
ATOM      7  HN  UNL     1     -41.051 -44.957   9.480  1.00  0.00     0.167 HD
HETATM    8  C   UNL     1     -43.752 -45.770   8.903  1.00  0.00     0.032 A 
HETATM    9  C   UNL     1     -42.979 -47.354  10.560  1.00  0.00     0.062 A 
HETATM   10  C   UNL     1     -44.987 -46.425   8.891  1.00  0.00     0.002 A 
HETATM   11  C   UNL     1     -45.212 -47.530   9.713  1.00  0.00     0.002 A 
HETATM   12  C   UNL     1     -44.214 -48.021  10.566  1.00  0.00     0.032 A 
ENDBRANCH   1   2
BRANCH   1  13
HETATM   13  C   UNL     1     -41.401 -50.019  11.493  1.00  0.00     0.160 C 
BRANCH  13  14
HETATM   14  O   UNL     1     -40.454 -50.007  10.418  1.00  0.00    -0.392 OA
HETATM   15  H   UNL     1     -39.622 -50.399  10.742  1.00  0.00     0.210 HD
ENDBRANCH  13  14
BRANCH  13  16
HETATM   16  C   UNL     1     -41.103 -51.151  12.486  1.00  0.00     0.209 C 
BRANCH  16  17
HETATM   17  O   UNL     1     -41.597 -52.368  11.916  1.00  0.00    -0.345 OA
BRANCH  17  18
HETATM   18  C   UNL     1     -42.368 -53.171  12.708  1.00  0.00     0.107 A 
HETATM   19  C   UNL     1     -43.735 -53.117  12.418  1.00  0.00     0.040 A 
HETATM   20  C   UNL     1     -44.654 -53.869  13.155  1.00  0.00     0.003 A 
HETATM   21  C   UNL     1     -44.211 -54.684  14.195  1.00  0.00     0.003 A 
HETATM   22  C   UNL     1     -42.850 -54.749  14.490  1.00  0.00     0.045 A 
HETATM   23  C   UNL     1     -41.937 -53.996  13.750  1.00  0.00     0.149 A 
HETATM   24  F   UNL     1     -40.640 -54.091  14.080  1.00  0.00    -0.203 F 
ENDBRANCH  17  18
ENDBRANCH  16  17
ENDBRANCH  13  16
ENDBRANCH   1  13
TORSDOF 6
ENDMDL
MODEL 5
REMARK VINA RESULT:      -6.2      2.674      5.400
REMARK  6 active torsions:
REMARK  status: ('A' for Active; 'I' for Inactive)
REMARK    1  A    between atoms: N_11  and  C_12 
REMARK    2  A    between atoms: C_12  and  C_13 
REMARK    3  A    between atoms: C_13  and  O_14 
REMARK    4  A    between atoms: C_13  and  C_15 
REMARK    5  A    between atoms: C_15  and  O_16 
REMARK    6  A    between atoms: O_16  and  C_17 
ROOT
HETATM    1  C   UNL     1     -42.012 -50.170  12.275  1.00  0.00     0.164 C 
ENDROOT
BRANCH   1   2
HETATM    2  N   UNL     1     -42.505 -50.876  13.446  1.00  0.00    -0.332 N 
HETATM    3  C   UNL     1     -42.475 -50.413  14.748  1.00  0.00     0.080 A 
HETATM    4  C   UNL     1     -41.879 -49.120  15.178  1.00  0.00     0.089 C 
HETATM    5  N   UNL     1     -43.061 -51.268  15.560  1.00  0.00    -0.344 N 
HETATM    6  C   UNL     1     -43.513 -52.291  14.773  1.00  0.00     0.060 A 
ATOM      7  HN  UNL     1     -43.158 -51.183  16.573  1.00  0.00     0.167 HD
HETATM    8  C   UNL     1     -44.232 -53.438  15.140  1.00  0.00     0.032 A 
HETATM    9  C   UNL     1     -43.176 -52.081  13.438  1.00  0.00     0.062 A 
HETATM   10  C   UNL     1     -44.589 -54.357  14.148  1.00  0.00     0.002 A 
HETATM   11  C   UNL     1     -44.234 -54.138  12.817  1.00  0.00     0.002 A 
HETATM   12  C   UNL     1     -43.520 -52.995  12.430  1.00  0.00     0.032 A 
ENDBRANCH   1   2
BRANCH   1  13
HETATM   13  C   UNL     1     -40.736 -50.754  11.654  1.00  0.00     0.160 C 
BRANCH  13  14
HETATM   14  O   UNL     1     -40.453 -50.123  10.400  1.00  0.00    -0.392 OA
HETATM   15  H   UNL     1     -40.920 -50.615   9.700  1.00  0.00     0.210 HD
ENDBRANCH  13  14
BRANCH  13  16
HETATM   16  C   UNL     1     -39.518 -50.712  12.587  1.00  0.00     0.209 C 
BRANCH  16  17
HETATM   17  O   UNL     1     -39.076 -52.059  12.785  1.00  0.00    -0.345 OA
BRANCH  17  18
HETATM   18  C   UNL     1     -39.552 -52.729  13.877  1.00  0.00     0.107 A 
HETATM   19  C   UNL     1     -39.269 -52.106  15.096  1.00  0.00     0.040 A 
HETATM   20  C   UNL     1     -39.675 -52.679  16.305  1.00  0.00     0.003 A 
HETATM   21  C   UNL     1     -40.370 -53.887  16.302  1.00  0.00     0.003 A 
HETATM   22  C   UNL     1     -40.661 -54.515  15.092  1.00  0.00     0.045 A 
HETATM   23  C   UNL     1     -40.253 -53.937  13.889  1.00  0.00     0.149 A 
HETATM   24  F   UNL     1     -40.553 -54.586  12.754  1.00  0.00    -0.203 F 
ENDBRANCH  17  18
ENDBRANCH  16  17
ENDBRANCH  13  16
ENDBRANCH   1  13
TORSDOF 6
ENDMDL
MODEL 6
REMARK VINA RESULT:      -6.0      3.405      6.052
REMARK  6 active torsions:
REMARK  status: ('A' for Active; 'I' for Inactive)
REMARK    1  A    between atoms: N_11  and  C_12 
REMARK    2  A    between atoms: C_12  and  C_13 
REMARK    3  A    between atoms: C_13  and  O_14 
REMARK    4  A    between atoms: C_13  and  C_15 
REMARK    5  A    between atoms: C_15  and  O_16 
REMARK    6  A    between atoms: O_16  and  C_17 
ROOT
HETATM    1  C   UNL     1     -42.438 -52.272  12.173  1.00  0.00     0.164 C 
ENDROOT
BRANCH   1   2
HETATM    2  N   UNL     1     -43.521 -52.122  13.130  1.00  0.00    -0.332 N 
HETATM    3  C   UNL     1     -43.928 -50.940  13.719  1.00  0.00     0.080 A 
HETATM    4  C   UNL     1     -43.283 -49.617  13.507  1.00  0.00     0.089 C 
HETATM    5  N   UNL     1     -44.979 -51.139  14.487  1.00  0.00    -0.344 N 
HETATM    6  C   UNL     1     -45.287 -52.467  14.373  1.00  0.00     0.060 A 
ATOM      7  HN  UNL     1     -45.465 -50.443  15.054  1.00  0.00     0.167 HD
HETATM    8  C   UNL     1     -46.338 -53.185  14.961  1.00  0.00     0.032 A 
HETATM    9  C   UNL     1     -44.388 -53.118  13.531  1.00  0.00     0.062 A 
HETATM   10  C   UNL     1     -46.453 -54.553  14.695  1.00  0.00     0.002 A 
HETATM   11  C   UNL     1     -45.537 -55.193  13.859  1.00  0.00     0.002 A 
HETATM   12  C   UNL     1     -44.484 -54.491  13.256  1.00  0.00     0.032 A 
ENDBRANCH   1   2
BRANCH   1  13
HETATM   13  C   UNL     1     -41.311 -53.218  12.611  1.00  0.00     0.160 C 
BRANCH  13  14
HETATM   14  O   UNL     1     -40.307 -53.309  11.593  1.00  0.00    -0.392 OA
HETATM   15  H   UNL     1     -40.197 -52.425  11.197  1.00  0.00     0.210 HD
ENDBRANCH  13  14
BRANCH  13  16
HETATM   16  C   UNL     1     -40.696 -52.858  13.971  1.00  0.00     0.209 C 
BRANCH  16  17
HETATM   17  O   UNL     1     -39.765 -53.891  14.312  1.00  0.00    -0.345 OA
BRANCH  17  18
HETATM   18  C   UNL     1     -40.142 -54.793  15.267  1.00  0.00     0.107 A 
HETATM   19  C   UNL     1     -41.516 -54.808  15.527  1.00  0.00     0.040 A 
HETATM   20  C   UNL     1     -42.053 -55.665  16.492  1.00  0.00     0.003 A 
HETATM   21  C   UNL     1     -41.215 -56.516  17.210  1.00  0.00     0.003 A 
HETATM   22  C   UNL     1     -39.844 -56.512  16.956  1.00  0.00     0.045 A 
HETATM   23  C   UNL     1     -39.315 -55.655  15.991  1.00  0.00     0.149 A 
HETATM   24  F   UNL     1     -37.988 -55.686  15.791  1.00  0.00    -0.203 F 
ENDBRANCH  17  18
ENDBRANCH  16  17
ENDBRANCH  13  16
ENDBRANCH   1  13
TORSDOF 6
ENDMDL
MODEL 7
REMARK VINA RESULT:      -5.9      3.037      6.620
REMARK  6 active torsions:
REMARK  status: ('A' for Active; 'I' for Inactive)
REMARK    1  A    between atoms: N_11  and  C_12 
REMARK    2  A    between atoms: C_12  and  C_13 
REMARK    3  A    between atoms: C_13  and  O_14 
REMARK    4  A    between atoms: C_13  and  C_15 
REMARK    5  A    between atoms: C_15  and  O_16 
REMARK    6  A    between atoms: O_16  and  C_17 
ROOT
HETATM    1  C   UNL     1     -41.344 -51.501  13.479  1.00  0.00     0.164 C 
ENDROOT
BRANCH   1   2
HETATM    2  N   UNL     1     -42.367 -52.515  13.669  1.00  0.00    -0.332 N 
HETATM    3  C   UNL     1     -42.151 -53.828  14.044  1.00  0.00     0.080 A 
HETATM    4  C   UNL     1     -40.815 -54.440  14.270  1.00  0.00     0.089 C 
HETATM    5  N   UNL     1     -43.294 -54.465  14.192  1.00  0.00    -0.344 N 
HETATM    6  C   UNL     1     -44.276 -53.546  13.942  1.00  0.00     0.060 A 
ATOM      7  HN  UNL     1     -43.422 -55.446  14.441  1.00  0.00     0.167 HD
HETATM    8  C   UNL     1     -45.669 -53.703  13.994  1.00  0.00     0.032 A 
HETATM    9  C   UNL     1     -43.730 -52.310  13.604  1.00  0.00     0.062 A 
HETATM   10  C   UNL     1     -46.483 -52.606  13.694  1.00  0.00     0.002 A 
HETATM   11  C   UNL     1     -45.920 -51.378  13.346  1.00  0.00     0.002 A 
HETATM   12  C   UNL     1     -44.531 -51.200  13.294  1.00  0.00     0.032 A 
ENDBRANCH   1   2
BRANCH   1  13
HETATM   13  C   UNL     1     -40.742 -51.442  12.068  1.00  0.00     0.160 C 
BRANCH  13  14
HETATM   14  O   UNL     1     -41.369 -52.405  11.213  1.00  0.00    -0.392 OA
HETATM   15  H   UNL     1     -40.827 -53.215  11.220  1.00  0.00     0.210 HD
ENDBRANCH  13  14
BRANCH  13  16
HETATM   16  C   UNL     1     -40.768 -50.040  11.443  1.00  0.00     0.209 C 
BRANCH  16  17
HETATM   17  O   UNL     1     -39.415 -49.578  11.358  1.00  0.00    -0.345 OA
BRANCH  17  18
HETATM   18  C   UNL     1     -38.944 -48.805  12.381  1.00  0.00     0.107 A 
HETATM   19  C   UNL     1     -39.587 -47.569  12.505  1.00  0.00     0.040 A 
HETATM   20  C   UNL     1     -39.205 -46.659  13.495  1.00  0.00     0.003 A 
HETATM   21  C   UNL     1     -38.170 -46.979  14.371  1.00  0.00     0.003 A 
HETATM   22  C   UNL     1     -37.524 -48.210  14.259  1.00  0.00     0.045 A 
HETATM   23  C   UNL     1     -37.912 -49.114  13.269  1.00  0.00     0.149 A 
HETATM   24  F   UNL     1     -37.253 -50.281  13.201  1.00  0.00    -0.203 F 
ENDBRANCH  17  18
ENDBRANCH  16  17
ENDBRANCH  13  16
ENDBRANCH   1  13
TORSDOF 6
ENDMDL
MODEL 8
REMARK VINA RESULT:      -5.8      2.352      3.867
REMARK  6 active torsions:
REMARK  status: ('A' for Active; 'I' for Inactive)
REMARK    1  A    between atoms: N_11  and  C_12 
REMARK    2  A    between atoms: C_12  and  C_13 
REMARK    3  A    between atoms: C_13  and  O_14 
REMARK    4  A    between atoms: C_13  and  C_15 
REMARK    5  A    between atoms: C_15  and  O_16 
REMARK    6  A    between atoms: O_16  and  C_17 
ROOT
HETATM    1  C   UNL     1     -41.713 -49.380  11.993  1.00  0.00     0.164 C 
ENDROOT
BRANCH   1   2
HETATM    2  N   UNL     1     -41.303 -48.039  11.615  1.00  0.00    -0.332 N 
HETATM    3  C   UNL     1     -41.765 -47.323  10.526  1.00  0.00     0.080 A 
HETATM    4  C   UNL     1     -42.734 -47.834   9.521  1.00  0.00     0.089 C 
HETATM    5  N   UNL     1     -41.241 -46.115  10.506  1.00  0.00    -0.344 N 
HETATM    6  C   UNL     1     -40.449 -46.025  11.619  1.00  0.00     0.060 A 
ATOM      7  HN  UNL     1     -41.394 -45.392   9.803  1.00  0.00     0.167 HD
HETATM    8  C   UNL     1     -39.693 -44.939  12.081  1.00  0.00     0.032 A 
HETATM    9  C   UNL     1     -40.459 -47.219  12.336  1.00  0.00     0.062 A 
HETATM   10  C   UNL     1     -38.952 -45.084  13.258  1.00  0.00     0.002 A 
HETATM   11  C   UNL     1     -38.963 -46.290  13.959  1.00  0.00     0.002 A 
HETATM   12  C   UNL     1     -39.718 -47.386  13.517  1.00  0.00     0.032 A 
ENDBRANCH   1   2
BRANCH   1  13
HETATM   13  C   UNL     1     -40.788 -50.504  11.506  1.00  0.00     0.160 C 
BRANCH  13  14
HETATM   14  O   UNL     1     -39.816 -49.992  10.587  1.00  0.00    -0.392 OA
HETATM   15  H   UNL     1     -39.146 -49.501  11.097  1.00  0.00     0.210 HD
ENDBRANCH  13  14
BRANCH  13  16
HETATM   16  C   UNL     1     -40.121 -51.292  12.642  1.00  0.00     0.209 C 
BRANCH  16  17
HETATM   17  O   UNL     1     -40.335 -52.685  12.388  1.00  0.00    -0.345 OA
BRANCH  17  18
HETATM   18  C   UNL     1     -41.200 -53.352  13.209  1.00  0.00     0.107 A 
HETATM   19  C   UNL     1     -40.583 -53.990  14.291  1.00  0.00     0.040 A 
HETATM   20  C   UNL     1     -41.334 -54.729  15.210  1.00  0.00     0.003 A 
HETATM   21  C   UNL     1     -42.714 -54.838  15.051  1.00  0.00     0.003 A 
HETATM   22  C   UNL     1     -43.340 -54.204  13.979  1.00  0.00     0.045 A 
HETATM   23  C   UNL     1     -42.584 -53.467  13.066  1.00  0.00     0.149 A 
HETATM   24  F   UNL     1     -43.236 -52.882  12.049  1.00  0.00    -0.203 F 
ENDBRANCH  17  18
ENDBRANCH  16  17
ENDBRANCH  13  16
ENDBRANCH   1  13
TORSDOF 6
ENDMDL
MODEL 9
REMARK VINA RESULT:      -5.8      2.745      6.153
REMARK  6 active torsions:
REMARK  status: ('A' for Active; 'I' for Inactive)
REMARK    1  A    between atoms: N_11  and  C_12 
REMARK    2  A    between atoms: C_12  and  C_13 
REMARK    3  A    between atoms: C_13  and  O_14 
REMARK    4  A    between atoms: C_13  and  C_15 
REMARK    5  A    between atoms: C_15  and  O_16 
REMARK    6  A    between atoms: O_16  and  C_17 
ROOT
HETATM    1  C   UNL     1     -41.372 -51.377  13.420  1.00  0.00     0.164 C 
ENDROOT
BRANCH   1   2
HETATM    2  N   UNL     1     -42.365 -52.426  13.578  1.00  0.00    -0.332 N 
HETATM    3  C   UNL     1     -42.109 -53.749  13.888  1.00  0.00     0.080 A 
HETATM    4  C   UNL     1     -40.754 -54.334  14.064  1.00  0.00     0.089 C 
HETATM    5  N   UNL     1     -43.233 -54.422  14.023  1.00  0.00    -0.344 N 
HETATM    6  C   UNL     1     -44.242 -53.518  13.832  1.00  0.00     0.060 A 
ATOM      7  HN  UNL     1     -43.331 -55.417  14.228  1.00  0.00     0.167 HD
HETATM    8  C   UNL     1     -45.629 -53.715  13.899  1.00  0.00     0.032 A 
HETATM    9  C   UNL     1     -43.733 -52.254  13.544  1.00  0.00     0.062 A 
HETATM   10  C   UNL     1     -46.477 -52.628  13.663  1.00  0.00     0.002 A 
HETATM   11  C   UNL     1     -45.952 -51.370  13.364  1.00  0.00     0.002 A 
HETATM   12  C   UNL     1     -44.568 -51.153  13.299  1.00  0.00     0.032 A 
ENDBRANCH   1   2
BRANCH   1  13
HETATM   13  C   UNL     1     -40.688 -51.332  12.046  1.00  0.00     0.160 C 
BRANCH  13  14
HETATM   14  O   UNL     1     -41.321 -52.242  11.139  1.00  0.00    -0.392 OA
HETATM   15  H   UNL     1     -40.829 -53.084  11.161  1.00  0.00     0.210 HD
ENDBRANCH  13  14
BRANCH  13  16
HETATM   16  C   UNL     1     -40.596 -49.922  11.447  1.00  0.00     0.209 C 
BRANCH  16  17
HETATM   17  O   UNL     1     -41.928 -49.405  11.348  1.00  0.00    -0.345 OA
BRANCH  17  18
HETATM   18  C   UNL     1     -42.073 -48.059  11.161  1.00  0.00     0.107 A 
HETATM   19  C   UNL     1     -41.790 -47.292  12.296  1.00  0.00     0.040 A 
HETATM   20  C   UNL     1     -41.911 -45.900  12.267  1.00  0.00     0.003 A 
HETATM   21  C   UNL     1     -42.319 -45.261  11.097  1.00  0.00     0.003 A 
HETATM   22  C   UNL     1     -42.600 -46.016   9.960  1.00  0.00     0.045 A 
HETATM   23  C   UNL     1     -42.476 -47.406   9.995  1.00  0.00     0.149 A 
HETATM   24  F   UNL     1     -42.765 -48.084   8.874  1.00  0.00    -0.203 F 
ENDBRANCH  17  18
ENDBRANCH  16  17
ENDBRANCH  13  16
ENDBRANCH   1  13
TORSDOF 6
ENDMDL
