MODEL 1
REMARK VINA RESULT:      -5.7      0.000      0.000
REMARK  6 active torsions:
REMARK  status: ('A' for Active; 'I' for Inactive)
REMARK    1  A    between atoms: C_5  and  N_6 
REMARK       I    between atoms: N_6  and  C_7 
REMARK       I    between atoms: C_7  and  N_9 
REMARK    2  A    between atoms: N_9  and  C_10 
REMARK    3  A    between atoms: C_10  and  C_11 
REMARK    4  A    between atoms: C_10  and  C_14 
REMARK    5  A    between atoms: C_11  and  C_12 
REMARK    6  A    between atoms: C_12  and  O_13 
ROOT
HETATM    1  N   UNL     1     -42.112 -51.013  11.811  1.00  0.00    -0.289 N 
HETATM    2  C   UNL     1     -42.678 -51.655  12.882  1.00  0.00     0.322 C 
HETATM    3  O   UNL     1     -42.133 -51.924  13.946  1.00  0.00    -0.247 OA
HETATM    4  N   UNL     1     -43.999 -51.979  12.648  1.00  0.00    -0.338 N 
HETATM    5  H   UNL     1     -42.571 -50.993  10.919  1.00  0.00     0.172 HD
HETATM    6  H   UNL     1     -44.393 -51.838  11.732  1.00  0.00     0.164 HD
ENDROOT
BRANCH   1   7
HETATM    7  C   UNL     1     -40.838 -50.514  11.864  1.00  0.00     0.152 A 
HETATM    8  S   UNL     1     -40.733 -48.821  11.681  1.00  0.00    -0.064 SA
HETATM    9  C   UNL     1     -39.025 -48.933  11.813  1.00  0.00     0.077 A 
HETATM   10  C   UNL     1     -38.655 -50.247  12.033  1.00  0.00     0.014 A 
HETATM   11  C   UNL     1     -37.283 -50.770  12.249  1.00  0.00     0.068 C 
HETATM   12  N   UNL     1     -39.708 -51.145  12.049  1.00  0.00    -0.340 N 
ATOM     13  HN  UNL     1     -39.616 -52.152  12.185  1.00  0.00     0.167 HD
ENDBRANCH   1   7
BRANCH   4  14
HETATM   14  C   UNL     1     -44.796 -52.702  13.631  1.00  0.00     0.092 C 
BRANCH  14  15
HETATM   15  C   UNL     1     -46.252 -52.223  13.632  1.00  0.00     0.051 C 
BRANCH  15  16
HETATM   16  C   UNL     1     -46.643 -51.499  12.349  1.00  0.00     0.166 C 
BRANCH  16  17
HETATM   17  O   UNL     1     -46.809 -52.454  11.303  1.00  0.00    -0.401 OA
HETATM   18  H   UNL     1     -47.743 -52.721  11.297  1.00  0.00     0.209 HD
ENDBRANCH  16  17
ENDBRANCH  15  16
ENDBRANCH  14  15
BRANCH  14  19
HETATM   19  C   UNL     1     -44.613 -54.178  13.354  1.00  0.00     0.008 A 
HETATM   20  C   UNL     1     -45.576 -55.219  13.880  1.00  0.00     0.007 A 
HETATM   21  C   UNL     1     -44.160 -55.189  14.385  1.00  0.00     0.007 A 
ENDBRANCH  14  19
ENDBRANCH   4  14
TORSDOF 6
ENDMDL
MODEL 2
REMARK VINA RESULT:      -5.6      3.635      6.494
REMARK  6 active torsions:
REMARK  status: ('A' for Active; 'I' for Inactive)
REMARK    1  A    between atoms: C_5  and  N_6 
REMARK       I    between atoms: N_6  and  C_7 
REMARK       I    between atoms: C_7  and  N_9 
REMARK    2  A    between atoms: N_9  and  C_10 
REMARK    3  A    between atoms: C_10  and  C_11 
REMARK    4  A    between atoms: C_10  and  C_14 
REMARK    5  A    between atoms: C_11  and  C_12 
REMARK    6  A    between atoms: C_12  and  O_13 
ROOT
HETATM    1  N   UNL     1     -42.107 -48.208   9.527  1.00  0.00    -0.289 N 
HETATM    2  C   UNL     1     -41.769 -48.740  10.745  1.00  0.00     0.322 C 
HETATM    3  O   UNL     1     -42.394 -48.627  11.792  1.00  0.00    -0.247 OA
HETATM    4  N   UNL     1     -40.599 -49.471  10.680  1.00  0.00    -0.338 N 
HETATM    5  H   UNL     1     -41.451 -48.199   8.768  1.00  0.00     0.172 HD
HETATM    6  H   UNL     1     -40.054 -49.465   9.834  1.00  0.00     0.164 HD
ENDROOT
BRANCH   1   7
HETATM    7  C   UNL     1     -43.281 -47.530   9.342  1.00  0.00     0.152 A 
HETATM    8  S   UNL     1     -43.090 -45.871   8.985  1.00  0.00    -0.064 SA
HETATM    9  C   UNL     1     -44.798 -45.710   8.924  1.00  0.00     0.077 A 
HETATM   10  C   UNL     1     -45.396 -46.939   9.134  1.00  0.00     0.014 A 
HETATM   11  C   UNL     1     -46.847 -47.248   9.116  1.00  0.00     0.068 C 
HETATM   12  N   UNL     1     -44.510 -47.973   9.383  1.00  0.00    -0.340 N 
ATOM     13  HN  UNL     1     -44.777 -48.939   9.571  1.00  0.00     0.167 HD
ENDBRANCH   1   7
BRANCH   4  14
HETATM   14  C   UNL     1     -40.022 -50.099  11.862  1.00  0.00     0.092 C 
BRANCH  14  15
HETATM   15  C   UNL     1     -40.322 -51.601  11.900  1.00  0.00     0.051 C 
BRANCH  15  16
HETATM   16  C   UNL     1     -41.650 -51.927  12.573  1.00  0.00     0.166 C 
BRANCH  16  17
HETATM   17  O   UNL     1     -42.542 -52.481  11.608  1.00  0.00    -0.401 OA
HETATM   18  H   UNL     1     -42.026 -52.666  10.806  1.00  0.00     0.209 HD
ENDBRANCH  16  17
ENDBRANCH  15  16
ENDBRANCH  14  15
BRANCH  14  19
HETATM   19  C   UNL     1     -38.552 -49.744  11.882  1.00  0.00     0.008 A 
HETATM   20  C   UNL     1     -37.537 -50.566  12.646  1.00  0.00     0.007 A 
HETATM   21  C   UNL     1     -37.833 -49.156  13.077  1.00  0.00     0.007 A 
ENDBRANCH  14  19
ENDBRANCH   4  14
TORSDOF 6
ENDMDL
MODEL 3
REMARK VINA RESULT:      -5.4      4.244      6.543
REMARK  6 active torsions:
REMARK  status: ('A' for Active; 'I' for Inactive)
REMARK    1  A    between atoms: C_5  and  N_6 
REMARK       I    between atoms: N_6  and  C_7 
REMARK       I    between atoms: C_7  and  N_9 
REMARK    2  A    between atoms: N_9  and  C_10 
REMARK    3  A    between atoms: C_10  and  C_11 
REMARK    4  A    between atoms: C_10  and  C_14 
REMARK    5  A    between atoms: C_11  and  C_12 
REMARK    6  A    between atoms: C_12  and  O_13 
ROOT
HETATM    1  N   UNL     1     -40.582 -49.639  10.844  1.00  0.00    -0.289 N 
HETATM    2  C   UNL     1     -41.583 -48.731  11.074  1.00  0.00     0.322 C 
HETATM    3  O   UNL     1     -42.466 -48.814  11.920  1.00  0.00    -0.247 OA
HETATM    4  N   UNL     1     -41.495 -47.643  10.230  1.00  0.00    -0.338 N 
HETATM    5  H   UNL     1     -40.012 -49.581  10.020  1.00  0.00     0.172 HD
HETATM    6  H   UNL     1     -40.824 -47.646   9.480  1.00  0.00     0.164 HD
ENDROOT
BRANCH   1   7
HETATM    7  C   UNL     1     -40.420 -50.745  11.633  1.00  0.00     0.152 A 
HETATM    8  S   UNL     1     -39.212 -50.591  12.829  1.00  0.00    -0.064 SA
HETATM    9  C   UNL     1     -39.539 -52.198  13.336  1.00  0.00     0.077 A 
HETATM   10  C   UNL     1     -40.576 -52.727  12.591  1.00  0.00     0.014 A 
HETATM   11  C   UNL     1     -41.198 -54.066  12.738  1.00  0.00     0.068 C 
HETATM   12  N   UNL     1     -41.065 -51.883  11.608  1.00  0.00    -0.340 N 
ATOM     13  HN  UNL     1     -41.818 -52.114  10.960  1.00  0.00     0.167 HD
ENDBRANCH   1   7
BRANCH   4  14
HETATM   14  C   UNL     1     -42.477 -46.566  10.264  1.00  0.00     0.092 C 
BRANCH  14  15
HETATM   15  C   UNL     1     -41.799 -45.192  10.281  1.00  0.00     0.051 C 
BRANCH  15  16
HETATM   16  C   UNL     1     -40.292 -45.273  10.496  1.00  0.00     0.166 C 
BRANCH  16  17
HETATM   17  O   UNL     1     -39.626 -44.964   9.274  1.00  0.00    -0.401 OA
HETATM   18  H   UNL     1     -39.143 -45.759   8.996  1.00  0.00     0.209 HD
ENDBRANCH  16  17
ENDBRANCH  15  16
ENDBRANCH  14  15
BRANCH  14  19
HETATM   19  C   UNL     1     -43.427 -46.791   9.110  1.00  0.00     0.008 A 
HETATM   20  C   UNL     1     -44.610 -45.884   8.853  1.00  0.00     0.007 A 
HETATM   21  C   UNL     1     -44.840 -47.313   9.257  1.00  0.00     0.007 A 
ENDBRANCH  14  19
ENDBRANCH   4  14
TORSDOF 6
ENDMDL
MODEL 4
REMARK VINA RESULT:      -5.3      4.951      7.355
REMARK  6 active torsions:
REMARK  status: ('A' for Active; 'I' for Inactive)
REMARK    1  A    between atoms: C_5  and  N_6 
REMARK       I    between atoms: N_6  and  C_7 
REMARK       I    between atoms: C_7  and  N_9 
REMARK    2  A    between atoms: N_9  and  C_10 
REMARK    3  A    between atoms: C_10  and  C_11 
REMARK    4  A    between atoms: C_10  and  C_14 
REMARK    5  A    between atoms: C_11  and  C_12 
REMARK    6  A    between atoms: C_12  and  O_13 
ROOT
HETATM    1  N   UNL     1     -41.934 -47.924   9.712  1.00  0.00    -0.289 N 
HETATM    2  C   UNL     1     -41.566 -48.314  10.974  1.00  0.00     0.322 C 
HETATM    3  O   UNL     1     -42.249 -48.248  11.989  1.00  0.00    -0.247 OA
HETATM    4  N   UNL     1     -40.286 -48.831  11.001  1.00  0.00    -0.338 N 
HETATM    5  H   UNL     1     -41.255 -47.847   8.977  1.00  0.00     0.172 HD
HETATM    6  H   UNL     1     -39.711 -48.782  10.177  1.00  0.00     0.164 HD
ENDROOT
BRANCH   1   7
HETATM    7  C   UNL     1     -43.197 -47.474   9.439  1.00  0.00     0.152 A 
HETATM    8  S   UNL     1     -43.283 -45.821   9.020  1.00  0.00    -0.064 SA
HETATM    9  C   UNL     1     -44.987 -45.971   8.868  1.00  0.00     0.077 A 
HETATM   10  C   UNL     1     -45.368 -47.279   9.102  1.00  0.00     0.014 A 
HETATM   11  C   UNL     1     -46.738 -47.843   9.026  1.00  0.00     0.068 C 
HETATM   12  N   UNL     1     -44.329 -48.128   9.440  1.00  0.00    -0.340 N 
ATOM     13  HN  UNL     1     -44.430 -49.120   9.657  1.00  0.00     0.167 HD
ENDBRANCH   1   7
BRANCH   4  14
HETATM   14  C   UNL     1     -39.665 -49.275  12.242  1.00  0.00     0.092 C 
BRANCH  14  15
HETATM   15  C   UNL     1     -38.821 -50.536  12.026  1.00  0.00     0.051 C 
BRANCH  15  16
HETATM   16  C   UNL     1     -37.431 -50.235  11.479  1.00  0.00     0.166 C 
BRANCH  16  17
HETATM   17  O   UNL     1     -37.515 -50.029  10.071  1.00  0.00    -0.401 OA
HETATM   18  H   UNL     1     -36.703 -49.574   9.793  1.00  0.00     0.209 HD
ENDBRANCH  16  17
ENDBRANCH  15  16
ENDBRANCH  14  15
BRANCH  14  19
HETATM   19  C   UNL     1     -38.910 -48.094  12.810  1.00  0.00     0.008 A 
HETATM   20  C   UNL     1     -38.339 -48.103  14.211  1.00  0.00     0.007 A 
HETATM   21  C   UNL     1     -39.457 -47.159  13.866  1.00  0.00     0.007 A 
ENDBRANCH  14  19
ENDBRANCH   4  14
TORSDOF 6
ENDMDL
MODEL 5
REMARK VINA RESULT:      -5.1      2.887      3.866
REMARK  6 active torsions:
REMARK  status: ('A' for Active; 'I' for Inactive)
REMARK    1  A    between atoms: C_5  and  N_6 
REMARK       I    between atoms: N_6  and  C_7 
REMARK       I    between atoms: C_7  and  N_9 
REMARK    2  A    between atoms: N_9  and  C_10 
REMARK    3  A    between atoms: C_10  and  C_11 
REMARK    4  A    between atoms: C_10  and  C_14 
REMARK    5  A    between atoms: C_11  and  C_12 
REMARK    6  A    between atoms: C_12  and  O_13 
ROOT
HETATM    1  N   UNL     1     -41.685 -49.305  10.694  1.00  0.00    -0.289 N 
HETATM    2  C   UNL     1     -41.672 -49.976  11.889  1.00  0.00     0.322 C 
HETATM    3  O   UNL     1     -41.487 -49.491  12.999  1.00  0.00    -0.247 OA
HETATM    4  N   UNL     1     -41.914 -51.325  11.725  1.00  0.00    -0.338 N 
HETATM    5  H   UNL     1     -41.665 -49.802   9.823  1.00  0.00     0.172 HD
HETATM    6  H   UNL     1     -41.962 -51.714  10.798  1.00  0.00     0.164 HD
ENDROOT
BRANCH   1   7
HETATM    7  C   UNL     1     -41.565 -47.944  10.634  1.00  0.00     0.152 A 
HETATM    8  S   UNL     1     -43.049 -47.106  10.532  1.00  0.00    -0.064 SA
HETATM    9  C   UNL     1     -42.185 -45.624  10.469  1.00  0.00     0.077 A 
HETATM   10  C   UNL     1     -40.828 -45.865  10.576  1.00  0.00     0.014 A 
HETATM   11  C   UNL     1     -39.737 -44.860  10.612  1.00  0.00     0.068 C 
HETATM   12  N   UNL     1     -40.487 -47.204  10.659  1.00  0.00    -0.340 N 
ATOM     13  HN  UNL     1     -39.534 -47.562  10.730  1.00  0.00     0.167 HD
ENDBRANCH   1   7
BRANCH   4  14
HETATM   14  C   UNL     1     -41.909 -52.247  12.854  1.00  0.00     0.092 C 
BRANCH  14  15
HETATM   15  C   UNL     1     -43.119 -53.187  12.814  1.00  0.00     0.051 C 
BRANCH  15  16
HETATM   16  C   UNL     1     -44.443 -52.463  13.028  1.00  0.00     0.166 C 
BRANCH  16  17
HETATM   17  O   UNL     1     -45.341 -52.805  11.975  1.00  0.00    -0.401 OA
HETATM   18  H   UNL     1     -45.795 -53.624  12.234  1.00  0.00     0.209 HD
ENDBRANCH  16  17
ENDBRANCH  15  16
ENDBRANCH  14  15
BRANCH  14  19
HETATM   19  C   UNL     1     -40.565 -52.942  12.856  1.00  0.00     0.008 A 
HETATM   20  C   UNL     1     -40.294 -54.163  13.707  1.00  0.00     0.007 A 
HETATM   21  C   UNL     1     -39.573 -52.876  13.996  1.00  0.00     0.007 A 
ENDBRANCH  14  19
ENDBRANCH   4  14
TORSDOF 6
ENDMDL
MODEL 6
REMARK VINA RESULT:      -5.1      2.106      2.845
REMARK  6 active torsions:
REMARK  status: ('A' for Active; 'I' for Inactive)
REMARK    1  A    between atoms: C_5  and  N_6 
REMARK       I    between atoms: N_6  and  C_7 
REMARK       I    between atoms: C_7  and  N_9 
REMARK    2  A    between atoms: N_9  and  C_10 
REMARK    3  A    between atoms: C_10  and  C_11 
REMARK    4  A    between atoms: C_10  and  C_14 
REMARK    5  A    between atoms: C_11  and  C_12 
REMARK    6  A    between atoms: C_12  and  O_13 
ROOT
HETATM    1  N   UNL     1     -41.484 -50.676  11.569  1.00  0.00    -0.289 N 
HETATM    2  C   UNL     1     -42.398 -51.150  12.474  1.00  0.00     0.322 C 
HETATM    3  O   UNL     1     -43.152 -50.481  13.172  1.00  0.00    -0.247 OA
HETATM    4  N   UNL     1     -42.407 -52.529  12.524  1.00  0.00    -0.338 N 
HETATM    5  H   UNL     1     -40.788 -51.281  11.175  1.00  0.00     0.172 HD
HETATM    6  H   UNL     1     -41.712 -53.051  12.017  1.00  0.00     0.164 HD
ENDROOT
BRANCH   1   7
HETATM    7  C   UNL     1     -41.377 -49.342  11.288  1.00  0.00     0.152 A 
HETATM    8  S   UNL     1     -39.931 -48.617  11.833  1.00  0.00    -0.064 SA
HETATM    9  C   UNL     1     -40.476 -47.112  11.213  1.00  0.00     0.077 A 
HETATM   10  C   UNL     1     -41.701 -47.272  10.593  1.00  0.00     0.014 A 
HETATM   11  C   UNL     1     -42.496 -46.236   9.889  1.00  0.00     0.068 C 
HETATM   12  N   UNL     1     -42.211 -48.558  10.654  1.00  0.00    -0.340 N 
ATOM     13  HN  UNL     1     -43.106 -48.852  10.262  1.00  0.00     0.167 HD
ENDBRANCH   1   7
BRANCH   4  14
HETATM   14  C   UNL     1     -43.272 -53.257  13.444  1.00  0.00     0.092 C 
BRANCH  14  15
HETATM   15  C   UNL     1     -44.517 -53.797  12.731  1.00  0.00     0.051 C 
BRANCH  15  16
HETATM   16  C   UNL     1     -45.747 -52.919  12.933  1.00  0.00     0.166 C 
BRANCH  16  17
HETATM   17  O   UNL     1     -46.348 -52.654  11.668  1.00  0.00    -0.401 OA
HETATM   18  H   UNL     1     -46.903 -51.864  11.768  1.00  0.00     0.209 HD
ENDBRANCH  16  17
ENDBRANCH  15  16
ENDBRANCH  14  15
BRANCH  14  19
HETATM   19  C   UNL     1     -42.421 -54.309  14.119  1.00  0.00     0.008 A 
HETATM   20  C   UNL     1     -42.996 -55.290  15.116  1.00  0.00     0.007 A 
HETATM   21  C   UNL     1     -41.999 -54.261  15.571  1.00  0.00     0.007 A 
ENDBRANCH  14  19
ENDBRANCH   4  14
TORSDOF 6
ENDMDL
MODEL 7
REMARK VINA RESULT:      -5.0      3.722      5.603
REMARK  6 active torsions:
REMARK  status: ('A' for Active; 'I' for Inactive)
REMARK    1  A    between atoms: C_5  and  N_6 
REMARK       I    between atoms: N_6  and  C_7 
REMARK       I    between atoms: C_7  and  N_9 
REMARK    2  A    between atoms: N_9  and  C_10 
REMARK    3  A    between atoms: C_10  and  C_11 
REMARK    4  A    between atoms: C_10  and  C_14 
REMARK    5  A    between atoms: C_11  and  C_12 
REMARK    6  A    between atoms: C_12  and  O_13 
ROOT
HETATM    1  N   UNL     1     -41.951 -49.039  12.328  1.00  0.00    -0.289 N 
HETATM    2  C   UNL     1     -40.981 -49.977  12.086  1.00  0.00     0.322 C 
HETATM    3  O   UNL     1     -40.415 -50.187  11.020  1.00  0.00    -0.247 OA
HETATM    4  N   UNL     1     -40.668 -50.697  13.222  1.00  0.00    -0.338 N 
HETATM    5  H   UNL     1     -42.484 -49.055  13.177  1.00  0.00     0.172 HD
HETATM    6  H   UNL     1     -41.215 -50.575  14.057  1.00  0.00     0.164 HD
ENDROOT
BRANCH   1   7
HETATM    7  C   UNL     1     -42.343 -48.148  11.366  1.00  0.00     0.152 A 
HETATM    8  S   UNL     1     -42.234 -46.510  11.832  1.00  0.00    -0.064 SA
HETATM    9  C   UNL     1     -42.851 -46.053  10.297  1.00  0.00     0.077 A 
HETATM   10  C   UNL     1     -43.056 -47.176   9.517  1.00  0.00     0.014 A 
HETATM   11  C   UNL     1     -43.535 -47.222   8.114  1.00  0.00     0.068 C 
HETATM   12  N   UNL     1     -42.769 -48.374  10.150  1.00  0.00    -0.340 N 
ATOM     13  HN  UNL     1     -42.874 -49.298   9.730  1.00  0.00     0.167 HD
ENDBRANCH   1   7
BRANCH   4  14
HETATM   14  C   UNL     1     -39.690 -51.777  13.198  1.00  0.00     0.092 C 
BRANCH  14  15
HETATM   15  C   UNL     1     -38.374 -51.355  13.861  1.00  0.00     0.051 C 
BRANCH  15  16
HETATM   16  C   UNL     1     -37.288 -50.994  12.855  1.00  0.00     0.166 C 
BRANCH  16  17
HETATM   17  O   UNL     1     -37.792 -51.177  11.534  1.00  0.00    -0.401 OA
HETATM   18  H   UNL     1     -37.525 -52.063  11.239  1.00  0.00     0.209 HD
ENDBRANCH  16  17
ENDBRANCH  15  16
ENDBRANCH  14  15
BRANCH  14  19
HETATM   19  C   UNL     1     -40.350 -52.991  13.813  1.00  0.00     0.008 A 
HETATM   20  C   UNL     1     -39.666 -54.339  13.864  1.00  0.00     0.007 A 
HETATM   21  C   UNL     1     -40.897 -54.158  13.020  1.00  0.00     0.007 A 
ENDBRANCH  14  19
ENDBRANCH   4  14
TORSDOF 6
ENDMDL
MODEL 8
REMARK VINA RESULT:      -5.0      2.715      6.600
REMARK  6 active torsions:
REMARK  status: ('A' for Active; 'I' for Inactive)
REMARK    1  A    between atoms: C_5  and  N_6 
REMARK       I    between atoms: N_6  and  C_7 
REMARK       I    between atoms: C_7  and  N_9 
REMARK    2  A    between atoms: N_9  and  C_10 
REMARK    3  A    between atoms: C_10  and  C_11 
REMARK    4  A    between atoms: C_10  and  C_14 
REMARK    5  A    between atoms: C_11  and  C_12 
REMARK    6  A    between atoms: C_12  and  O_13 
ROOT
HETATM    1  N   UNL     1     -42.205 -52.184  11.971  1.00  0.00    -0.289 N 
HETATM    2  C   UNL     1     -42.256 -50.846  12.263  1.00  0.00     0.322 C 
HETATM    3  O   UNL     1     -42.879 -50.320  13.178  1.00  0.00    -0.247 OA
HETATM    4  N   UNL     1     -41.487 -50.099  11.394  1.00  0.00    -0.338 N 
HETATM    5  H   UNL     1     -41.819 -52.508  11.103  1.00  0.00     0.172 HD
HETATM    6  H   UNL     1     -41.067 -50.541  10.593  1.00  0.00     0.164 HD
ENDROOT
BRANCH   1   7
HETATM    7  C   UNL     1     -42.814 -53.116  12.765  1.00  0.00     0.152 A 
HETATM    8  S   UNL     1     -41.806 -53.790  13.967  1.00  0.00    -0.064 SA
HETATM    9  C   UNL     1     -43.113 -54.779  14.479  1.00  0.00     0.077 A 
HETATM   10  C   UNL     1     -44.241 -54.496  13.731  1.00  0.00     0.014 A 
HETATM   11  C   UNL     1     -45.592 -55.090  13.880  1.00  0.00     0.068 C 
HETATM   12  N   UNL     1     -44.049 -53.545  12.742  1.00  0.00    -0.340 N 
ATOM     13  HN  UNL     1     -44.767 -53.226  12.091  1.00  0.00     0.167 HD
ENDBRANCH   1   7
BRANCH   4  14
HETATM   14  C   UNL     1     -41.419 -48.646  11.487  1.00  0.00     0.092 C 
BRANCH  14  15
HETATM   15  C   UNL     1     -39.970 -48.160  11.601  1.00  0.00     0.051 C 
BRANCH  15  16
HETATM   16  C   UNL     1     -38.993 -49.274  11.955  1.00  0.00     0.166 C 
BRANCH  16  17
HETATM   17  O   UNL     1     -38.652 -49.993  10.772  1.00  0.00    -0.401 OA
HETATM   18  H   UNL     1     -38.321 -50.865  11.045  1.00  0.00     0.209 HD
ENDBRANCH  16  17
ENDBRANCH  15  16
ENDBRANCH  14  15
BRANCH  14  19
HETATM   19  C   UNL     1     -42.185 -48.088  10.308  1.00  0.00     0.008 A 
HETATM   20  C   UNL     1     -42.424 -46.604  10.134  1.00  0.00     0.007 A 
HETATM   21  C   UNL     1     -43.586 -47.522  10.392  1.00  0.00     0.007 A 
ENDBRANCH  14  19
ENDBRANCH   4  14
TORSDOF 6
ENDMDL
MODEL 9
REMARK VINA RESULT:      -5.0      2.636      6.226
REMARK  6 active torsions:
REMARK  status: ('A' for Active; 'I' for Inactive)
REMARK    1  A    between atoms: C_5  and  N_6 
REMARK       I    between atoms: N_6  and  C_7 
REMARK       I    between atoms: C_7  and  N_9 
REMARK    2  A    between atoms: N_9  and  C_10 
REMARK    3  A    between atoms: C_10  and  C_11 
REMARK    4  A    between atoms: C_10  and  C_14 
REMARK    5  A    between atoms: C_11  and  C_12 
REMARK    6  A    between atoms: C_12  and  O_13 
ROOT
HETATM    1  N   UNL     1     -42.292 -52.487  11.815  1.00  0.00    -0.289 N 
HETATM    2  C   UNL     1     -41.445 -51.464  12.156  1.00  0.00     0.322 C 
HETATM    3  O   UNL     1     -41.161 -51.096  13.289  1.00  0.00    -0.247 OA
HETATM    4  N   UNL     1     -40.897 -50.859  11.043  1.00  0.00    -0.338 N 
HETATM    5  H   UNL     1     -42.606 -52.605  10.869  1.00  0.00     0.172 HD
HETATM    6  H   UNL     1     -41.222 -51.112  10.126  1.00  0.00     0.164 HD
ENDROOT
BRANCH   1   7
HETATM    7  C   UNL     1     -42.869 -53.287  12.764  1.00  0.00     0.152 A 
HETATM    8  S   UNL     1     -44.569 -53.399  12.656  1.00  0.00    -0.064 SA
HETATM    9  C   UNL     1     -44.568 -54.427  14.030  1.00  0.00     0.077 A 
HETATM   10  C   UNL     1     -43.270 -54.653  14.450  1.00  0.00     0.014 A 
HETATM   11  C   UNL     1     -42.824 -55.517  15.570  1.00  0.00     0.068 C 
HETATM   12  N   UNL     1     -42.306 -53.981  13.718  1.00  0.00    -0.340 N 
ATOM     13  HN  UNL     1     -41.302 -54.022  13.896  1.00  0.00     0.167 HD
ENDBRANCH   1   7
BRANCH   4  14
HETATM   14  C   UNL     1     -39.995 -49.719  11.158  1.00  0.00     0.092 C 
BRANCH  14  15
HETATM   15  C   UNL     1     -40.704 -48.506  11.771  1.00  0.00     0.051 C 
BRANCH  15  16
HETATM   16  C   UNL     1     -41.485 -47.692  10.746  1.00  0.00     0.166 C 
BRANCH  16  17
HETATM   17  O   UNL     1     -42.588 -48.463  10.277  1.00  0.00    -0.401 OA
HETATM   18  H   UNL     1     -42.444 -48.634   9.331  1.00  0.00     0.209 HD
ENDBRANCH  16  17
ENDBRANCH  15  16
ENDBRANCH  14  15
BRANCH  14  19
HETATM   19  C   UNL     1     -38.774 -50.191  11.916  1.00  0.00     0.008 A 
HETATM   20  C   UNL     1     -37.849 -49.229  12.628  1.00  0.00     0.007 A 
HETATM   21  C   UNL     1     -37.350 -50.003  11.440  1.00  0.00     0.007 A 
ENDBRANCH  14  19
ENDBRANCH   4  14
TORSDOF 6
ENDMDL
