MODEL 1
REMARK VINA RESULT:      -4.9      0.000      0.000
REMARK  3 active torsions:
REMARK  status: ('A' for Active; 'I' for Inactive)
REMARK    1  A    between atoms: O_1  and  C_2 
REMARK    2  A    between atoms: C_2  and  C_4 
REMARK    3  A    between atoms: C_4  and  N_5 
ROOT
HETATM    1  N   UNL     1     -41.234 -53.802  14.143  1.00  0.00    -0.300 N 
HETATM    2  C   UNL     1     -42.254 -54.405  14.852  1.00  0.00     0.102 C 
HETATM    3  C   UNL     1     -43.473 -54.555  14.332  1.00  0.00     0.092 C 
HETATM    4  C   UNL     1     -43.736 -54.048  12.975  1.00  0.00     0.250 C 
HETATM    5  O   UNL     1     -44.821 -54.221  12.435  1.00  0.00    -0.268 OA
HETATM    6  N   UNL     1     -42.696 -53.404  12.369  1.00  0.00    -0.275 N 
HETATM    7  C   UNL     1     -41.420 -53.350  12.848  1.00  0.00     0.329 C 
HETATM    8  O   UNL     1     -40.475 -52.995  12.144  1.00  0.00    -0.246 OA
HETATM    9  H   UNL     1     -42.846 -53.108  11.416  1.00  0.00     0.173 HD
ENDROOT
BRANCH   1  10
HETATM   10  C   UNL     1     -39.899 -53.705  14.737  1.00  0.00     0.242 C 
BRANCH  10  11
HETATM   11  C   UNL     1     -39.125 -55.008  14.596  1.00  0.00     0.158 C 
HETATM   12  O   UNL     1     -38.857 -55.736  15.542  1.00  0.00    -0.649 OA
BRANCH  11  13
HETATM   13  O   UNL     1     -38.693 -55.268  13.339  1.00  0.00    -0.775 OA
HETATM   14  H   UNL     1     -37.745 -55.534  13.295  1.00  0.00     0.167 HD
ENDBRANCH  11  13
ENDBRANCH  10  11
ENDBRANCH   1  10
TORSDOF 3
ENDMDL
MODEL 2
REMARK VINA RESULT:      -4.8      2.506      4.890
REMARK  3 active torsions:
REMARK  status: ('A' for Active; 'I' for Inactive)
REMARK    1  A    between atoms: O_1  and  C_2 
REMARK    2  A    between atoms: C_2  and  C_4 
REMARK    3  A    between atoms: C_4  and  N_5 
ROOT
HETATM    1  N   UNL     1     -44.271 -54.377  13.428  1.00  0.00    -0.300 N 
HETATM    2  C   UNL     1     -43.070 -54.587  14.075  1.00  0.00     0.102 C 
HETATM    3  C   UNL     1     -41.974 -53.897  13.756  1.00  0.00     0.092 C 
HETATM    4  C   UNL     1     -42.050 -52.900  12.674  1.00  0.00     0.250 C 
HETATM    5  O   UNL     1     -41.086 -52.200  12.392  1.00  0.00    -0.268 OA
HETATM    6  N   UNL     1     -43.254 -52.802  12.039  1.00  0.00    -0.275 N 
HETATM    7  C   UNL     1     -44.403 -53.420  12.436  1.00  0.00     0.329 C 
HETATM    8  O   UNL     1     -45.505 -53.092  11.996  1.00  0.00    -0.246 OA
HETATM    9  H   UNL     1     -43.335 -52.080  11.339  1.00  0.00     0.173 HD
ENDROOT
BRANCH   1  10
HETATM   10  C   UNL     1     -45.459 -55.124  13.847  1.00  0.00     0.242 C 
BRANCH  10  11
HETATM   11  C   UNL     1     -46.237 -54.382  14.925  1.00  0.00     0.158 C 
HETATM   12  O   UNL     1     -46.013 -54.508  16.122  1.00  0.00    -0.649 OA
BRANCH  11  13
HETATM   13  O   UNL     1     -47.251 -53.617  14.456  1.00  0.00    -0.775 OA
HETATM   14  H   UNL     1     -46.970 -52.710  14.188  1.00  0.00     0.167 HD
ENDBRANCH  11  13
ENDBRANCH  10  11
ENDBRANCH   1  10
TORSDOF 3
ENDMDL
MODEL 3
REMARK VINA RESULT:      -4.6      8.200      9.698
REMARK  3 active torsions:
REMARK  status: ('A' for Active; 'I' for Inactive)
REMARK    1  A    between atoms: O_1  and  C_2 
REMARK    2  A    between atoms: C_2  and  C_4 
REMARK    3  A    between atoms: C_4  and  N_5 
ROOT
HETATM    1  N   UNL     1     -43.761 -46.968   9.797  1.00  0.00    -0.300 N 
HETATM    2  C   UNL     1     -43.524 -47.747  10.911  1.00  0.00     0.102 C 
HETATM    3  C   UNL     1     -42.950 -47.247  12.006  1.00  0.00     0.092 C 
HETATM    4  C   UNL     1     -42.547 -45.830  12.014  1.00  0.00     0.250 C 
HETATM    5  O   UNL     1     -42.075 -45.313  13.019  1.00  0.00    -0.268 OA
HETATM    6  N   UNL     1     -42.753 -45.147  10.851  1.00  0.00    -0.275 N 
HETATM    7  C   UNL     1     -43.442 -45.621   9.773  1.00  0.00     0.329 C 
HETATM    8  O   UNL     1     -43.826 -44.880   8.868  1.00  0.00    -0.246 OA
HETATM    9  H   UNL     1     -42.538 -44.161  10.865  1.00  0.00     0.173 HD
ENDROOT
BRANCH   1  10
HETATM   10  C   UNL     1     -44.440 -47.550   8.637  1.00  0.00     0.242 C 
BRANCH  10  11
HETATM   11  C   UNL     1     -45.952 -47.557   8.815  1.00  0.00     0.158 C 
HETATM   12  O   UNL     1     -46.580 -48.539   9.184  1.00  0.00    -0.649 OA
BRANCH  11  13
HETATM   13  O   UNL     1     -46.561 -46.398   8.464  1.00  0.00    -0.775 OA
HETATM   14  H   UNL     1     -47.411 -46.530   7.983  1.00  0.00     0.167 HD
ENDBRANCH  11  13
ENDBRANCH  10  11
ENDBRANCH   1  10
TORSDOF 3
ENDMDL
MODEL 4
REMARK VINA RESULT:      -4.4      6.838      8.769
REMARK  3 active torsions:
REMARK  status: ('A' for Active; 'I' for Inactive)
REMARK    1  A    between atoms: O_1  and  C_2 
REMARK    2  A    between atoms: C_2  and  C_4 
REMARK    3  A    between atoms: C_4  and  N_5 
ROOT
HETATM    1  N   UNL     1     -42.160 -47.242  10.514  1.00  0.00    -0.300 N 
HETATM    2  C   UNL     1     -42.142 -48.489  11.103  1.00  0.00     0.102 C 
HETATM    3  C   UNL     1     -41.042 -48.974  11.683  1.00  0.00     0.092 C 
HETATM    4  C   UNL     1     -39.815 -48.158  11.674  1.00  0.00     0.250 C 
HETATM    5  O   UNL     1     -38.802 -48.535  12.249  1.00  0.00    -0.268 OA
HETATM    6  N   UNL     1     -39.897 -46.968  11.012  1.00  0.00    -0.275 N 
HETATM    7  C   UNL     1     -41.046 -46.420  10.521  1.00  0.00     0.329 C 
HETATM    8  O   UNL     1     -41.109 -45.239  10.177  1.00  0.00    -0.246 OA
HETATM    9  H   UNL     1     -39.083 -46.374  11.053  1.00  0.00     0.173 HD
ENDROOT
BRANCH   1  10
HETATM   10  C   UNL     1     -43.405 -46.733   9.935  1.00  0.00     0.242 C 
BRANCH  10  11
HETATM   11  C   UNL     1     -43.474 -46.990   8.436  1.00  0.00     0.158 C 
HETATM   12  O   UNL     1     -44.086 -47.928   7.943  1.00  0.00    -0.649 OA
BRANCH  11  13
HETATM   13  O   UNL     1     -42.742 -46.131   7.687  1.00  0.00    -0.775 OA
HETATM   14  H   UNL     1     -43.258 -45.697   6.967  1.00  0.00     0.167 HD
ENDBRANCH  11  13
ENDBRANCH  10  11
ENDBRANCH   1  10
TORSDOF 3
ENDMDL
MODEL 5
REMARK VINA RESULT:      -4.4      1.923      2.796
REMARK  3 active torsions:
REMARK  status: ('A' for Active; 'I' for Inactive)
REMARK    1  A    between atoms: O_1  and  C_2 
REMARK    2  A    between atoms: C_2  and  C_4 
REMARK    3  A    between atoms: C_4  and  N_5 
ROOT
HETATM    1  N   UNL     1     -42.790 -53.221  13.522  1.00  0.00    -0.300 N 
HETATM    2  C   UNL     1     -43.859 -53.107  12.657  1.00  0.00     0.102 C 
HETATM    3  C   UNL     1     -44.938 -53.883  12.772  1.00  0.00     0.092 C 
HETATM    4  C   UNL     1     -44.975 -54.897  13.840  1.00  0.00     0.250 C 
HETATM    5  O   UNL     1     -45.970 -55.587  14.021  1.00  0.00    -0.268 OA
HETATM    6  N   UNL     1     -43.852 -54.992  14.609  1.00  0.00    -0.275 N 
HETATM    7  C   UNL     1     -42.798 -54.127  14.569  1.00  0.00     0.329 C 
HETATM    8  O   UNL     1     -41.944 -54.100  15.456  1.00  0.00    -0.246 OA
HETATM    9  H   UNL     1     -43.890 -55.639  15.382  1.00  0.00     0.173 HD
ENDROOT
BRANCH   1  10
HETATM   10  C   UNL     1     -41.650 -52.312  13.387  1.00  0.00     0.242 C 
BRANCH  10  11
HETATM   11  C   UNL     1     -40.461 -52.997  12.727  1.00  0.00     0.158 C 
HETATM   12  O   UNL     1     -39.415 -53.240  13.314  1.00  0.00    -0.649 OA
BRANCH  11  13
HETATM   13  O   UNL     1     -40.627 -53.257  11.408  1.00  0.00    -0.775 OA
HETATM   14  H   UNL     1     -40.836 -54.201  11.216  1.00  0.00     0.167 HD
ENDBRANCH  11  13
ENDBRANCH  10  11
ENDBRANCH   1  10
TORSDOF 3
ENDMDL
MODEL 6
REMARK VINA RESULT:      -4.4      3.296      3.990
REMARK  3 active torsions:
REMARK  status: ('A' for Active; 'I' for Inactive)
REMARK    1  A    between atoms: O_1  and  C_2 
REMARK    2  A    between atoms: C_2  and  C_4 
REMARK    3  A    between atoms: C_4  and  N_5 
ROOT
HETATM    1  N   UNL     1     -39.810 -50.897  12.661  1.00  0.00    -0.300 N 
HETATM    2  C   UNL     1     -39.996 -52.062  13.377  1.00  0.00     0.102 C 
HETATM    3  C   UNL     1     -41.125 -52.766  13.287  1.00  0.00     0.092 C 
HETATM    4  C   UNL     1     -42.203 -52.273  12.412  1.00  0.00     0.250 C 
HETATM    5  O   UNL     1     -43.230 -52.919  12.251  1.00  0.00    -0.268 OA
HETATM    6  N   UNL     1     -41.968 -51.080  11.793  1.00  0.00    -0.275 N 
HETATM    7  C   UNL     1     -40.775 -50.418  11.791  1.00  0.00     0.329 C 
HETATM    8  O   UNL     1     -40.542 -49.498  11.007  1.00  0.00    -0.246 OA
HETATM    9  H   UNL     1     -42.673 -50.764  11.144  1.00  0.00     0.173 HD
ENDROOT
BRANCH   1  10
HETATM   10  C   UNL     1     -38.533 -50.186  12.754  1.00  0.00     0.242 C 
BRANCH  10  11
HETATM   11  C   UNL     1     -37.505 -50.747  11.782  1.00  0.00     0.158 C 
HETATM   12  O   UNL     1     -36.723 -51.642  12.073  1.00  0.00    -0.649 OA
BRANCH  11  13
HETATM   13  O   UNL     1     -37.476 -50.125  10.578  1.00  0.00    -0.775 OA
HETATM   14  H   UNL     1     -37.635 -49.153  10.633  1.00  0.00     0.167 HD
ENDBRANCH  11  13
ENDBRANCH  10  11
ENDBRANCH   1  10
TORSDOF 3
ENDMDL
MODEL 7
REMARK VINA RESULT:      -4.3      6.769      7.953
REMARK  3 active torsions:
REMARK  status: ('A' for Active; 'I' for Inactive)
REMARK    1  A    between atoms: O_1  and  C_2 
REMARK    2  A    between atoms: C_2  and  C_4 
REMARK    3  A    between atoms: C_4  and  N_5 
ROOT
HETATM    1  N   UNL     1     -42.526 -47.718  10.914  1.00  0.00    -0.300 N 
HETATM    2  C   UNL     1     -42.848 -47.760   9.573  1.00  0.00     0.102 C 
HETATM    3  C   UNL     1     -43.306 -46.685   8.929  1.00  0.00     0.092 C 
HETATM    4  C   UNL     1     -43.486 -45.429   9.679  1.00  0.00     0.250 C 
HETATM    5  O   UNL     1     -43.843 -44.403   9.115  1.00  0.00    -0.268 OA
HETATM    6  N   UNL     1     -43.211 -45.490  11.014  1.00  0.00    -0.275 N 
HETATM    7  C   UNL     1     -42.635 -46.551  11.650  1.00  0.00     0.329 C 
HETATM    8  O   UNL     1     -42.168 -46.455  12.785  1.00  0.00    -0.246 OA
HETATM    9  H   UNL     1     -43.271 -44.622  11.525  1.00  0.00     0.173 HD
ENDROOT
BRANCH   1  10
HETATM   10  C   UNL     1     -41.980 -48.911  11.565  1.00  0.00     0.242 C 
BRANCH  10  11
HETATM   11  C   UNL     1     -40.516 -49.126  11.205  1.00  0.00     0.158 C 
HETATM   12  O   UNL     1     -39.604 -48.462  11.678  1.00  0.00    -0.649 OA
BRANCH  11  13
HETATM   13  O   UNL     1     -40.306 -50.074  10.261  1.00  0.00    -0.775 OA
HETATM   14  H   UNL     1     -39.971 -50.927  10.626  1.00  0.00     0.167 HD
ENDBRANCH  11  13
ENDBRANCH  10  11
ENDBRANCH   1  10
TORSDOF 3
ENDMDL
MODEL 8
REMARK VINA RESULT:      -4.3      3.227      4.751
REMARK  3 active torsions:
REMARK  status: ('A' for Active; 'I' for Inactive)
REMARK    1  A    between atoms: O_1  and  C_2 
REMARK    2  A    between atoms: C_2  and  C_4 
REMARK    3  A    between atoms: C_4  and  N_5 
ROOT
HETATM    1  N   UNL     1     -45.198 -53.221  13.357  1.00  0.00    -0.300 N 
HETATM    2  C   UNL     1     -45.575 -51.894  13.384  1.00  0.00     0.102 C 
HETATM    3  C   UNL     1     -46.458 -51.435  14.272  1.00  0.00     0.092 C 
HETATM    4  C   UNL     1     -47.056 -52.377  15.234  1.00  0.00     0.250 C 
HETATM    5  O   UNL     1     -47.822 -51.989  16.106  1.00  0.00    -0.268 OA
HETATM    6  N   UNL     1     -46.683 -53.683  15.097  1.00  0.00    -0.275 N 
HETATM    7  C   UNL     1     -45.697 -54.135  14.269  1.00  0.00     0.329 C 
HETATM    8  O   UNL     1     -45.223 -55.266  14.379  1.00  0.00    -0.246 OA
HETATM    9  H   UNL     1     -47.038 -54.326  15.788  1.00  0.00     0.173 HD
ENDROOT
BRANCH   1  10
HETATM   10  C   UNL     1     -44.187 -53.667  12.396  1.00  0.00     0.242 C 
BRANCH  10  11
HETATM   11  C   UNL     1     -42.840 -53.004  12.650  1.00  0.00     0.158 C 
HETATM   12  O   UNL     1     -42.325 -52.933  13.757  1.00  0.00    -0.649 OA
BRANCH  11  13
HETATM   13  O   UNL     1     -42.283 -52.434  11.555  1.00  0.00    -0.775 OA
HETATM   14  H   UNL     1     -42.940 -52.178  10.866  1.00  0.00     0.167 HD
ENDBRANCH  11  13
ENDBRANCH  10  11
ENDBRANCH   1  10
TORSDOF 3
ENDMDL
MODEL 9
REMARK VINA RESULT:      -4.2      1.535      4.321
REMARK  3 active torsions:
REMARK  status: ('A' for Active; 'I' for Inactive)
REMARK    1  A    between atoms: O_1  and  C_2 
REMARK    2  A    between atoms: C_2  and  C_4 
REMARK    3  A    between atoms: C_4  and  N_5 
ROOT
HETATM    1  N   UNL     1     -42.894 -53.731  14.267  1.00  0.00    -0.300 N 
HETATM    2  C   UNL     1     -42.114 -54.339  15.229  1.00  0.00     0.102 C 
HETATM    3  C   UNL     1     -40.807 -54.536  15.050  1.00  0.00     0.092 C 
HETATM    4  C   UNL     1     -40.191 -54.107  13.783  1.00  0.00     0.250 C 
HETATM    5  O   UNL     1     -38.984 -54.210  13.601  1.00  0.00    -0.268 OA
HETATM    6  N   UNL     1     -41.041 -53.577  12.857  1.00  0.00    -0.275 N 
HETATM    7  C   UNL     1     -42.352 -53.269  13.080  1.00  0.00     0.329 C 
HETATM    8  O   UNL     1     -42.994 -52.555  12.309  1.00  0.00    -0.246 OA
HETATM    9  H   UNL     1     -40.621 -53.223  12.011  1.00  0.00     0.173 HD
ENDROOT
BRANCH   1  10
HETATM   10  C   UNL     1     -44.315 -53.491  14.531  1.00  0.00     0.242 C 
BRANCH  10  11
HETATM   11  C   UNL     1     -45.201 -54.447  13.745  1.00  0.00     0.158 C 
HETATM   12  O   UNL     1     -45.347 -55.625  14.042  1.00  0.00    -0.649 OA
BRANCH  11  13
HETATM   13  O   UNL     1     -45.768 -53.904  12.642  1.00  0.00    -0.775 OA
HETATM   14  H   UNL     1     -45.113 -53.597  11.972  1.00  0.00     0.167 HD
ENDBRANCH  11  13
ENDBRANCH  10  11
ENDBRANCH   1  10
TORSDOF 3
ENDMDL
