MODEL 1
REMARK VINA RESULT:      -6.3      0.000      0.000
REMARK  7 active torsions:
REMARK  status: ('A' for Active; 'I' for Inactive)
REMARK    1  A    between atoms: C_2  and  C_3 
REMARK    2  A    between atoms: C_3  and  C_4 
REMARK       I    between atoms: C_4  and  N_6 
REMARK    3  A    between atoms: N_6  and  C_7 
REMARK    4  A    between atoms: C_7  and  C_9 
REMARK    5  A    between atoms: N_18  and  C_19 
REMARK    6  A    between atoms: C_19  and  C_20 
REMARK    7  A    between atoms: C_20  and  O_22 
ROOT
HETATM    1  C   UNL     1     -41.948 -49.749  12.233  1.00  0.00     0.107 A 
HETATM    2  N   UNL     1     -42.830 -50.730  12.152  1.00  0.00    -0.342 N 
ATOM      3  HN  UNL     1     -43.792 -50.668  11.818  1.00  0.00     0.167 HD
HETATM    4  C   UNL     1     -42.185 -51.851  12.610  1.00  0.00     0.060 A 
HETATM    5  C   UNL     1     -42.656 -53.169  12.700  1.00  0.00     0.032 A 
HETATM    6  C   UNL     1     -41.800 -54.157  13.200  1.00  0.00     0.002 A 
HETATM    7  C   UNL     1     -40.511 -53.833  13.622  1.00  0.00     0.002 A 
HETATM    8  C   UNL     1     -40.029 -52.522  13.544  1.00  0.00     0.032 A 
HETATM    9  C   UNL     1     -40.887 -51.552  13.011  1.00  0.00     0.062 A 
HETATM   10  N   UNL     1     -40.743 -50.211  12.727  1.00  0.00    -0.331 N 
ENDROOT
BRANCH   1  11
HETATM   11  C   UNL     1     -42.191 -48.335  11.785  1.00  0.00     0.148 C 
HETATM   12  C   UNL     1     -42.802 -47.485  12.897  1.00  0.00     0.040 C 
BRANCH  11  13
HETATM   13  N   UNL     1     -43.073 -48.398  10.641  1.00  0.00    -0.350 N 
HETATM   14  C   UNL     1     -43.121 -47.403   9.704  1.00  0.00     0.218 C 
HETATM   15  O   UNL     1     -42.383 -46.422   9.730  1.00  0.00    -0.274 OA
HETATM   16  H   UNL     1     -43.654 -49.229  10.562  1.00  0.00     0.163 HD
BRANCH  14  17
HETATM   17  C   UNL     1     -44.172 -47.595   8.631  1.00  0.00     0.102 C 
BRANCH  17  18
HETATM   18  C   UNL     1     -45.573 -47.233   9.120  1.00  0.00     0.005 C 
HETATM   19  C   UNL     1     -46.589 -48.339   8.862  1.00  0.00     0.005 C 
ENDBRANCH  17  18
ENDBRANCH  14  17
ENDBRANCH  11  13
ENDBRANCH   1  11
BRANCH  10  20
HETATM   20  C   UNL     1     -39.527 -49.441  12.895  1.00  0.00     0.162 C 
BRANCH  20  21
HETATM   21  C   UNL     1     -38.514 -49.560  11.747  1.00  0.00     0.132 C 
HETATM   22  C   UNL     1     -37.395 -50.567  11.985  1.00  0.00     0.041 C 
BRANCH  21  23
HETATM   23  O   UNL     1     -39.215 -49.930  10.552  1.00  0.00    -0.394 OA
HETATM   24  H   UNL     1     -38.925 -49.346   9.829  1.00  0.00     0.210 HD
ENDBRANCH  21  23
ENDBRANCH  20  21
ENDBRANCH  10  20
TORSDOF 7
ENDMDL
MODEL 2
REMARK VINA RESULT:      -6.0      1.747      2.234
REMARK  7 active torsions:
REMARK  status: ('A' for Active; 'I' for Inactive)
REMARK    1  A    between atoms: C_2  and  C_3 
REMARK    2  A    between atoms: C_3  and  C_4 
REMARK       I    between atoms: C_4  and  N_6 
REMARK    3  A    between atoms: N_6  and  C_7 
REMARK    4  A    between atoms: C_7  and  C_9 
REMARK    5  A    between atoms: N_18  and  C_19 
REMARK    6  A    between atoms: C_19  and  C_20 
REMARK    7  A    between atoms: C_20  and  O_22 
ROOT
HETATM    1  C   UNL     1     -43.245 -50.384  12.908  1.00  0.00     0.107 A 
HETATM    2  N   UNL     1     -44.494 -50.785  12.742  1.00  0.00    -0.342 N 
ATOM      3  HN  UNL     1     -45.276 -50.233  12.388  1.00  0.00     0.167 HD
HETATM    4  C   UNL     1     -44.522 -52.096  13.144  1.00  0.00     0.060 A 
HETATM    5  C   UNL     1     -45.594 -53.001  13.138  1.00  0.00     0.032 A 
HETATM    6  C   UNL     1     -45.376 -54.306  13.597  1.00  0.00     0.002 A 
HETATM    7  C   UNL     1     -44.123 -54.692  14.072  1.00  0.00     0.002 A 
HETATM    8  C   UNL     1     -43.046 -53.798  14.090  1.00  0.00     0.032 A 
HETATM    9  C   UNL     1     -43.273 -52.507  13.598  1.00  0.00     0.062 A 
HETATM   10  N   UNL     1     -42.462 -51.410  13.403  1.00  0.00    -0.331 N 
ENDROOT
BRANCH   1  11
HETATM   11  C   UNL     1     -42.723 -49.023  12.544  1.00  0.00     0.148 C 
HETATM   12  C   UNL     1     -42.902 -48.024  13.686  1.00  0.00     0.040 C 
BRANCH  11  13
HETATM   13  N   UNL     1     -43.443 -48.593  11.366  1.00  0.00    -0.350 N 
HETATM   14  C   UNL     1     -42.827 -47.935  10.337  1.00  0.00     0.218 C 
HETATM   15  O   UNL     1     -41.619 -47.716  10.310  1.00  0.00    -0.274 OA
HETATM   16  H   UNL     1     -44.435 -48.815  11.335  1.00  0.00     0.163 HD
BRANCH  14  17
HETATM   17  C   UNL     1     -43.756 -47.478   9.233  1.00  0.00     0.102 C 
BRANCH  17  18
HETATM   18  C   UNL     1     -45.218 -47.466   9.672  1.00  0.00     0.005 C 
HETATM   19  C   UNL     1     -46.141 -48.140   8.664  1.00  0.00     0.005 C 
ENDBRANCH  17  18
ENDBRANCH  14  17
ENDBRANCH  11  13
ENDBRANCH   1  11
BRANCH  10  20
HETATM   20  C   UNL     1     -41.035 -51.364  13.651  1.00  0.00     0.162 C 
BRANCH  20  21
HETATM   21  C   UNL     1     -40.150 -51.478  12.401  1.00  0.00     0.132 C 
HETATM   22  C   UNL     1     -38.720 -50.985  12.585  1.00  0.00     0.041 C 
BRANCH  21  23
HETATM   23  O   UNL     1     -40.111 -52.852  11.991  1.00  0.00    -0.394 OA
HETATM   24  H   UNL     1     -40.218 -53.414  12.779  1.00  0.00     0.210 HD
ENDBRANCH  21  23
ENDBRANCH  20  21
ENDBRANCH  10  20
TORSDOF 7
ENDMDL
MODEL 3
REMARK VINA RESULT:      -6.0      2.460      5.145
REMARK  7 active torsions:
REMARK  status: ('A' for Active; 'I' for Inactive)
REMARK    1  A    between atoms: C_2  and  C_3 
REMARK    2  A    between atoms: C_3  and  C_4 
REMARK       I    between atoms: C_4  and  N_6 
REMARK    3  A    between atoms: N_6  and  C_7 
REMARK    4  A    between atoms: C_7  and  C_9 
REMARK    5  A    between atoms: N_18  and  C_19 
REMARK    6  A    between atoms: C_19  and  C_20 
REMARK    7  A    between atoms: C_20  and  O_22 
ROOT
HETATM    1  C   UNL     1     -41.754 -49.877  12.006  1.00  0.00     0.107 A 
HETATM    2  N   UNL     1     -42.657 -49.205  11.313  1.00  0.00    -0.342 N 
ATOM      3  HN  UNL     1     -43.588 -49.523  11.042  1.00  0.00     0.167 HD
HETATM    4  C   UNL     1     -42.085 -47.990  11.034  1.00  0.00     0.060 A 
HETATM    5  C   UNL     1     -42.629 -46.890  10.355  1.00  0.00     0.032 A 
HETATM    6  C   UNL     1     -41.846 -45.741  10.197  1.00  0.00     0.002 A 
HETATM    7  C   UNL     1     -40.540 -45.699  10.686  1.00  0.00     0.002 A 
HETATM    8  C   UNL     1     -39.982 -46.790  11.360  1.00  0.00     0.032 A 
HETATM    9  C   UNL     1     -40.790 -47.919  11.538  1.00  0.00     0.062 A 
HETATM   10  N   UNL     1     -40.612 -49.121  12.188  1.00  0.00    -0.331 N 
ENDROOT
BRANCH   1  11
HETATM   11  C   UNL     1     -41.960 -51.250  12.583  1.00  0.00     0.148 C 
HETATM   12  C   UNL     1     -41.117 -52.299  11.862  1.00  0.00     0.040 C 
BRANCH  11  13
HETATM   13  N   UNL     1     -43.369 -51.552  12.467  1.00  0.00    -0.350 N 
HETATM   14  C   UNL     1     -44.003 -52.404  13.329  1.00  0.00     0.218 C 
HETATM   15  O   UNL     1     -43.444 -52.923  14.292  1.00  0.00    -0.274 OA
HETATM   16  H   UNL     1     -43.871 -51.090  11.714  1.00  0.00     0.163 HD
BRANCH  14  17
HETATM   17  C   UNL     1     -45.454 -52.676  12.996  1.00  0.00     0.102 C 
BRANCH  17  18
HETATM   18  C   UNL     1     -46.355 -51.483  13.306  1.00  0.00     0.005 C 
HETATM   19  C   UNL     1     -46.796 -51.441  14.764  1.00  0.00     0.005 C 
ENDBRANCH  17  18
ENDBRANCH  14  17
ENDBRANCH  11  13
ENDBRANCH   1  11
BRANCH  10  20
HETATM   20  C   UNL     1     -39.438 -49.500  12.949  1.00  0.00     0.162 C 
BRANCH  20  21
HETATM   21  C   UNL     1     -38.187 -49.805  12.113  1.00  0.00     0.132 C 
HETATM   22  C   UNL     1     -37.325 -50.943  12.645  1.00  0.00     0.041 C 
BRANCH  21  23
HETATM   23  O   UNL     1     -38.596 -50.127  10.776  1.00  0.00    -0.394 OA
HETATM   24  H   UNL     1     -39.518 -50.441  10.801  1.00  0.00     0.210 HD
ENDBRANCH  21  23
ENDBRANCH  20  21
ENDBRANCH  10  20
TORSDOF 7
ENDMDL
MODEL 4
REMARK VINA RESULT:      -5.6      3.464      5.913
REMARK  7 active torsions:
REMARK  status: ('A' for Active; 'I' for Inactive)
REMARK    1  A    between atoms: C_2  and  C_3 
REMARK    2  A    between atoms: C_3  and  C_4 
REMARK       I    between atoms: C_4  and  N_6 
REMARK    3  A    between atoms: N_6  and  C_7 
REMARK    4  A    between atoms: C_7  and  C_9 
REMARK    5  A    between atoms: N_18  and  C_19 
REMARK    6  A    between atoms: C_19  and  C_20 
REMARK    7  A    between atoms: C_20  and  O_22 
ROOT
HETATM    1  C   UNL     1     -40.975 -53.856  13.836  1.00  0.00     0.107 A 
HETATM    2  N   UNL     1     -41.729 -54.530  14.687  1.00  0.00    -0.342 N 
ATOM      3  HN  UNL     1     -41.416 -55.067  15.496  1.00  0.00     0.167 HD
HETATM    4  C   UNL     1     -43.020 -54.360  14.257  1.00  0.00     0.060 A 
HETATM    5  C   UNL     1     -44.212 -54.836  14.823  1.00  0.00     0.032 A 
HETATM    6  C   UNL     1     -45.426 -54.523  14.200  1.00  0.00     0.002 A 
HETATM    7  C   UNL     1     -45.448 -53.772  13.024  1.00  0.00     0.002 A 
HETATM    8  C   UNL     1     -44.267 -53.296  12.444  1.00  0.00     0.032 A 
HETATM    9  C   UNL     1     -43.065 -53.591  13.099  1.00  0.00     0.062 A 
HETATM   10  N   UNL     1     -41.750 -53.247  12.868  1.00  0.00    -0.331 N 
ENDROOT
BRANCH   1  11
HETATM   11  C   UNL     1     -39.483 -53.707  13.941  1.00  0.00     0.148 C 
HETATM   12  C   UNL     1     -38.851 -54.866  14.709  1.00  0.00     0.040 C 
BRANCH  11  13
HETATM   13  N   UNL     1     -39.227 -52.448  14.604  1.00  0.00    -0.350 N 
HETATM   14  C   UNL     1     -38.345 -51.529  14.105  1.00  0.00     0.218 C 
HETATM   15  O   UNL     1     -37.758 -51.675  13.037  1.00  0.00    -0.274 OA
HETATM   16  H   UNL     1     -39.746 -52.274  15.461  1.00  0.00     0.163 HD
BRANCH  14  17
HETATM   17  C   UNL     1     -38.134 -50.314  14.983  1.00  0.00     0.102 C 
BRANCH  17  18
HETATM   18  C   UNL     1     -37.549 -49.134  14.211  1.00  0.00     0.005 C 
HETATM   19  C   UNL     1     -38.566 -48.024  13.973  1.00  0.00     0.005 C 
ENDBRANCH  17  18
ENDBRANCH  14  17
ENDBRANCH  11  13
ENDBRANCH   1  11
BRANCH  10  20
HETATM   20  C   UNL     1     -41.282 -52.375  11.809  1.00  0.00     0.162 C 
BRANCH  20  21
HETATM   21  C   UNL     1     -41.304 -50.875  12.139  1.00  0.00     0.132 C 
HETATM   22  C   UNL     1     -40.313 -50.033  11.344  1.00  0.00     0.041 C 
BRANCH  21  23
HETATM   23  O   UNL     1     -42.626 -50.373  11.902  1.00  0.00    -0.394 OA
HETATM   24  H   UNL     1     -42.642 -49.424  12.124  1.00  0.00     0.210 HD
ENDBRANCH  21  23
ENDBRANCH  20  21
ENDBRANCH  10  20
TORSDOF 7
ENDMDL
MODEL 5
REMARK VINA RESULT:      -5.5      2.710      4.223
REMARK  7 active torsions:
REMARK  status: ('A' for Active; 'I' for Inactive)
REMARK    1  A    between atoms: C_2  and  C_3 
REMARK    2  A    between atoms: C_3  and  C_4 
REMARK       I    between atoms: C_4  and  N_6 
REMARK    3  A    between atoms: N_6  and  C_7 
REMARK    4  A    between atoms: C_7  and  C_9 
REMARK    5  A    between atoms: N_18  and  C_19 
REMARK    6  A    between atoms: C_19  and  C_20 
REMARK    7  A    between atoms: C_20  and  O_22 
ROOT
HETATM    1  C   UNL     1     -42.945 -50.522  13.861  1.00  0.00     0.107 A 
HETATM    2  N   UNL     1     -43.883 -50.151  14.716  1.00  0.00    -0.342 N 
ATOM      3  HN  UNL     1     -43.890 -49.312  15.297  1.00  0.00     0.167 HD
HETATM    4  C   UNL     1     -44.846 -51.126  14.660  1.00  0.00     0.060 A 
HETATM    5  C   UNL     1     -46.070 -51.201  15.340  1.00  0.00     0.032 A 
HETATM    6  C   UNL     1     -46.901 -52.305  15.113  1.00  0.00     0.002 A 
HETATM    7  C   UNL     1     -46.508 -53.322  14.242  1.00  0.00     0.002 A 
HETATM    8  C   UNL     1     -45.287 -53.263  13.561  1.00  0.00     0.032 A 
HETATM    9  C   UNL     1     -44.484 -52.137  13.776  1.00  0.00     0.062 A 
HETATM   10  N   UNL     1     -43.284 -51.713  13.247  1.00  0.00    -0.331 N 
ENDROOT
BRANCH   1  11
HETATM   11  C   UNL     1     -41.710 -49.728  13.541  1.00  0.00     0.148 C 
HETATM   12  C   UNL     1     -41.222 -48.929  14.748  1.00  0.00     0.040 C 
BRANCH  11  13
HETATM   13  N   UNL     1     -42.043 -48.849  12.442  1.00  0.00    -0.350 N 
HETATM   14  C   UNL     1     -41.409 -48.924  11.233  1.00  0.00     0.218 C 
HETATM   15  O   UNL     1     -40.561 -49.774  10.972  1.00  0.00    -0.274 OA
HETATM   16  H   UNL     1     -42.785 -48.174  12.610  1.00  0.00     0.163 HD
BRANCH  14  17
HETATM   17  C   UNL     1     -41.821 -47.863  10.235  1.00  0.00     0.102 C 
BRANCH  17  18
HETATM   18  C   UNL     1     -41.581 -46.449  10.760  1.00  0.00     0.005 C 
HETATM   19  C   UNL     1     -40.102 -46.087  10.823  1.00  0.00     0.005 C 
ENDBRANCH  17  18
ENDBRANCH  14  17
ENDBRANCH  11  13
ENDBRANCH   1  11
BRANCH  10  20
HETATM   20  C   UNL     1     -42.534 -52.393  12.211  1.00  0.00     0.162 C 
BRANCH  20  21
HETATM   21  C   UNL     1     -41.240 -53.076  12.680  1.00  0.00     0.132 C 
HETATM   22  C   UNL     1     -41.447 -54.248  13.632  1.00  0.00     0.041 C 
BRANCH  21  23
HETATM   23  O   UNL     1     -40.524 -53.543  11.528  1.00  0.00    -0.394 OA
HETATM   24  H   UNL     1     -39.899 -52.849  11.250  1.00  0.00     0.210 HD
ENDBRANCH  21  23
ENDBRANCH  20  21
ENDBRANCH  10  20
TORSDOF 7
ENDMDL
MODEL 6
REMARK VINA RESULT:      -5.4      2.368      6.259
REMARK  7 active torsions:
REMARK  status: ('A' for Active; 'I' for Inactive)
REMARK    1  A    between atoms: C_2  and  C_3 
REMARK    2  A    between atoms: C_3  and  C_4 
REMARK       I    between atoms: C_4  and  N_6 
REMARK    3  A    between atoms: N_6  and  C_7 
REMARK    4  A    between atoms: C_7  and  C_9 
REMARK    5  A    between atoms: N_18  and  C_19 
REMARK    6  A    between atoms: C_19  and  C_20 
REMARK    7  A    between atoms: C_20  and  O_22 
ROOT
HETATM    1  C   UNL     1     -40.093 -48.918  11.454  1.00  0.00     0.107 A 
HETATM    2  N   UNL     1     -41.026 -49.198  10.559  1.00  0.00    -0.342 N 
ATOM      3  HN  UNL     1     -41.207 -50.101  10.120  1.00  0.00     0.167 HD
HETATM    4  C   UNL     1     -41.699 -48.022  10.342  1.00  0.00     0.060 A 
HETATM    5  C   UNL     1     -42.802 -47.774   9.512  1.00  0.00     0.032 A 
HETATM    6  C   UNL     1     -43.327 -46.478   9.459  1.00  0.00     0.002 A 
HETATM    7  C   UNL     1     -42.750 -45.447  10.201  1.00  0.00     0.002 A 
HETATM    8  C   UNL     1     -41.646 -45.678  11.028  1.00  0.00     0.032 A 
HETATM    9  C   UNL     1     -41.154 -46.987  11.094  1.00  0.00     0.062 A 
HETATM   10  N   UNL     1     -40.154 -47.589  11.827  1.00  0.00    -0.331 N 
ENDROOT
BRANCH   1  11
HETATM   11  C   UNL     1     -39.141 -49.920  12.045  1.00  0.00     0.148 C 
HETATM   12  C   UNL     1     -37.764 -49.847  11.388  1.00  0.00     0.040 C 
BRANCH  11  13
HETATM   13  N   UNL     1     -39.732 -51.227  11.861  1.00  0.00    -0.350 N 
HETATM   14  C   UNL     1     -40.438 -51.851  12.852  1.00  0.00     0.218 C 
HETATM   15  O   UNL     1     -40.674 -51.329  13.938  1.00  0.00    -0.274 OA
HETATM   16  H   UNL     1     -39.603 -51.658  10.949  1.00  0.00     0.163 HD
BRANCH  14  17
HETATM   17  C   UNL     1     -40.899 -53.253  12.513  1.00  0.00     0.102 C 
BRANCH  17  18
HETATM   18  C   UNL     1     -40.775 -54.207  13.699  1.00  0.00     0.005 C 
HETATM   19  C   UNL     1     -39.330 -54.572  14.013  1.00  0.00     0.005 C 
ENDBRANCH  17  18
ENDBRANCH  14  17
ENDBRANCH  11  13
ENDBRANCH   1  11
BRANCH  10  20
HETATM   20  C   UNL     1     -39.335 -46.936  12.828  1.00  0.00     0.162 C 
BRANCH  20  21
HETATM   21  C   UNL     1     -40.028 -46.681  14.175  1.00  0.00     0.132 C 
HETATM   22  C   UNL     1     -40.167 -47.911  15.064  1.00  0.00     0.041 C 
BRANCH  21  23
HETATM   23  O   UNL     1     -39.289 -45.681  14.889  1.00  0.00    -0.394 OA
HETATM   24  H   UNL     1     -39.381 -45.850  15.844  1.00  0.00     0.210 HD
ENDBRANCH  21  23
ENDBRANCH  20  21
ENDBRANCH  10  20
TORSDOF 7
ENDMDL
MODEL 7
REMARK VINA RESULT:      -5.4      3.823      5.795
REMARK  7 active torsions:
REMARK  status: ('A' for Active; 'I' for Inactive)
REMARK    1  A    between atoms: C_2  and  C_3 
REMARK    2  A    between atoms: C_3  and  C_4 
REMARK       I    between atoms: C_4  and  N_6 
REMARK    3  A    between atoms: N_6  and  C_7 
REMARK    4  A    between atoms: C_7  and  C_9 
REMARK    5  A    between atoms: N_18  and  C_19 
REMARK    6  A    between atoms: C_19  and  C_20 
REMARK    7  A    between atoms: C_20  and  O_22 
ROOT
HETATM    1  C   UNL     1     -41.971 -52.526  13.043  1.00  0.00     0.107 A 
HETATM    2  N   UNL     1     -42.044 -51.611  12.090  1.00  0.00    -0.342 N 
ATOM      3  HN  UNL     1     -42.848 -51.400  11.499  1.00  0.00     0.167 HD
HETATM    4  C   UNL     1     -40.814 -51.005  12.061  1.00  0.00     0.060 A 
HETATM    5  C   UNL     1     -40.369 -49.944  11.258  1.00  0.00     0.032 A 
HETATM    6  C   UNL     1     -39.056 -49.485  11.415  1.00  0.00     0.002 A 
HETATM    7  C   UNL     1     -38.199 -50.088  12.336  1.00  0.00     0.002 A 
HETATM    8  C   UNL     1     -38.626 -51.151  13.139  1.00  0.00     0.032 A 
HETATM    9  C   UNL     1     -39.952 -51.575  12.992  1.00  0.00     0.062 A 
HETATM   10  N   UNL     1     -40.723 -52.519  13.635  1.00  0.00    -0.331 N 
ENDROOT
BRANCH   1  11
HETATM   11  C   UNL     1     -43.109 -53.407  13.477  1.00  0.00     0.148 C 
HETATM   12  C   UNL     1     -44.016 -53.778  12.306  1.00  0.00     0.040 C 
BRANCH  11  13
HETATM   13  N   UNL     1     -43.844 -52.683  14.490  1.00  0.00    -0.350 N 
HETATM   14  C   UNL     1     -44.567 -53.322  15.460  1.00  0.00     0.218 C 
HETATM   15  O   UNL     1     -44.596 -54.544  15.579  1.00  0.00    -0.274 OA
HETATM   16  H   UNL     1     -43.789 -51.669  14.452  1.00  0.00     0.163 HD
BRANCH  14  17
HETATM   17  C   UNL     1     -45.349 -52.403  16.374  1.00  0.00     0.102 C 
BRANCH  17  18
HETATM   18  C   UNL     1     -46.414 -51.606  15.623  1.00  0.00     0.005 C 
HETATM   19  C   UNL     1     -47.635 -51.302  16.481  1.00  0.00     0.005 C 
ENDBRANCH  17  18
ENDBRANCH  14  17
ENDBRANCH  11  13
ENDBRANCH   1  11
BRANCH  10  20
HETATM   20  C   UNL     1     -40.295 -53.335  14.754  1.00  0.00     0.162 C 
BRANCH  20  21
HETATM   21  C   UNL     1     -39.032 -54.173  14.506  1.00  0.00     0.132 C 
HETATM   22  C   UNL     1     -38.770 -55.254  15.548  1.00  0.00     0.041 C 
BRANCH  21  23
HETATM   23  O   UNL     1     -39.140 -54.796  13.219  1.00  0.00    -0.394 OA
HETATM   24  H   UNL     1     -38.245 -55.028  12.911  1.00  0.00     0.210 HD
ENDBRANCH  21  23
ENDBRANCH  20  21
ENDBRANCH  10  20
TORSDOF 7
ENDMDL
MODEL 8
REMARK VINA RESULT:      -5.3      3.293      4.427
REMARK  7 active torsions:
REMARK  status: ('A' for Active; 'I' for Inactive)
REMARK    1  A    between atoms: C_2  and  C_3 
REMARK    2  A    between atoms: C_3  and  C_4 
REMARK       I    between atoms: C_4  and  N_6 
REMARK    3  A    between atoms: N_6  and  C_7 
REMARK    4  A    between atoms: C_7  and  C_9 
REMARK    5  A    between atoms: N_18  and  C_19 
REMARK    6  A    between atoms: C_19  and  C_20 
REMARK    7  A    between atoms: C_20  and  O_22 
ROOT
HETATM    1  C   UNL     1     -42.422 -51.452  14.187  1.00  0.00     0.107 A 
HETATM    2  N   UNL     1     -42.416 -52.031  15.376  1.00  0.00    -0.342 N 
ATOM      3  HN  UNL     1     -43.015 -51.811  16.172  1.00  0.00     0.167 HD
HETATM    4  C   UNL     1     -41.436 -52.989  15.319  1.00  0.00     0.060 A 
HETATM    5  C   UNL     1     -41.042 -53.912  16.300  1.00  0.00     0.032 A 
HETATM    6  C   UNL     1     -40.008 -54.809  16.005  1.00  0.00     0.002 A 
HETATM    7  C   UNL     1     -39.367 -54.770  14.767  1.00  0.00     0.002 A 
HETATM    8  C   UNL     1     -39.744 -53.851  13.781  1.00  0.00     0.032 A 
HETATM    9  C   UNL     1     -40.801 -52.984  14.081  1.00  0.00     0.062 A 
HETATM   10  N   UNL     1     -41.472 -52.020  13.360  1.00  0.00    -0.331 N 
ENDROOT
BRANCH   1  11
HETATM   11  C   UNL     1     -43.376 -50.372  13.762  1.00  0.00     0.148 C 
HETATM   12  C   UNL     1     -42.868 -48.984  14.145  1.00  0.00     0.040 C 
BRANCH  11  13
HETATM   13  N   UNL     1     -44.644 -50.651  14.399  1.00  0.00    -0.350 N 
HETATM   14  C   UNL     1     -45.622 -51.382  13.783  1.00  0.00     0.218 C 
HETATM   15  O   UNL     1     -45.476 -51.903  12.681  1.00  0.00    -0.274 OA
HETATM   16  H   UNL     1     -44.770 -50.282  15.338  1.00  0.00     0.163 HD
BRANCH  14  17
HETATM   17  C   UNL     1     -46.916 -51.490  14.562  1.00  0.00     0.102 C 
BRANCH  17  18
HETATM   18  C   UNL     1     -46.688 -51.908  16.013  1.00  0.00     0.005 C 
HETATM   19  C   UNL     1     -47.557 -51.131  16.993  1.00  0.00     0.005 C 
ENDBRANCH  17  18
ENDBRANCH  14  17
ENDBRANCH  11  13
ENDBRANCH   1  11
BRANCH  10  20
HETATM   20  C   UNL     1     -41.231 -51.690  11.969  1.00  0.00     0.162 C 
BRANCH  20  21
HETATM   21  C   UNL     1     -40.426 -50.404  11.732  1.00  0.00     0.132 C 
HETATM   22  C   UNL     1     -38.984 -50.454  12.222  1.00  0.00     0.041 C 
BRANCH  21  23
HETATM   23  O   UNL     1     -40.423 -50.117  10.327  1.00  0.00    -0.394 OA
HETATM   24  H   UNL     1     -39.499 -50.047  10.027  1.00  0.00     0.210 HD
ENDBRANCH  21  23
ENDBRANCH  20  21
ENDBRANCH  10  20
TORSDOF 7
ENDMDL
MODEL 9
REMARK VINA RESULT:      -5.3      4.068      7.467
REMARK  7 active torsions:
REMARK  status: ('A' for Active; 'I' for Inactive)
REMARK    1  A    between atoms: C_2  and  C_3 
REMARK    2  A    between atoms: C_3  and  C_4 
REMARK       I    between atoms: C_4  and  N_6 
REMARK    3  A    between atoms: N_6  and  C_7 
REMARK    4  A    between atoms: C_7  and  C_9 
REMARK    5  A    between atoms: N_18  and  C_19 
REMARK    6  A    between atoms: C_19  and  C_20 
REMARK    7  A    between atoms: C_20  and  O_22 
ROOT
HETATM    1  C   UNL     1     -43.178 -54.004  15.187  1.00  0.00     0.107 A 
HETATM    2  N   UNL     1     -44.060 -53.657  16.109  1.00  0.00    -0.342 N 
ATOM      3  HN  UNL     1     -44.050 -53.911  17.097  1.00  0.00     0.167 HD
HETATM    4  C   UNL     1     -44.992 -52.887  15.462  1.00  0.00     0.060 A 
HETATM    5  C   UNL     1     -46.120 -52.236  15.984  1.00  0.00     0.032 A 
HETATM    6  C   UNL     1     -46.930 -51.492  15.119  1.00  0.00     0.002 A 
HETATM    7  C   UNL     1     -46.634 -51.417  13.758  1.00  0.00     0.002 A 
HETATM    8  C   UNL     1     -45.516 -52.066  13.221  1.00  0.00     0.032 A 
HETATM    9  C   UNL     1     -44.699 -52.779  14.106  1.00  0.00     0.062 A 
HETATM   10  N   UNL     1     -43.515 -53.468  13.959  1.00  0.00    -0.331 N 
ENDROOT
BRANCH   1  11
HETATM   11  C   UNL     1     -41.936 -54.811  15.445  1.00  0.00     0.148 C 
HETATM   12  C   UNL     1     -42.204 -55.974  16.397  1.00  0.00     0.040 C 
BRANCH  11  13
HETATM   13  N   UNL     1     -40.951 -53.908  15.998  1.00  0.00    -0.350 N 
HETATM   14  C   UNL     1     -39.712 -53.752  15.439  1.00  0.00     0.218 C 
HETATM   15  O   UNL     1     -39.369 -54.314  14.403  1.00  0.00    -0.274 OA
HETATM   16  H   UNL     1     -41.230 -53.384  16.824  1.00  0.00     0.163 HD
BRANCH  14  17
HETATM   17  C   UNL     1     -38.782 -52.840  16.210  1.00  0.00     0.102 C 
BRANCH  17  18
HETATM   18  C   UNL     1     -38.481 -53.366  17.611  1.00  0.00     0.005 C 
HETATM   19  C   UNL     1     -37.764 -54.710  17.595  1.00  0.00     0.005 C 
ENDBRANCH  17  18
ENDBRANCH  14  17
ENDBRANCH  11  13
ENDBRANCH   1  11
BRANCH  10  20
HETATM   20  C   UNL     1     -42.754 -53.579  12.730  1.00  0.00     0.162 C 
BRANCH  20  21
HETATM   21  C   UNL     1     -42.150 -52.265  12.214  1.00  0.00     0.132 C 
HETATM   22  C   UNL     1     -41.343 -51.485  13.245  1.00  0.00     0.041 C 
BRANCH  21  23
HETATM   23  O   UNL     1     -41.301 -52.558  11.095  1.00  0.00    -0.394 OA
HETATM   24  H   UNL     1     -40.947 -51.721  10.747  1.00  0.00     0.210 HD
ENDBRANCH  21  23
ENDBRANCH  20  21
ENDBRANCH  10  20
TORSDOF 7
ENDMDL
