REMARK  3 active torsions:
REMARK  status: ('A' for Active; 'I' for Inactive)
REMARK    1  A    between atoms: C_2  and  N_3 
REMARK    2  A    between atoms: C_5  and  N_6 
REMARK       I    between atoms: N_6  and  C_7 
REMARK       I    between atoms: C_7  and  N_9 
REMARK    3  A    between atoms: N_9  and  C_10 
ROOT
HETATM    1  N   UNL     1       2.887   4.574  -1.621  1.00  0.00    -0.306 N 
HETATM    2  C   UNL     1       2.228   5.322  -0.673  1.00  0.00     0.321 C 
HETATM    3  O   UNL     1       1.793   4.903   0.396  1.00  0.00    -0.247 OA
HETATM    4  N   UNL     1       2.047   6.639  -1.045  1.00  0.00    -0.338 N 
HETATM    5  H   UNL     1       3.201   5.019  -2.469  1.00  0.00     0.171 HD
HETATM    6  H   UNL     1       2.610   7.026  -1.787  1.00  0.00     0.164 HD
ENDROOT
BRANCH   1   7
HETATM    7  C   UNL     1       3.097   3.208  -1.499  1.00  0.00     0.070 A 
HETATM    8  C   UNL     1       2.702   2.391  -0.467  1.00  0.00     0.141 A 
HETATM    9  N   UNL     1       3.075   1.124  -0.802  1.00  0.00    -0.302 N 
HETATM   10  N   UNL     1       3.729   1.057  -1.977  1.00  0.00    -0.308 N 
HETATM   11  C   UNL     1       3.736   2.328  -2.400  1.00  0.00     0.138 A 
ATOM     12  HN  UNL     1       4.124   0.236  -2.435  1.00  0.00     0.186 HD
BRANCH   9  13
HETATM   13  C   UNL     1       2.774  -0.070  -0.040  1.00  0.00     0.143 C 
HETATM   14  C   UNL     1       3.826  -0.364   1.014  1.00  0.00     0.028 C 
ENDBRANCH   9  13
ENDBRANCH   1   7
BRANCH   4  15
HETATM   15  C   UNL     1       1.380   7.548  -0.111  1.00  0.00     0.086 C 
HETATM   16  C   UNL     1       0.710   8.703  -0.862  1.00  0.00     0.025 C 
HETATM   17  C   UNL     1      -0.405   9.340  -0.034  1.00  0.00     0.002 C 
HETATM   18  C   UNL     1       0.035  10.437   0.931  1.00  0.00     0.000 C 
HETATM   19  C   UNL     1       1.381  10.266   1.629  1.00  0.00     0.000 C 
HETATM   20  C   UNL     1       1.703   8.848   2.087  1.00  0.00     0.002 C 
HETATM   21  C   UNL     1       2.350   8.003   0.989  1.00  0.00     0.025 C 
ENDBRANCH   4  15
TORSDOF 3
