REMARK  7 active torsions:
REMARK  status: ('A' for Active; 'I' for Inactive)
REMARK    1  A    between atoms: C_2  and  O_3 
REMARK    2  A    between atoms: O_3  and  C_4 
REMARK    3  A    between atoms: C_6  and  N_7 
REMARK    4  A    between atoms: N_7  and  C_8 
REMARK    5  A    between atoms: C_8  and  C_9 
REMARK    6  A    between atoms: C_9  and  O_11 
REMARK    7  A    between atoms: C_9  and  C_12 
ROOT
HETATM    1  C   UNL     1       8.358  -0.124   1.748  1.00  0.00     0.312 C 
ENDROOT
BRANCH   1   2
HETATM    2  N   UNL     1       7.323  -0.997   1.154  1.00  0.00     0.092 N 
HETATM    3  H   UNL     1       7.135  -0.666   0.209  1.00  0.00     0.316 HD
BRANCH   2   4
HETATM    4  C   UNL     1       6.143  -1.030   2.037  1.00  0.00     0.233 C 
HETATM    5  C   UNL     1       5.153  -2.078   1.467  1.00  0.00     0.069 C 
HETATM    6  C   UNL     1       4.458  -0.949   0.669  1.00  0.00     0.133 C 
HETATM    7  C   UNL     1       5.091   0.080   1.671  1.00  0.00     0.009 C 
HETATM    8  C   UNL     1       5.514   1.383   0.990  1.00  0.00     0.020 C 
HETATM    9  C   UNL     1       4.227   0.402   2.903  1.00  0.00     0.020 C 
BRANCH   6  10
HETATM   10  O   UNL     1       3.016  -0.996   0.598  1.00  0.00    -0.385 OA
BRANCH  10  11
HETATM   11  C   UNL     1       2.412   0.037  -0.178  1.00  0.00     0.163 C 
HETATM   12  C   UNL     1       0.909  -0.131  -0.159  1.00  0.00     0.033 C 
ENDBRANCH  10  11
ENDBRANCH   6  10
ENDBRANCH   2   4
ENDBRANCH   1   2
BRANCH   1  13
HETATM   13  C   UNL     1       9.610   0.069   0.837  1.00  0.00     0.110 C 
HETATM   14  C   UNL     1      10.383  -1.250   0.679  1.00  0.00     0.053 C 
BRANCH  13  15
HETATM   15  O   UNL     1       9.140   0.461  -0.471  1.00  0.00    -0.383 OA
HETATM   16  H   UNL     1       8.877  -0.352  -0.931  1.00  0.00     0.211 HD
ENDBRANCH  13  15
BRANCH  13  17
HETATM   17  C   UNL     1      10.503   1.145   1.401  1.00  0.00     0.011 A 
HETATM   18  C   UNL     1      11.096   1.197   2.686  1.00  0.00     0.119 A 
HETATM   19  N   UNL     1      11.822   2.299   2.881  1.00  0.00    -0.310 N 
HETATM   20  N   UNL     1      11.703   2.964   1.719  1.00  0.00    -0.307 N 
ATOM     21  HN  UNL     1      12.344   2.572   3.714  1.00  0.00     0.186 HD
HETATM   22  C   UNL     1      12.364   4.233   1.538  1.00  0.00     0.177 C 
HETATM   23  C   UNL     1      10.925   2.320   0.805  1.00  0.00     0.121 A 
ENDBRANCH  13  17
ENDBRANCH   1  13
TORSDOF 7
