REMARK  4 active torsions:
REMARK  status: ('A' for Active; 'I' for Inactive)
REMARK    1  A    between atoms: O_2  and  C_3 
REMARK    2  A    between atoms: C_3  and  C_4 
REMARK    3  A    between atoms: C_4  and  N_5 
REMARK    4  A    between atoms: C_6  and  N_18 
ROOT
HETATM    1  N   UNL     1       4.890  -2.456   1.299  1.00  0.00    -0.172 N 
HETATM    2  C   UNL     1       5.694  -2.454   2.439  1.00  0.00     0.684 C 
HETATM    3  N   UNL     1       5.764  -3.667   2.958  1.00  0.00    -0.174 N 
ATOM      4  HN  UNL     1       6.207  -3.941   3.835  1.00  0.00     0.186 HD
HETATM    5  C   UNL     1       5.117  -4.472   2.070  1.00  0.00     0.160 C 
HETATM    6  N   UNL     1       4.944  -5.840   2.151  1.00  0.00    -0.287 N 
HETATM    7  C   UNL     1       5.504  -6.642   3.215  1.00  0.00     0.163 C 
HETATM    8  C   UNL     1       4.211  -6.487   1.159  1.00  0.00     0.330 C 
HETATM    9  O   UNL     1       4.021  -7.704   1.133  1.00  0.00    -0.246 OA
HETATM   10  N   UNL     1       3.707  -5.712   0.140  1.00  0.00    -0.273 N 
HETATM   11  C   UNL     1       4.033  -4.404  -0.114  1.00  0.00     0.280 C 
HETATM   12  O   UNL     1       3.857  -3.913  -1.223  1.00  0.00    -0.265 OA
HETATM   13  C   UNL     1       4.646  -3.766   0.995  1.00  0.00     0.164 C 
HETATM   14  H   UNL     1       3.271  -6.218  -0.614  1.00  0.00     0.173 HD
ENDROOT
BRANCH   2  15
HETATM   15  N   UNL     1       6.220  -1.295   2.918  1.00  0.00    -0.217 N 
HETATM   16  C   UNL     1       6.523  -1.177   4.347  1.00  0.00     0.141 C 
HETATM   17  C   UNL     1       6.336   0.298   4.742  1.00  0.00     0.020 C 
HETATM   18  C   UNL     1       7.130   1.253   3.842  1.00  0.00     0.003 C 
HETATM   19  C   UNL     1       6.930   0.943   2.357  1.00  0.00     0.020 C 
HETATM   20  C   UNL     1       7.159  -0.541   2.081  1.00  0.00     0.141 C 
ENDBRANCH   2  15
BRANCH   1  21
HETATM   21  C   UNL     1       4.357  -1.261   0.666  1.00  0.00     0.174 C 
BRANCH  21  22
HETATM   22  C   UNL     1       2.948  -1.320   0.081  1.00  0.00     0.187 C 
BRANCH  22  23
HETATM   23  O   UNL     1       2.011  -1.781   1.052  1.00  0.00    -0.394 OA
HETATM   24  C   UNL     1       0.761  -2.103   0.452  1.00  0.00     0.201 C 
ENDBRANCH  22  23
ENDBRANCH  21  22
ENDBRANCH   1  21
TORSDOF 4
