REMARK  2 active torsions:
REMARK  status: ('A' for Active; 'I' for Inactive)
REMARK    1  A    between atoms: C_5  and  N_6 
REMARK       I    between atoms: N_6  and  C_7 
REMARK    2  A    between atoms: C_7  and  C_9 
ROOT
HETATM    1  N   UNL     1       6.715   0.219  -0.572  1.00  0.00    -0.311 N 
HETATM    2  C   UNL     1       7.537   1.322  -0.717  1.00  0.00     0.252 C 
HETATM    3  O   UNL     1       7.225   2.508  -0.664  1.00  0.00    -0.270 OA
HETATM    4  H   UNL     1       7.169  -0.681  -0.666  1.00  0.00     0.170 HD
ENDROOT
BRANCH   1   5
HETATM    5  C   UNL     1       5.345   0.269  -0.303  1.00  0.00     0.107 A 
HETATM    6  C   UNL     1       4.658  -0.934  -0.170  1.00  0.00     0.049 A 
HETATM    7  C   UNL     1       3.294  -0.905   0.144  1.00  0.00     0.012 A 
HETATM    8  C   UNL     1       2.653   0.320   0.319  1.00  0.00    -0.046 A 
HETATM    9  C   UNL     1       1.207   0.428   0.682  1.00  0.00     0.049 C 
HETATM   10  C   UNL     1       3.416   1.463   0.139  1.00  0.00     0.096 A 
HETATM   11  N   UNL     1       4.731   1.454  -0.163  1.00  0.00    -0.352 N 
ATOM     12  HN  UNL     1       5.246   2.326  -0.282  1.00  0.00     0.166 HD
ENDBRANCH   1   5
BRANCH   2  13
HETATM   13  C   UNL     1       9.000   0.922  -0.949  1.00  0.00     0.213 C 
HETATM   14  C   UNL     1       9.569   1.600  -2.186  1.00  0.00     0.044 C 
HETATM   15  C   UNL     1      10.453   0.556  -2.832  1.00  0.00     0.029 C 
HETATM   16  C   UNL     1      10.397  -0.631  -1.897  1.00  0.00     0.168 C 
HETATM   17  O   UNL     1       9.192  -0.488  -1.139  1.00  0.00    -0.376 OA
ENDBRANCH   2  13
TORSDOF 2
