REMARK  5 active torsions:
REMARK  status: ('A' for Active; 'I' for Inactive)
REMARK    1  A    between atoms: C_2  and  N_3 
REMARK    2  A    between atoms: C_2  and  C_11 
REMARK    3  A    between atoms: N_3  and  C_4 
REMARK    4  A    between atoms: C_4  and  C_5 
REMARK    5  A    between atoms: C_11  and  N_13 
ROOT
HETATM    1  C   UNL     1       0.792  -0.112  -0.072  1.00  0.00     0.045 C 
HETATM    2  C   UNL     1       2.319  -0.178   0.084  1.00  0.00     0.240 C 
ENDROOT
BRANCH   2   3
HETATM    3  N   UNL     1       2.585  -0.031   1.534  1.00  0.00     0.092 N 
HETATM    4  H   UNL     1       2.122  -0.778   2.053  1.00  0.00     0.316 HD
BRANCH   3   5
HETATM    5  C   UNL     1       4.005   0.025   1.889  1.00  0.00     0.301 C 
BRANCH   5   6
HETATM    6  C   UNL     1       4.226   0.163   3.415  1.00  0.00     0.149 C 
HETATM    7  C   UNL     1       3.658   1.449   4.025  1.00  0.00     0.034 C 
HETATM    8  C   UNL     1       4.496   2.665   3.657  1.00  0.00     0.004 C 
HETATM    9  C   UNL     1       5.958   2.412   3.998  1.00  0.00     0.026 C 
HETATM   10  C   UNL     1       6.443   1.108   3.382  1.00  0.00     0.168 C 
HETATM   11  O   UNL     1       5.614   0.009   3.758  1.00  0.00    -0.384 OA
ENDBRANCH   5   6
ENDBRANCH   3   5
ENDBRANCH   2   3
BRANCH   2  12
HETATM   12  C   UNL     1       2.950  -1.442  -0.578  1.00  0.00     0.136 C 
HETATM   13  C   UNL     1       2.529  -2.765   0.074  1.00  0.00     0.036 C 
BRANCH  12  14
HETATM   14  N   UNL     1       2.757  -1.459  -2.029  1.00  0.00    -0.297 N 
HETATM   15  C   UNL     1       3.625  -0.966  -2.968  1.00  0.00     0.112 A 
HETATM   16  C   UNL     1       3.065  -1.248  -4.191  1.00  0.00     0.037 A 
HETATM   17  C   UNL     1       1.863  -1.911  -3.889  1.00  0.00     0.108 A 
HETATM   18  N   UNL     1       1.671  -2.043  -2.576  1.00  0.00    -0.310 N 
ATOM     19  HN  UNL     1       0.886  -2.483  -2.097  1.00  0.00     0.186 HD
ENDBRANCH  12  14
ENDBRANCH   2  12
TORSDOF 5
