REMARK  6 active torsions:
REMARK  status: ('A' for Active; 'I' for Inactive)
REMARK    1  A    between atoms: C_2  and  N_4 
REMARK    2  A    between atoms: N_3  and  C_14 
REMARK    3  A    between atoms: C_14  and  C_16 
REMARK    4  A    between atoms: C_16  and  C_26 
REMARK    5  A    between atoms: C_23  and  O_27 
REMARK    6  A    between atoms: C_26  and  O_28 
ROOT
HETATM    1  C   UNL     1       0.411  -0.715  -0.044  1.00  0.00     0.117 A 
HETATM    2  C   UNL     1      -0.764  -1.514  -0.074  1.00  0.00     0.115 A 
HETATM    3  N   UNL     1       1.508   1.196   0.008  1.00  0.00    -0.326 N 
HETATM    4  C   UNL     1       0.242   0.662  -0.037  1.00  0.00     0.140 A 
HETATM    5  N   UNL     1       1.756  -1.024   0.011  1.00  0.00    -0.346 N 
ATOM      6  HN  UNL     1       2.178  -1.952   0.014  1.00  0.00     0.167 HD
HETATM    7  C   UNL     1       2.377   0.138   0.059  1.00  0.00     0.185 A 
HETATM    8  N   UNL     1      -1.956  -0.863  -0.166  1.00  0.00    -0.341 N 
ATOM      9  HN  UNL     1      -2.828  -1.388  -0.241  1.00  0.00     0.167 HD
HETATM   10  N   UNL     1      -0.923   1.336  -0.082  1.00  0.00    -0.336 N 
ATOM     11  HN  UNL     1      -1.004   2.353  -0.063  1.00  0.00     0.168 HD
HETATM   12  C   UNL     1      -1.968   0.487  -0.156  1.00  0.00     0.183 A 
ENDROOT
BRANCH   2  13
HETATM   13  N   UNL     1      -0.729  -2.906   0.069  1.00  0.00    -0.258 NA
HETATM   14  C   UNL     1      -1.871  -3.553   0.776  1.00  0.00     0.096 C 
HETATM   15  C   UNL     1      -2.216  -2.889   2.116  1.00  0.00     0.054 C 
HETATM   16  C   UNL     1      -1.448  -5.032   1.021  1.00  0.00     0.139 C 
HETATM   17  C   UNL     1      -3.273  -3.671   2.908  1.00  0.00     0.122 C 
HETATM   18  C   UNL     1      -2.826  -5.113   3.129  1.00  0.00     0.034 C 
HETATM   19  C   UNL     1      -2.502  -5.803   1.806  1.00  0.00     0.036 C 
HETATM   20  O   UNL     1      -1.232  -5.712  -0.231  1.00  0.00    -0.383 OA
HETATM   21  C   UNL     1      -0.166  -5.076  -0.961  1.00  0.00     0.183 C 
HETATM   22  C   UNL     1      -0.458  -3.582  -1.219  1.00  0.00     0.124 C 
BRANCH  17  23
HETATM   23  O   UNL     1      -3.467  -2.969   4.136  1.00  0.00    -0.391 OA
HETATM   24  C   UNL     1      -4.518  -3.480   4.939  1.00  0.00     0.202 C 
ENDBRANCH  17  23
ENDBRANCH   2  13
BRANCH   3  25
HETATM   25  C   UNL     1       1.863   2.618   0.028  1.00  0.00     0.143 C 
BRANCH  25  26
HETATM   26  C   UNL     1       2.052   3.268  -1.386  1.00  0.00     0.001 C 
HETATM   27  C   UNL     1       3.323   2.704  -2.067  1.00  0.00     0.039 C 
HETATM   28  C   UNL     1       4.596   3.292  -1.457  1.00  0.00     0.168 C 
HETATM   29  O   UNL     1       4.615   4.698  -1.672  1.00  0.00    -0.391 OA
HETATM   30  C   UNL     1       3.579   5.360  -0.960  1.00  0.00     0.168 C 
HETATM   31  C   UNL     1       2.201   4.821  -1.323  1.00  0.00     0.039 C 
BRANCH  26  32
HETATM   32  C   UNL     1       0.791   3.006  -2.243  1.00  0.00     0.175 C 
BRANCH  32  33
HETATM   33  O   UNL     1      -0.358   3.578  -1.620  1.00  0.00    -0.400 OA
HETATM   34  H   UNL     1      -0.701   2.923  -0.975  1.00  0.00     0.209 HD
ENDBRANCH  32  33
ENDBRANCH  26  32
ENDBRANCH  25  26
ENDBRANCH   3  25
TORSDOF 6
