REMARK  4 active torsions:
REMARK  status: ('A' for Active; 'I' for Inactive)
REMARK       I    between atoms: N_2  and  C_4 
REMARK    1  A    between atoms: C_4  and  C_6 
REMARK    2  A    between atoms: C_6  and  N_7 
REMARK       I    between atoms: N_7  and  C_8 
REMARK       I    between atoms: C_8  and  N_10 
REMARK    3  A    between atoms: N_10  and  C_11 
REMARK    4  A    between atoms: C_14  and  N_18 
ROOT
HETATM    1  C   UNL     1       8.688  -3.762  -2.227  1.00  0.00     0.051 C 
HETATM    2  C   UNL     1       9.523  -2.680  -2.452  1.00  0.00     0.035 C 
HETATM    3  C   UNL     1      10.830  -2.919  -2.902  1.00  0.00     0.051 C 
HETATM    4  C   UNL     1      11.318  -4.221  -3.064  1.00  0.00     0.103 C 
HETATM    5  N   UNL     1      10.544  -5.257  -2.662  1.00  0.00    -0.350 N 
ATOM      6  HN  UNL     1      10.913  -6.208  -2.671  1.00  0.00     0.166 HD
HETATM    7  C   UNL     1       9.272  -5.021  -2.247  1.00  0.00     0.119 C 
ENDROOT
BRANCH   1   8
HETATM    8  N   UNL     1       7.310  -3.554  -2.174  1.00  0.00    -0.308 N 
HETATM    9  C   UNL     1       6.322  -4.042  -2.976  1.00  0.00     0.321 C 
HETATM   10  N   UNL     1       6.579  -4.700  -4.137  1.00  0.00    -0.334 N 
HETATM   11  O   UNL     1       5.148  -3.787  -2.701  1.00  0.00    -0.247 OA
HETATM   12  H   UNL     1       5.735  -5.025  -4.593  1.00  0.00     0.164 HD
HETATM   13  H   UNL     1       6.976  -2.723  -1.689  1.00  0.00     0.170 HD
BRANCH  10  14
HETATM   14  C   UNL     1       7.835  -5.024  -4.797  1.00  0.00     0.227 C 
BRANCH  14  15
HETATM   15  C   UNL     1       7.957  -5.060  -6.318  1.00  0.00     0.236 C 
HETATM   16  N   UNL     1       7.691  -3.888  -7.026  1.00  0.00    -0.359 N 
HETATM   17  C   UNL     1       8.264  -3.823  -8.359  1.00  0.00     0.152 C 
HETATM   18  C   UNL     1       7.310  -2.638  -6.388  1.00  0.00     0.152 C 
HETATM   19  O   UNL     1       8.464  -6.044  -6.862  1.00  0.00    -0.272 OA
ENDBRANCH  14  15
ENDBRANCH  10  14
ENDBRANCH   1   8
BRANCH   4  20
HETATM   20  N   UNL     1      12.502  -4.491  -3.730  1.00  0.00    -0.367 N 
HETATM   21  C   UNL     1      13.564  -3.505  -3.926  1.00  0.00     0.124 C 
HETATM   22  C   UNL     1      14.151  -3.668  -5.329  1.00  0.00     0.020 C 
HETATM   23  C   UNL     1      14.658  -5.089  -5.552  1.00  0.00     0.003 C 
HETATM   24  C   UNL     1      13.562  -6.108  -5.247  1.00  0.00     0.020 C 
HETATM   25  C   UNL     1      12.937  -5.890  -3.862  1.00  0.00     0.124 C 
ENDBRANCH   4  20
TORSDOF 4
