REMARK  10 active torsions:
REMARK  status: ('A' for Active; 'I' for Inactive)
REMARK    1  A    between atoms: C_2  and  C_3 
REMARK    2  A    between atoms: N_12  and  C_13 
REMARK    3  A    between atoms: C_13  and  C_14 
REMARK    4  A    between atoms: C_14  and  O_15 
REMARK    5  A    between atoms: C_14  and  C_16 
REMARK    6  A    between atoms: C_16  and  O_17 
REMARK    7  A    between atoms: O_17  and  C_18 
REMARK    8  A    between atoms: C_21  and  C_22 
REMARK    9  A    between atoms: C_22  and  C_23 
REMARK   10  A    between atoms: C_23  and  N_24 
ROOT
HETATM    1  C   UNL     1       4.472  -0.616   3.997  1.00  0.00     0.160 C 
ENDROOT
BRANCH   1   2
HETATM    2  C   UNL     1       3.869  -0.554   2.587  1.00  0.00     0.164 C 
BRANCH   2   3
HETATM    3  N   UNL     1       3.580   0.798   2.143  1.00  0.00    -0.332 N 
HETATM    4  C   UNL     1       4.421   1.632   1.435  1.00  0.00     0.084 A 
HETATM    5  N   UNL     1       3.818   2.769   1.151  1.00  0.00    -0.344 N 
HETATM    6  C   UNL     1       2.546   2.654   1.646  1.00  0.00     0.060 A 
ATOM      7  HN  UNL     1       4.217   3.571   0.663  1.00  0.00     0.167 HD
HETATM    8  C   UNL     1       1.481   3.565   1.585  1.00  0.00     0.032 A 
HETATM    9  C   UNL     1       2.361   1.424   2.267  1.00  0.00     0.062 A 
HETATM   10  C   UNL     1       0.252   3.205   2.146  1.00  0.00     0.002 A 
HETATM   11  C   UNL     1       0.085   1.965   2.764  1.00  0.00     0.002 A 
HETATM   12  C   UNL     1       1.138   1.048   2.840  1.00  0.00     0.032 A 
BRANCH   4  13
HETATM   13  C   UNL     1       5.807   1.286   1.006  1.00  0.00     0.072 C 
HETATM   14  C   UNL     1       5.802   0.624  -0.365  1.00  0.00     0.013 C 
ENDBRANCH   4  13
ENDBRANCH   2   3
ENDBRANCH   1   2
BRANCH   1  15
HETATM   15  O   UNL     1       3.534  -0.168   4.981  1.00  0.00    -0.392 OA
HETATM   16  H   UNL     1       2.802  -0.811   5.001  1.00  0.00     0.210 HD
ENDBRANCH   1  15
BRANCH   1  17
HETATM   17  C   UNL     1       4.883  -2.055   4.337  1.00  0.00     0.209 C 
BRANCH  17  18
HETATM   18  O   UNL     1       3.721  -2.893   4.222  1.00  0.00    -0.349 OA
BRANCH  18  19
HETATM   19  C   UNL     1       3.903  -4.177   4.655  1.00  0.00     0.068 A 
HETATM   20  C   UNL     1       2.799  -4.783   5.256  1.00  0.00     0.037 A 
HETATM   21  C   UNL     1       2.901  -6.078   5.768  1.00  0.00     0.011 A 
HETATM   22  C   UNL     1       4.109  -6.782   5.671  1.00  0.00    -0.046 A 
HETATM   23  C   UNL     1       5.187  -6.194   4.998  1.00  0.00     0.011 A 
HETATM   24  C   UNL     1       5.084  -4.899   4.492  1.00  0.00     0.037 A 
BRANCH  22  25
HETATM   25  C   UNL     1       4.245  -8.165   6.247  1.00  0.00     0.142 C 
BRANCH  25  26
HETATM   26  C   UNL     1       3.842  -9.234   5.245  1.00  0.00    -0.073 C 
BRANCH  26  27
HETATM   27  N   UNL     1       3.508 -10.121   4.414  1.00  0.00    -0.369 N 
ATOM     28  HN2 UNL     1       3.790  -9.414   5.093  1.00  0.00     0.165 HD
ATOM     29  HN1 UNL     1       3.237 -10.839   3.741  1.00  0.00     0.165 HD
ENDBRANCH  26  27
ENDBRANCH  25  26
ENDBRANCH  22  25
ENDBRANCH  18  19
ENDBRANCH  17  18
ENDBRANCH   1  17
TORSDOF 10
