REMARK  3 active torsions:
REMARK  status: ('A' for Active; 'I' for Inactive)
REMARK    1  A    between atoms: N_5  and  C_6 
REMARK    2  A    between atoms: C_6  and  C_7 
REMARK       I    between atoms: C_7  and  N_9 
REMARK    3  A    between atoms: N_9  and  C_10 
ROOT
HETATM    1  C   UNL     1       9.331  -2.932   0.032  1.00  0.00     0.122 C 
HETATM    2  C   UNL     1       9.481  -3.278  -1.474  1.00  0.00     0.046 C 
HETATM    3  C   UNL     1      10.428  -4.433  -1.814  1.00  0.00     0.004 C 
HETATM    4  C   UNL     1       9.833  -5.835  -1.725  1.00  0.00     0.000 C 
HETATM    5  C   UNL     1       8.821  -6.102  -0.617  1.00  0.00     0.000 C 
HETATM    6  C   UNL     1       9.143  -5.455   0.725  1.00  0.00     0.004 C 
HETATM    7  C   UNL     1       8.594  -4.028   0.844  1.00  0.00     0.046 C 
HETATM    8  C   UNL     1      10.683  -2.737   0.641  1.00  0.00     0.091 C 
HETATM    9  N   UNL     1      11.726  -2.573   1.126  1.00  0.00    -0.195 NA
ENDROOT
BRANCH   1  10
HETATM   10  N   UNL     1       8.613  -1.636   0.176  1.00  0.00    -0.338 N 
HETATM   11  C   UNL     1       7.332  -1.390  -0.265  1.00  0.00     0.237 C 
HETATM   12  O   UNL     1       6.643  -2.213  -0.860  1.00  0.00    -0.272 OA
HETATM   13  H   UNL     1       9.176  -0.816   0.410  1.00  0.00     0.164 HD
BRANCH  11  14
HETATM   14  C   UNL     1       6.841   0.035  -0.005  1.00  0.00     0.234 C 
BRANCH  14  15
HETATM   15  N   UNL     1       7.168   0.929  -1.114  1.00  0.00    -0.315 N 
HETATM   16  C   UNL     1       6.256   1.115  -2.132  1.00  0.00     0.095 A 
HETATM   17  C   UNL     1       6.502   1.971  -3.130  1.00  0.00     0.025 A 
HETATM   18  C   UNL     1       7.726   2.750  -3.152  1.00  0.00    -0.034 A 
HETATM   19  C   UNL     1       7.874   3.744  -4.274  1.00  0.00     0.050 C 
HETATM   20  C   UNL     1       8.656   2.568  -2.188  1.00  0.00     0.118 A 
HETATM   21  C   UNL     1       8.413   1.559  -1.105  1.00  0.00     0.269 A 
HETATM   22  C   UNL     1       9.862   3.321  -2.144  1.00  0.00     0.105 C 
HETATM   23  O   UNL     1       9.269   1.301  -0.259  1.00  0.00    -0.266 OA
HETATM   24  N   UNL     1      10.820   3.976  -2.155  1.00  0.00    -0.191 NA
ENDBRANCH  14  15
ENDBRANCH  11  14
ENDBRANCH   1  10
TORSDOF 3
