REMARK  7 active torsions:
REMARK  status: ('A' for Active; 'I' for Inactive)
REMARK    1  A    between atoms: C_2  and  C_4 
REMARK    2  A    between atoms: C_4  and  C_5 
REMARK    3  A    between atoms: C_5  and  S_6 
REMARK    4  A    between atoms: S_6  and  N_9 
REMARK    5  A    between atoms: N_9  and  C_10 
REMARK    6  A    between atoms: C_10  and  C_11 
REMARK    7  A    between atoms: C_17  and  N_18 
ROOT
HETATM    1  C   UNL     1       8.853   4.288   0.002  1.00  0.00    -0.001 C 
HETATM    2  C   UNL     1       9.313   3.289   0.877  1.00  0.00     0.013 C 
HETATM    3  C   UNL     1      10.602   2.791   0.828  1.00  0.00     0.018 C 
HETATM    4  C   UNL     1      11.455   3.368  -0.069  1.00  0.00     0.089 C 
HETATM    5  N   UNL     1      11.118   4.432  -0.828  1.00  0.00    -0.356 N 
ATOM      6  HN  UNL     1      11.805   4.859  -1.449  1.00  0.00     0.166 HD
HETATM    7  C   UNL     1       9.850   4.932  -0.758  1.00  0.00     0.090 C 
ENDROOT
BRANCH   1   8
HETATM    8  C   UNL     1       7.381   4.649   0.062  1.00  0.00     0.173 C 
BRANCH   8   9
HETATM    9  N   UNL     1       6.403   3.671  -0.504  1.00  0.00    -0.315 N 
HETATM   10  H   UNL     1       5.641   4.084  -1.035  1.00  0.00     0.172 HD
BRANCH   9  11
HETATM   11  S   UNL     1       6.040   2.152   0.116  1.00  0.00     0.226 S 
HETATM   12  O   UNL     1       6.946   1.798   1.180  1.00  0.00    -0.206 OA
HETATM   13  O   UNL     1       5.858   1.290  -1.031  1.00  0.00    -0.206 OA
BRANCH  11  14
HETATM   14  C   UNL     1       4.418   2.337   0.888  1.00  0.00     0.163 C 
BRANCH  14  15
HETATM   15  C   UNL     1       4.159   1.145   1.815  1.00  0.00     0.020 C 
BRANCH  15  16
HETATM   16  C   UNL     1       2.782   1.116   2.499  1.00  0.00    -0.022 C 
HETATM   17  C   UNL     1       2.687  -0.119   3.406  1.00  0.00     0.009 C 
HETATM   18  C   UNL     1       2.514   2.373   3.325  1.00  0.00     0.009 C 
ENDBRANCH  15  16
ENDBRANCH  14  15
ENDBRANCH  11  14
ENDBRANCH   9  11
ENDBRANCH   8   9
ENDBRANCH   1   8
BRANCH   7  19
HETATM   19  N   UNL     1       9.666   6.237  -1.266  1.00  0.00    -0.265 NA
HETATM   20  C   UNL     1      10.969   6.976  -1.324  1.00  0.00     0.123 C 
HETATM   21  C   UNL     1      10.725   8.435  -1.733  1.00  0.00     0.182 C 
HETATM   22  O   UNL     1      10.037   8.515  -2.995  1.00  0.00    -0.389 OA
HETATM   23  C   UNL     1       8.801   7.781  -2.942  1.00  0.00     0.182 C 
HETATM   24  C   UNL     1       9.031   6.292  -2.599  1.00  0.00     0.123 C 
ENDBRANCH   7  19
TORSDOF 7
