REMARK  8 active torsions:
REMARK  status: ('A' for Active; 'I' for Inactive)
REMARK    1  A    between atoms: N_2  and  C_13 
REMARK    2  A    between atoms: C_4  and  N_8 
REMARK    3  A    between atoms: N_8  and  C_14 
REMARK    4  A    between atoms: C_13  and  C_17 
REMARK    5  A    between atoms: C_14  and  C_15 
REMARK    6  A    between atoms: C_15  and  S_16 
REMARK    7  A    between atoms: C_17  and  C_22 
REMARK    8  A    between atoms: C_22  and  O_23 
ROOT
HETATM    1  C   UNL     1       0.440  -0.619   0.063  1.00  0.00     0.122 A 
HETATM    2  N   UNL     1       1.479   1.334   0.067  1.00  0.00    -0.326 N 
HETATM    3  C   UNL     1       0.229   0.756   0.043  1.00  0.00     0.140 A 
HETATM    4  C   UNL     1      -0.704  -1.484   0.005  1.00  0.00     0.135 A 
HETATM    5  N   UNL     1       1.799  -0.873   0.124  1.00  0.00    -0.346 N 
ATOM      6  HN  UNL     1       2.253  -1.786   0.155  1.00  0.00     0.167 HD
HETATM    7  C   UNL     1       2.387   0.306   0.134  1.00  0.00     0.185 A 
HETATM    8  N   UNL     1      -1.910  -0.857  -0.115  1.00  0.00    -0.337 N 
ATOM      9  HN  UNL     1      -2.764  -1.406  -0.208  1.00  0.00     0.168 HD
HETATM   10  N   UNL     1      -0.958   1.388  -0.032  1.00  0.00    -0.336 N 
ATOM     11  HN  UNL     1      -1.077   2.401  -0.030  1.00  0.00     0.168 HD
HETATM   12  C   UNL     1      -1.970   0.494  -0.110  1.00  0.00     0.183 A 
ENDROOT
BRANCH   2  13
HETATM   13  C   UNL     1       1.809   2.768   0.042  1.00  0.00     0.143 C 
BRANCH  13  14
HETATM   14  C   UNL     1       1.997   3.398  -1.383  1.00  0.00     0.001 C 
HETATM   15  C   UNL     1       3.277   2.842  -2.058  1.00  0.00     0.039 C 
HETATM   16  C   UNL     1       4.542   3.460  -1.461  1.00  0.00     0.168 C 
HETATM   17  O   UNL     1       4.548   4.863  -1.688  1.00  0.00    -0.391 OA
HETATM   18  C   UNL     1       3.502   5.517  -0.979  1.00  0.00     0.168 C 
HETATM   19  C   UNL     1       2.131   4.958  -1.354  1.00  0.00     0.039 C 
BRANCH  14  20
HETATM   20  C   UNL     1       0.737   3.102  -2.233  1.00  0.00     0.175 C 
BRANCH  20  21
HETATM   21  O   UNL     1      -0.416   3.664  -1.609  1.00  0.00    -0.400 OA
HETATM   22  H   UNL     1      -0.751   3.009  -0.961  1.00  0.00     0.209 HD
ENDBRANCH  20  21
ENDBRANCH  14  20
ENDBRANCH  13  14
ENDBRANCH   2  13
BRANCH   4  23
HETATM   23  N   UNL     1      -0.641  -2.893   0.047  1.00  0.00    -0.364 N 
HETATM   24  C   UNL     1       0.195  -3.389   1.140  1.00  0.00     0.151 C 
BRANCH  23  25
HETATM   25  C   UNL     1      -1.834  -3.695  -0.380  1.00  0.00     0.093 C 
HETATM   26  C   UNL     1      -2.210  -4.783   0.647  1.00  0.00     0.033 C 
BRANCH  25  27
HETATM   27  C   UNL     1      -1.519  -4.316  -1.763  1.00  0.00     0.133 C 
BRANCH  27  28
HETATM   28  S   UNL     1      -2.829  -5.441  -2.367  1.00  0.00     0.012 S 
HETATM   29  O   UNL     1      -4.097  -4.654  -2.508  1.00  0.00    -0.258 OA
HETATM   30  C   UNL     1      -2.148  -5.695  -4.022  1.00  0.00     0.127 C 
ENDBRANCH  27  28
ENDBRANCH  25  27
ENDBRANCH  23  25
ENDBRANCH   4  23
TORSDOF 8
