REMARK  5 active torsions:
REMARK  status: ('A' for Active; 'I' for Inactive)
REMARK    1  A    between atoms: C_2  and  C_3 
REMARK       I    between atoms: C_2  and  N_13 
REMARK    2  A    between atoms: C_3  and  N_4 
REMARK    3  A    between atoms: N_4  and  C_5 
REMARK    4  A    between atoms: C_5  and  C_6 
REMARK    5  A    between atoms: C_6  and  N_7 
ROOT
HETATM    1  N   UNL     1       2.129  -0.797   2.230  1.00  0.00     0.093 N 
HETATM    2  H   UNL     1       1.492  -1.515   1.871  1.00  0.00     0.316 HD
ENDROOT
BRANCH   1   3
HETATM    3  C   UNL     1       3.122  -0.536   1.171  1.00  0.00     0.372 C 
BRANCH   3   4
HETATM    4  C   UNL     1       2.442  -0.066  -0.115  1.00  0.00     0.247 C 
HETATM    5  O   UNL     1       1.862  -0.866  -0.851  1.00  0.00    -0.271 OA
HETATM    6  N   UNL     1       2.563   1.276  -0.421  1.00  0.00    -0.351 N 
HETATM    7  C   UNL     1       2.178   1.786  -1.723  1.00  0.00     0.126 C 
HETATM    8  C   UNL     1       2.663   2.349   0.555  1.00  0.00     0.126 C 
HETATM    9  C   UNL     1       1.972   3.283  -1.527  1.00  0.00     0.021 C 
HETATM   10  C   UNL     1       1.765   3.431  -0.025  1.00  0.00     0.021 C 
ENDBRANCH   3   4
ENDBRANCH   1   3
BRANCH   1  11
HETATM   11  C   UNL     1       2.795  -1.312   3.441  1.00  0.00     0.291 C 
BRANCH  11  12
HETATM   12  C   UNL     1       3.652  -0.253   4.146  1.00  0.00     0.178 C 
BRANCH  12  13
HETATM   13  N   UNL     1       4.307  -0.785   5.322  1.00  0.00    -0.302 N 
HETATM   14  C   UNL     1       3.899  -0.662   6.615  1.00  0.00     0.111 A 
HETATM   15  C   UNL     1       4.871  -1.260   7.382  1.00  0.00     0.037 A 
HETATM   16  C   UNL     1       5.831  -1.706   6.455  1.00  0.00     0.108 A 
HETATM   17  N   UNL     1       5.489  -1.422   5.197  1.00  0.00    -0.310 N 
ATOM     18  HN  UNL     1       6.001  -1.636   4.341  1.00  0.00     0.186 HD
ENDBRANCH  12  13
ENDBRANCH  11  12
ENDBRANCH   1  11
TORSDOF 5
