REMARK  4 active torsions:
REMARK  status: ('A' for Active; 'I' for Inactive)
REMARK    1  A    between atoms: C_2  and  C_3 
REMARK       I    between atoms: C_2  and  N_16 
REMARK    2  A    between atoms: C_3  and  C_4 
REMARK    3  A    between atoms: C_7  and  N_10 
REMARK    4  A    between atoms: N_16  and  C_17 
ROOT
HETATM    1  C   UNL     1       1.970   1.532   1.975  1.00  0.00     0.026 A 
HETATM    2  C   UNL     1       0.977   0.864   2.667  1.00  0.00     0.078 A 
HETATM    3  S   UNL     1       0.096   1.968   3.627  1.00  0.00    -0.064 SA
HETATM    4  C   UNL     1       1.059   3.254   3.050  1.00  0.00     0.153 A 
HETATM    5  N   UNL     1       2.029   2.899   2.229  1.00  0.00    -0.339 N 
ATOM      6  HN  UNL     1       2.723   3.535   1.837  1.00  0.00     0.168 HD
ENDROOT
BRANCH   1   7
HETATM    7  C   UNL     1       2.946   0.929   1.024  1.00  0.00     0.160 C 
BRANCH   7   8
HETATM    8  C   UNL     1       2.259   0.237  -0.140  1.00  0.00     0.223 C 
HETATM    9  O   UNL     1       2.332  -0.984  -0.293  1.00  0.00    -0.273 OA
HETATM   10  N   UNL     1       1.596   1.077  -1.010  1.00  0.00    -0.356 N 
HETATM   11  H   UNL     1       1.522   2.061  -0.776  1.00  0.00     0.162 HD
BRANCH  10  12
HETATM   12  C   UNL     1       0.928   0.591  -2.178  1.00  0.00     0.084 A 
HETATM   13  C   UNL     1       0.163   1.521  -3.078  1.00  0.00     0.027 A 
HETATM   14  C   UNL     1      -0.573   0.524  -2.232  1.00  0.00     0.027 A 
ENDBRANCH  10  12
ENDBRANCH   7   8
ENDBRANCH   1   7
BRANCH   4  15
HETATM   15  N   UNL     1       0.796   4.575   3.386  1.00  0.00    -0.298 N 
HETATM   16  C   UNL     1       1.615   5.669   2.924  1.00  0.00     0.134 C 
HETATM   17  C   UNL     1       0.880   6.931   3.329  1.00  0.00     0.029 C 
HETATM   18  C   UNL     1      -0.538   6.480   3.613  1.00  0.00     0.105 C 
HETATM   19  C   UNL     1      -0.410   5.013   3.930  1.00  0.00     0.225 C 
HETATM   20  O   UNL     1      -1.302   4.386   4.479  1.00  0.00    -0.273 OA
ENDBRANCH   4  15
TORSDOF 4
