REMARK  6 active torsions:
REMARK  status: ('A' for Active; 'I' for Inactive)
REMARK    1  A    between atoms: O_2  and  C_3 
REMARK    2  A    between atoms: C_3  and  C_4 
REMARK    3  A    between atoms: N_7  and  C_8 
REMARK    4  A    between atoms: C_8  and  C_9 
REMARK    5  A    between atoms: C_9  and  N_10 
REMARK       I    between atoms: N_10  and  C_11 
REMARK    6  A    between atoms: C_11  and  C_13 
ROOT
HETATM    1  C   UNL     1       7.591  -1.326   1.772  1.00  0.00     0.174 C 
ENDROOT
BRANCH   1   2
HETATM    2  N   UNL     1       6.557  -1.259   0.765  1.00  0.00    -0.233 N 
HETATM    3  N   UNL     1       6.073  -0.072   0.299  1.00  0.00    -0.275 N 
HETATM    4  C   UNL     1       5.157  -0.455  -0.534  1.00  0.00     0.167 A 
ATOM      5  HN  UNL     1       6.359   0.876   0.544  1.00  0.00     0.189 HD
HETATM    6  O   UNL     1       4.983  -1.788  -0.658  1.00  0.00    -0.243 OA
HETATM    7  C   UNL     1       5.889  -2.320   0.208  1.00  0.00     0.388 A 
HETATM    8  O   UNL     1       6.047  -3.510   0.421  1.00  0.00    -0.236 OA
BRANCH   4   9
HETATM    9  C   UNL     1       4.298   0.436  -1.375  1.00  0.00     0.253 C 
BRANCH   9  10
HETATM   10  O   UNL     1       2.923   0.198  -1.104  1.00  0.00    -0.388 OA
HETATM   11  C   UNL     1       2.088   1.078  -1.846  1.00  0.00     0.202 C 
ENDBRANCH   9  10
ENDBRANCH   4   9
ENDBRANCH   1   2
BRANCH   1  12
HETATM   12  C   UNL     1       7.014  -1.324   3.191  1.00  0.00     0.144 C 
BRANCH  12  13
HETATM   13  N   UNL     1       8.029  -1.339   4.234  1.00  0.00    -0.359 N 
HETATM   14  C   UNL     1       8.854  -0.254   4.427  1.00  0.00     0.221 C 
HETATM   15  O   UNL     1       8.853   0.715   3.675  1.00  0.00    -0.273 OA
HETATM   16  H   UNL     1       8.000  -2.069   4.935  1.00  0.00     0.162 HD
BRANCH  14  17
HETATM   17  C   UNL     1       9.785  -0.372   5.622  1.00  0.00     0.078 C 
HETATM   18  C   UNL     1       9.026  -0.422   6.953  1.00  0.00     0.014 C 
HETATM   19  C   UNL     1       9.823   0.429   7.942  1.00  0.00     0.001 C 
HETATM   20  C   UNL     1      11.093   0.849   7.217  1.00  0.00     0.001 C 
HETATM   21  C   UNL     1      10.702   0.844   5.753  1.00  0.00     0.014 C 
ENDBRANCH  14  17
ENDBRANCH  12  13
ENDBRANCH   1  12
TORSDOF 6
