REMARK  6 active torsions:
REMARK  status: ('A' for Active; 'I' for Inactive)
REMARK    1  A    between atoms: N_11  and  C_12 
REMARK    2  A    between atoms: C_12  and  C_13 
REMARK    3  A    between atoms: C_13  and  O_14 
REMARK    4  A    between atoms: C_13  and  C_15 
REMARK    5  A    between atoms: C_15  and  O_16 
REMARK    6  A    between atoms: O_16  and  C_17 
ROOT
HETATM    1  C   UNL     1       2.957  -2.528   0.004  1.00  0.00     0.164 C 
ENDROOT
BRANCH   1   2
HETATM    2  N   UNL     1       3.464  -1.161  -0.065  1.00  0.00    -0.332 N 
HETATM    3  C   UNL     1       2.621  -0.057  -0.124  1.00  0.00     0.080 A 
HETATM    4  C   UNL     1       1.137  -0.133  -0.187  1.00  0.00     0.089 C 
HETATM    5  N   UNL     1       3.306   1.066  -0.106  1.00  0.00    -0.344 N 
HETATM    6  C   UNL     1       4.622   0.699  -0.058  1.00  0.00     0.060 A 
ATOM      7  HN  UNL     1       2.932   2.015  -0.124  1.00  0.00     0.167 HD
HETATM    8  C   UNL     1       5.760   1.522  -0.009  1.00  0.00     0.032 A 
HETATM    9  C   UNL     1       4.761  -0.690  -0.055  1.00  0.00     0.062 A 
HETATM   10  C   UNL     1       7.026   0.936   0.039  1.00  0.00     0.002 A 
HETATM   11  C   UNL     1       7.160  -0.447   0.026  1.00  0.00     0.002 A 
HETATM   12  C   UNL     1       6.037  -1.279  -0.030  1.00  0.00     0.032 A 
ENDBRANCH   1   2
BRANCH   1  13
HETATM   13  C   UNL     1       3.966  -3.679   0.134  1.00  0.00     0.160 C 
BRANCH  13  14
HETATM   14  O   UNL     1       4.685  -3.629   1.372  1.00  0.00    -0.392 OA
HETATM   15  H   UNL     1       4.068  -3.418   2.094  1.00  0.00     0.210 HD
ENDBRANCH  13  14
BRANCH  13  16
HETATM   16  C   UNL     1       3.310  -5.059   0.052  1.00  0.00     0.209 C 
BRANCH  16  17
HETATM   17  O   UNL     1       2.610  -5.179  -1.181  1.00  0.00    -0.349 OA
BRANCH  17  18
HETATM   18  C   UNL     1       1.971  -6.371  -1.378  1.00  0.00     0.068 A 
HETATM   19  C   UNL     1       0.864  -6.312  -2.223  1.00  0.00     0.037 A 
HETATM   20  C   UNL     1       0.131  -7.462  -2.509  1.00  0.00     0.003 A 
HETATM   21  C   UNL     1       0.517  -8.683  -1.962  1.00  0.00     0.000 A 
HETATM   22  C   UNL     1       1.635  -8.754  -1.135  1.00  0.00     0.003 A 
HETATM   23  C   UNL     1       2.364  -7.599  -0.843  1.00  0.00     0.037 A 
ENDBRANCH  17  18
ENDBRANCH  16  17
ENDBRANCH  13  16
ENDBRANCH   1  13
TORSDOF 6
