REMARK  6 active torsions:
REMARK  status: ('A' for Active; 'I' for Inactive)
REMARK    1  A    between atoms: O_1  and  C_2 
REMARK    2  A    between atoms: C_2  and  C_3 
REMARK    3  A    between atoms: C_3  and  C_4 
REMARK    4  A    between atoms: C_4  and  N_5 
REMARK    5  A    between atoms: C_4  and  C_16 
REMARK       I    between atoms: N_5  and  C_6 
REMARK       I    between atoms: C_6  and  N_8 
REMARK    6  A    between atoms: N_8  and  C_9 
ROOT
HETATM    1  N   UNL     1       4.758  -1.433   0.081  1.00  0.00    -0.338 N 
HETATM    2  C   UNL     1       5.942  -0.973   0.621  1.00  0.00     0.321 C 
HETATM    3  O   UNL     1       6.590  -0.075   0.102  1.00  0.00    -0.247 OA
HETATM    4  N   UNL     1       6.242  -1.600   1.810  1.00  0.00    -0.308 N 
HETATM    5  H   UNL     1       4.549  -2.410   0.228  1.00  0.00     0.164 HD
HETATM    6  H   UNL     1       5.467  -2.053   2.272  1.00  0.00     0.170 HD
ENDROOT
BRANCH   1   7
HETATM    7  C   UNL     1       4.270  -0.840  -1.155  1.00  0.00     0.092 C 
BRANCH   7   8
HETATM    8  C   UNL     1       2.739  -0.836  -1.212  1.00  0.00     0.051 C 
BRANCH   8   9
HETATM    9  C   UNL     1       2.121  -0.050  -0.062  1.00  0.00     0.166 C 
BRANCH   9  10
HETATM   10  O   UNL     1       0.705  -0.071  -0.201  1.00  0.00    -0.401 OA
HETATM   11  H   UNL     1       0.339   0.432   0.547  1.00  0.00     0.209 HD
ENDBRANCH   9  10
ENDBRANCH   8   9
ENDBRANCH   7   8
BRANCH   7  12
HETATM   12  C   UNL     1       4.867  -1.495  -2.382  1.00  0.00     0.008 A 
HETATM   13  C   UNL     1       4.567  -2.925  -2.768  1.00  0.00     0.007 A 
HETATM   14  C   UNL     1       5.956  -2.548  -2.343  1.00  0.00     0.007 A 
ENDBRANCH   7  12
ENDBRANCH   1   7
BRANCH   4  15
HETATM   15  C   UNL     1       7.408  -1.361   2.575  1.00  0.00     0.051 A 
HETATM   16  C   UNL     1       8.560  -0.768   2.062  1.00  0.00     0.032 A 
HETATM   17  C   UNL     1       9.657  -0.537   2.889  1.00  0.00     0.019 A 
HETATM   18  C   UNL     1       9.573  -0.923   4.215  1.00  0.00     0.088 A 
HETATM   19  N   UNL     1       8.490  -1.526   4.751  1.00  0.00    -0.373 N 
HETATM   20  C   UNL     1       7.439  -1.732   3.919  1.00  0.00     0.117 A 
ATOM     21  HN  UNL     1       8.464  -1.811   5.730  1.00  0.00     0.164 HD
ENDBRANCH   4  15
TORSDOF 6
