REMARK  5 active torsions:
REMARK  status: ('A' for Active; 'I' for Inactive)
REMARK    1  A    between atoms: O_2  and  C_3 
REMARK    2  A    between atoms: C_3  and  C_4 
REMARK    3  A    between atoms: C_4  and  N_5 
REMARK    4  A    between atoms: C_8  and  C_13 
REMARK       I    between atoms: C_13  and  N_15 
REMARK    5  A    between atoms: N_15  and  C_16 
ROOT
HETATM    1  N   UNL     1       4.850  -1.347  -2.423  1.00  0.00    -0.255 N 
HETATM    2  N   UNL     1       5.084  -0.604  -3.581  1.00  0.00    -0.290 N 
ATOM      3  HN  UNL     1       5.064   0.416  -3.579  1.00  0.00     0.187 HD
HETATM    4  C   UNL     1       5.329  -1.284  -4.663  1.00  0.00     0.116 A 
HETATM    5  C   UNL     1       5.329  -2.757  -4.762  1.00  0.00     0.042 A 
HETATM    6  C   UNL     1       5.125  -3.441  -3.639  1.00  0.00     0.078 A 
HETATM    7  C   UNL     1       4.873  -2.739  -2.367  1.00  0.00     0.262 A 
HETATM    8  O   UNL     1       4.690  -3.409  -1.355  1.00  0.00    -0.267 OA
ENDROOT
BRANCH   4   9
HETATM    9  C   UNL     1       5.657  -0.556  -5.963  1.00  0.00     0.275 C 
HETATM   10  O   UNL     1       6.379  -1.140  -6.761  1.00  0.00    -0.266 OA
HETATM   11  N   UNL     1       5.075   0.682  -6.096  1.00  0.00    -0.302 N 
HETATM   12  H   UNL     1       4.546   1.046  -5.315  1.00  0.00     0.171 HD
BRANCH  11  13
HETATM   13  C   UNL     1       5.179   1.455  -7.210  1.00  0.00     0.142 C 
HETATM   14  N   UNL     1       5.799   1.152  -8.294  1.00  0.00    -0.370 N 
HETATM   15  C   UNL     1       5.741   2.283  -9.236  1.00  0.00     0.132 C 
ATOM     16  HN  UNL     1       6.262   0.261  -8.475  1.00  0.00     0.161 HD
HETATM   17  C   UNL     1       4.531   3.150  -8.927  1.00  0.00     0.102 C 
HETATM   18  S   UNL     1       4.346   2.974  -7.135  1.00  0.00    -0.092 SA
ENDBRANCH  11  13
ENDBRANCH   4   9
BRANCH   1  19
HETATM   19  C   UNL     1       4.506  -0.604  -1.212  1.00  0.00     0.178 C 
BRANCH  19  20
HETATM   20  C   UNL     1       5.546  -0.723  -0.092  1.00  0.00     0.189 C 
BRANCH  20  21
HETATM   21  O   UNL     1       5.085  -0.001   1.056  1.00  0.00    -0.394 OA
HETATM   22  C   UNL     1       5.973  -0.154   2.158  1.00  0.00     0.201 C 
ENDBRANCH  20  21
ENDBRANCH  19  20
ENDBRANCH   1  19
TORSDOF 5
