REMARK  5 active torsions:
REMARK  status: ('A' for Active; 'I' for Inactive)
REMARK    1  A    between atoms: N_8  and  C_9 
REMARK    2  A    between atoms: C_9  and  C_10 
REMARK    3  A    between atoms: C_10  and  O_11 
REMARK    4  A    between atoms: C_10  and  C_12 
REMARK    5  A    between atoms: C_12  and  N_13 
ROOT
HETATM    1  C   UNL     1       2.655  -2.001  -3.693  1.00  0.00     0.049 C 
HETATM    2  C   UNL     1       3.747  -1.450  -2.821  1.00  0.00    -0.054 A 
HETATM    3  C   UNL     1       3.770  -1.805  -1.457  1.00  0.00     0.039 A 
HETATM    4  C   UNL     1       4.771  -1.293  -0.618  1.00  0.00     0.060 A 
HETATM    5  N   UNL     1       4.975  -1.508   0.722  1.00  0.00    -0.350 N 
ATOM      6  HN  UNL     1       4.442  -2.119   1.341  1.00  0.00     0.166 HD
HETATM    7  C   UNL     1       6.005  -0.756   1.034  1.00  0.00     0.184 A 
HETATM    8  N   UNL     1       6.503  -0.097  -0.059  1.00  0.00    -0.339 N 
HETATM    9  C   UNL     1       5.729  -0.431  -1.144  1.00  0.00     0.062 A 
HETATM   10  C   UNL     1       5.741  -0.058  -2.495  1.00  0.00     0.039 A 
HETATM   11  C   UNL     1       4.736  -0.578  -3.334  1.00  0.00    -0.054 A 
HETATM   12  C   UNL     1       4.729  -0.183  -4.790  1.00  0.00     0.049 C 
ENDROOT
BRANCH   8  13
HETATM   13  C   UNL     1       7.588   0.877  -0.017  1.00  0.00     0.163 C 
BRANCH  13  14
HETATM   14  C   UNL     1       7.037   2.281   0.241  1.00  0.00     0.164 C 
BRANCH  14  15
HETATM   15  O   UNL     1       6.444   2.285   1.550  1.00  0.00    -0.392 OA
HETATM   16  H   UNL     1       6.980   2.862   2.121  1.00  0.00     0.210 HD
ENDBRANCH  14  15
BRANCH  14  17
HETATM   17  C   UNL     1       8.121   3.388   0.148  1.00  0.00     0.305 C 
BRANCH  17  18
HETATM   18  N   UNL     1       7.532   4.715   0.390  1.00  0.00     0.090 N 
HETATM   19  C   UNL     1       6.560   5.114  -0.637  1.00  0.00     0.272 C 
HETATM   20  C   UNL     1       6.524   6.637  -0.592  1.00  0.00     0.032 C 
HETATM   21  C   UNL     1       7.594   7.026   0.414  1.00  0.00     0.032 C 
HETATM   22  C   UNL     1       8.502   5.807   0.468  1.00  0.00     0.272 C 
ENDBRANCH  17  18
ENDBRANCH  14  17
ENDBRANCH  13  14
ENDBRANCH   8  13
TORSDOF 5
