REMARK  6 active torsions:
REMARK  status: ('A' for Active; 'I' for Inactive)
REMARK    1  A    between atoms: C_7  and  O_8 
REMARK    2  A    between atoms: O_8  and  C_9 
REMARK    3  A    between atoms: C_9  and  C_10 
REMARK    4  A    between atoms: C_10  and  N_11 
REMARK       I    between atoms: N_11  and  C_12 
REMARK    5  A    between atoms: C_12  and  C_14 
REMARK    6  A    between atoms: C_14  and  N_15 
ROOT
HETATM    1  N   UNL     1       2.849  -4.556   2.536  1.00  0.00    -0.358 N 
HETATM    2  C   UNL     1       2.862  -5.576   3.463  1.00  0.00     0.236 C 
HETATM    3  O   UNL     1       2.538  -5.428   4.640  1.00  0.00    -0.272 OA
HETATM    4  H   UNL     1       2.752  -4.818   1.555  1.00  0.00     0.162 HD
ENDROOT
BRANCH   1   5
HETATM    5  C   UNL     1       2.379  -3.232   2.897  1.00  0.00     0.148 C 
BRANCH   5   6
HETATM    6  C   UNL     1       2.963  -2.152   1.990  1.00  0.00     0.187 C 
BRANCH   6   7
HETATM    7  O   UNL     1       2.419  -2.279   0.670  1.00  0.00    -0.384 OA
BRANCH   7   8
HETATM    8  C   UNL     1       2.961  -1.334  -0.263  1.00  0.00     0.125 C 
HETATM    9  C   UNL     1       2.624   0.130   0.103  1.00  0.00     0.010 C 
HETATM   10  C   UNL     1       1.128   0.340   0.374  1.00  0.00     0.012 C 
HETATM   11  C   UNL     1       3.145   1.086  -0.977  1.00  0.00     0.007 C 
HETATM   12  C   UNL     1       2.636   0.736  -2.372  1.00  0.00     0.001 C 
HETATM   13  C   UNL     1       2.921  -0.719  -2.731  1.00  0.00     0.002 C 
HETATM   14  C   UNL     1       2.431  -1.692  -1.659  1.00  0.00     0.032 C 
ENDBRANCH   7   8
ENDBRANCH   6   7
ENDBRANCH   5   6
ENDBRANCH   1   5
BRANCH   2  15
HETATM   15  C   UNL     1       3.271  -6.934   2.901  1.00  0.00     0.235 C 
BRANCH  15  16
HETATM   16  N   UNL     1       2.090  -7.732   2.583  1.00  0.00    -0.301 N 
HETATM   17  C   UNL     1       1.539  -8.537   3.551  1.00  0.00     0.102 A 
HETATM   18  C   UNL     1       0.462  -9.283   3.310  1.00  0.00     0.092 A 
HETATM   19  C   UNL     1      -0.157  -9.251   1.976  1.00  0.00     0.252 A 
HETATM   20  O   UNL     1      -1.150  -9.945   1.772  1.00  0.00    -0.268 OA
HETATM   21  N   UNL     1       0.445  -8.425   1.043  1.00  0.00    -0.271 N 
HETATM   22  C   UNL     1      -0.108  -8.370  -0.295  1.00  0.00     0.164 C 
HETATM   23  C   UNL     1       1.542  -7.609   1.309  1.00  0.00     0.331 A 
HETATM   24  O   UNL     1       2.008  -6.823   0.480  1.00  0.00    -0.246 OA
ENDBRANCH  15  16
ENDBRANCH   2  15
TORSDOF 6
