REMARK  3 active torsions:
REMARK  status: ('A' for Active; 'I' for Inactive)
REMARK    1  A    between atoms: C_2  and  C_3 
REMARK    2  A    between atoms: C_9  and  N_10 
REMARK    3  A    between atoms: C_15  and  C_16 
REMARK       I    between atoms: C_16  and  N_18 
ROOT
HETATM    1  C   UNL     1       2.818   0.927   1.121  1.00  0.00     0.052 A 
HETATM    2  N   UNL     1       3.544   0.510   2.179  1.00  0.00    -0.353 N 
ATOM      3  HN  UNL     1       3.769  -0.473   2.329  1.00  0.00     0.166 HD
HETATM    4  C   UNL     1       3.950   1.470   3.019  1.00  0.00     0.182 A 
HETATM    5  N   UNL     1       3.665   2.777   2.915  1.00  0.00    -0.336 N 
ATOM      6  HN  UNL     1       3.984   3.441   3.620  1.00  0.00     0.168 HD
HETATM    7  C   UNL     1       2.945   3.187   1.853  1.00  0.00     0.146 A 
HETATM    8  C   UNL     1       2.511   2.262   0.910  1.00  0.00     0.182 A 
HETATM    9  F   UNL     1       1.761   2.624  -0.143  1.00  0.00    -0.200 F 
ENDROOT
BRANCH   7  10
HETATM   10  N   UNL     1       2.712   4.542   1.768  1.00  0.00    -0.347 N 
HETATM   11  C   UNL     1       2.550   5.191   0.456  1.00  0.00     0.151 C 
HETATM   12  C   UNL     1       2.952   6.673   0.573  1.00  0.00     0.187 C 
HETATM   13  O   UNL     1       2.214   7.351   1.604  1.00  0.00    -0.387 OA
HETATM   14  C   UNL     1       2.440   6.709   2.880  1.00  0.00     0.202 C 
HETATM   15  C   UNL     1       1.954   5.248   2.846  1.00  0.00     0.201 C 
BRANCH  15  16
HETATM   16  C   UNL     1       2.028   4.654   4.260  1.00  0.00     0.240 C 
HETATM   17  O   UNL     1       2.760   5.065   5.154  1.00  0.00    -0.271 OA
HETATM   18  N   UNL     1       1.136   3.642   4.513  1.00  0.00    -0.368 N 
HETATM   19  H   UNL     1       0.772   3.091   3.747  1.00  0.00     0.159 HD
HETATM   20  H   UNL     1       1.257   3.173   5.401  1.00  0.00     0.159 HD
ENDBRANCH  15  16
ENDBRANCH   7  10
BRANCH   1  21
HETATM   21  C   UNL     1       2.267  -0.135   0.211  1.00  0.00     0.056 C 
HETATM   22  C   UNL     1       0.875  -0.558   0.655  1.00  0.00     0.011 C 
ENDBRANCH   1  21
TORSDOF 3
