REMARK  8 active torsions:
REMARK  status: ('A' for Active; 'I' for Inactive)
REMARK    1  A    between atoms: N_2  and  C_13 
REMARK    2  A    between atoms: C_6  and  N_8 
REMARK    3  A    between atoms: C_13  and  C_15 
REMARK    4  A    between atoms: C_15  and  O_24 
REMARK    5  A    between atoms: C_21  and  O_25 
REMARK    6  A    between atoms: O_25  and  C_26 
REMARK    7  A    between atoms: C_26  and  C_29 
REMARK    8  A    between atoms: C_29  and  C_30 
ROOT
HETATM    1  C   UNL     1       0.186  -0.791  -0.674  1.00  0.00     0.117 A 
HETATM    2  N   UNL     1       1.155   1.085  -1.238  1.00  0.00    -0.324 N 
HETATM    3  C   UNL     1       0.035   0.585  -0.635  1.00  0.00     0.140 A 
HETATM    4  N   UNL     1       1.358  -1.125  -1.334  1.00  0.00    -0.346 N 
ATOM      5  HN  UNL     1       1.701  -2.060  -1.555  1.00  0.00     0.167 HD
HETATM    6  C   UNL     1      -0.814  -1.560  -0.039  1.00  0.00     0.114 A 
HETATM    7  C   UNL     1       1.932   0.023  -1.614  1.00  0.00     0.185 A 
HETATM    8  N   UNL     1      -0.977   1.277  -0.094  1.00  0.00    -0.336 N 
ATOM      9  HN  UNL     1      -1.056   2.294  -0.113  1.00  0.00     0.168 HD
HETATM   10  N   UNL     1      -1.846  -0.887   0.545  1.00  0.00    -0.341 N 
ATOM     11  HN  UNL     1      -2.587  -1.395   1.027  1.00  0.00     0.167 HD
HETATM   12  C   UNL     1      -1.873   0.458   0.476  1.00  0.00     0.183 A 
ENDROOT
BRANCH   6  13
HETATM   13  N   UNL     1      -0.735  -2.956   0.037  1.00  0.00    -0.267 NA
HETATM   14  C   UNL     1      -1.413  -3.539   1.199  1.00  0.00     0.099 C 
HETATM   15  C   UNL     1      -1.032  -5.018   1.289  1.00  0.00     0.047 C 
HETATM   16  C   UNL     1      -1.365  -5.753  -0.015  1.00  0.00     0.123 C 
HETATM   17  C   UNL     1      -0.695  -5.036  -1.196  1.00  0.00     0.047 C 
HETATM   18  C   UNL     1      -1.121  -3.572  -1.235  1.00  0.00     0.099 C 
BRANCH  16  19
HETATM   19  O   UNL     1      -2.798  -5.805  -0.151  1.00  0.00    -0.386 OA
BRANCH  19  20
HETATM   20  C   UNL     1      -3.212  -6.633  -1.235  1.00  0.00     0.168 C 
BRANCH  20  21
HETATM   21  C   UNL     1      -4.733  -6.694  -1.319  1.00  0.00     0.030 C 
BRANCH  21  22
HETATM   22  C   UNL     1      -5.194  -7.437  -2.588  1.00  0.00    -0.021 C 
HETATM   23  C   UNL     1      -4.697  -8.885  -2.625  1.00  0.00     0.009 C 
HETATM   24  C   UNL     1      -6.714  -7.405  -2.712  1.00  0.00     0.009 C 
ENDBRANCH  21  22
ENDBRANCH  20  21
ENDBRANCH  19  20
ENDBRANCH  16  19
ENDBRANCH   6  13
BRANCH   2  25
HETATM   25  C   UNL     1       1.521   2.482  -1.302  1.00  0.00     0.169 C 
BRANCH  25  26
HETATM   26  C   UNL     1       1.222   3.178  -2.650  1.00  0.00     0.078 C 
HETATM   27  C   UNL     1       1.707   4.637  -2.577  1.00  0.00     0.066 C 
HETATM   28  C   UNL     1       0.730   5.519  -1.816  1.00  0.00     0.170 C 
HETATM   29  O   UNL     1      -0.543   5.482  -2.453  1.00  0.00    -0.391 OA
HETATM   30  C   UNL     1      -1.129   4.184  -2.409  1.00  0.00     0.170 C 
HETATM   31  C   UNL     1      -0.250   3.148  -3.103  1.00  0.00     0.066 C 
BRANCH  26  32
HETATM   32  O   UNL     1       2.030   2.535  -3.655  1.00  0.00    -0.388 OA
HETATM   33  H   UNL     1       1.650   1.659  -3.848  1.00  0.00     0.210 HD
ENDBRANCH  26  32
ENDBRANCH  25  26
ENDBRANCH   2  25
TORSDOF 8
