REMARK  9 active torsions:
REMARK  status: ('A' for Active; 'I' for Inactive)
REMARK    1  A    between atoms: O_2  and  C_3 
REMARK    2  A    between atoms: C_3  and  C_4 
REMARK    3  A    between atoms: C_4  and  N_5 
REMARK    4  A    between atoms: C_6  and  S_7 
REMARK    5  A    between atoms: S_7  and  C_8 
REMARK    6  A    between atoms: C_8  and  C_9 
REMARK       I    between atoms: C_9  and  N_11 
REMARK    7  A    between atoms: N_11  and  C_12 
REMARK    8  A    between atoms: C_12  and  C_13 
REMARK    9  A    between atoms: C_13  and  N_14 
ROOT
HETATM    1  N   UNL     1       4.743   1.874   2.011  1.00  0.00    -0.324 N 
HETATM    2  C   UNL     1       4.529   3.233   1.968  1.00  0.00     0.148 A 
HETATM    3  N   UNL     1       4.995   3.839   3.039  1.00  0.00    -0.335 N 
ATOM      4  HN  UNL     1       4.978   4.839   3.241  1.00  0.00     0.168 HD
HETATM    5  C   UNL     1       5.510   2.836   3.828  1.00  0.00     0.062 A 
HETATM    6  C   UNL     1       6.084   2.910   5.109  1.00  0.00     0.055 A 
HETATM    7  C   UNL     1       6.517   1.727   5.716  1.00  0.00     0.036 A 
HETATM    8 CL   UNL     1       7.189   1.786   7.304  1.00  0.00    -0.084 Cl
HETATM    9  C   UNL     1       6.411   0.496   5.070  1.00  0.00     0.026 A 
HETATM   10  C   UNL     1       5.847   0.407   3.793  1.00  0.00     0.034 A 
HETATM   11  C   UNL     1       5.391   1.596   3.203  1.00  0.00     0.063 A 
ENDROOT
BRANCH   2  12
HETATM   12  S   UNL     1       3.682   4.016   0.670  1.00  0.00    -0.084 SA
BRANCH  12  13
HETATM   13  C   UNL     1       3.955   5.777   1.025  1.00  0.00     0.185 C 
BRANCH  13  14
HETATM   14  C   UNL     1       3.332   6.669  -0.051  1.00  0.00     0.228 C 
HETATM   15  O   UNL     1       2.832   7.760   0.222  1.00  0.00    -0.273 OA
HETATM   16  N   UNL     1       3.429   6.237  -1.360  1.00  0.00    -0.349 N 
HETATM   17  H   UNL     1       3.704   5.274  -1.521  1.00  0.00     0.163 HD
BRANCH  16  18
HETATM   18  C   UNL     1       2.814   7.002  -2.437  1.00  0.00     0.227 C 
BRANCH  18  19
HETATM   19  C   UNL     1       2.954   6.331  -3.793  1.00  0.00    -0.058 C 
BRANCH  19  20
HETATM   20  N   UNL     1       3.071   5.774  -4.918  1.00  0.00    -0.368 N 
ATOM     21  HN2 UNL     1       3.011   6.216  -4.001  1.00  0.00     0.165 HD
ATOM     22  HN1 UNL     1       3.165   5.324  -5.828  1.00  0.00     0.165 HD
ENDBRANCH  19  20
ENDBRANCH  18  19
ENDBRANCH  16  18
ENDBRANCH  13  14
ENDBRANCH  12  13
ENDBRANCH   2  12
BRANCH   1  23
HETATM   23  C   UNL     1       4.244   0.865   1.091  1.00  0.00     0.157 C 
BRANCH  23  24
HETATM   24  C   UNL     1       4.815   0.922  -0.323  1.00  0.00     0.187 C 
BRANCH  24  25
HETATM   25  O   UNL     1       6.231   0.760  -0.295  1.00  0.00    -0.394 OA
HETATM   26  C   UNL     1       6.801   0.972  -1.582  1.00  0.00     0.201 C 
ENDBRANCH  24  25
ENDBRANCH  23  24
ENDBRANCH   1  23
TORSDOF 9
