REMARK  8 active torsions:
REMARK  status: ('A' for Active; 'I' for Inactive)
REMARK    1  A    between atoms: N_4  and  C_5 
REMARK    2  A    between atoms: C_5  and  C_6 
REMARK    3  A    between atoms: C_6  and  O_7 
REMARK    4  A    between atoms: C_6  and  C_8 
REMARK    5  A    between atoms: C_8  and  N_9 
REMARK    6  A    between atoms: N_9  and  C_10 
REMARK    7  A    between atoms: C_10  and  C_11 
REMARK    8  A    between atoms: C_11  and  N_12 
ROOT
HETATM    1  C   UNL     1       2.725   3.182  -3.032  1.00  0.00     0.174 C 
ENDROOT
BRANCH   1   2
HETATM    2  C   UNL     1       3.176   1.725  -3.304  1.00  0.00     0.305 C 
BRANCH   2   3
HETATM    3  N   UNL     1       2.808   0.780  -2.236  1.00  0.00     0.096 N 
HETATM    4  C   UNL     1       3.329  -0.572  -2.532  1.00  0.00     0.303 C 
HETATM    5  C   UNL     1       2.940  -1.585  -1.435  1.00  0.00     0.146 C 
HETATM    6  C   UNL     1       3.666  -1.330  -0.114  1.00  0.00     0.041 C 
HETATM    7  O   UNL     1       1.513  -1.631  -1.254  1.00  0.00    -0.378 OA
HETATM    8  C   UNL     1       0.954  -0.336  -0.985  1.00  0.00     0.146 C 
HETATM    9  C   UNL     1       1.340   0.680  -2.077  1.00  0.00     0.303 C 
HETATM   10  C   UNL     1      -0.562  -0.481  -0.916  1.00  0.00     0.041 C 
ENDBRANCH   2   3
ENDBRANCH   1   2
BRANCH   1  11
HETATM   11  O   UNL     1       3.263   3.692  -1.806  1.00  0.00    -0.392 OA
HETATM   12  H   UNL     1       4.152   3.314  -1.699  1.00  0.00     0.210 HD
ENDBRANCH   1  11
BRANCH   1  13
HETATM   13  C   UNL     1       3.183   4.081  -4.187  1.00  0.00     0.302 C 
BRANCH  13  14
HETATM   14  N   UNL     1       2.645   5.435  -4.007  1.00  0.00     0.087 N 
HETATM   15  H   UNL     1       2.946   5.772  -3.087  1.00  0.00     0.316 HD
BRANCH  14  16
HETATM   16  C   UNL     1       3.080   6.348  -5.064  1.00  0.00     0.291 C 
BRANCH  16  17
HETATM   17  C   UNL     1       2.509   5.953  -6.426  1.00  0.00     0.178 C 
BRANCH  17  18
HETATM   18  N   UNL     1       2.903   6.873  -7.474  1.00  0.00    -0.302 N 
HETATM   19  C   UNL     1       2.185   7.935  -7.922  1.00  0.00     0.118 A 
HETATM   20  C   UNL     1       2.874   8.426  -9.010  1.00  0.00    -0.028 A 
HETATM   21  C   UNL     1       2.507   9.560  -9.885  1.00  0.00     0.051 C 
HETATM   22  C   UNL     1       4.006   7.586  -9.107  1.00  0.00     0.115 A 
HETATM   23  N   UNL     1       4.032   6.643  -8.164  1.00  0.00    -0.310 N 
ATOM     24  HN  UNL     1       4.737   5.923  -8.006  1.00  0.00     0.186 HD
ENDBRANCH  17  18
ENDBRANCH  16  17
ENDBRANCH  14  16
ENDBRANCH  13  14
ENDBRANCH   1  13
TORSDOF 8
