REMARK  6 active torsions:
REMARK  status: ('A' for Active; 'I' for Inactive)
REMARK    1  A    between atoms: C_2  and  C_3 
REMARK    2  A    between atoms: C_3  and  C_5 
REMARK    3  A    between atoms: C_3  and  N_7 
REMARK    4  A    between atoms: C_5  and  O_6 
REMARK       I    between atoms: N_7  and  C_8 
REMARK       I    between atoms: C_8  and  N_10 
REMARK    5  A    between atoms: N_10  and  C_11 
REMARK    6  A    between atoms: N_15  and  C_18 
ROOT
HETATM    1  C   UNL     1       7.322   3.306  -1.964  1.00  0.00     0.702 C 
HETATM    2  N   UNL     1       6.893   4.600  -1.981  1.00  0.00    -0.185 N 
ATOM      3  HN  UNL     1       6.037   4.985  -1.581  1.00  0.00     0.185 HD
HETATM    4  C   UNL     1       7.836   5.232  -2.630  1.00  0.00     0.218 C 
HETATM    5  N   UNL     1       8.812   4.354  -2.975  1.00  0.00    -0.268 N 
HETATM    6  N   UNL     1       8.549   3.128  -2.464  1.00  0.00    -0.128 N 
ATOM      7  HN  UNL     1       9.132   2.291  -2.461  1.00  0.00     0.206 HD
ENDROOT
BRANCH   1   8
HETATM    8  N   UNL     1       6.557   2.271  -1.487  1.00  0.00    -0.140 N 
HETATM    9  C   UNL     1       5.193   2.368  -1.480  1.00  0.00     0.335 C 
HETATM   10  N   UNL     1       4.570   1.233  -0.993  1.00  0.00    -0.332 N 
HETATM   11  O   UNL     1       4.542   3.319  -1.901  1.00  0.00    -0.246 OA
HETATM   12  H   UNL     1       5.081   0.740  -0.274  1.00  0.00     0.165 HD
HETATM   13  H   UNL     1       6.990   1.368  -1.558  1.00  0.00     0.189 HD
BRANCH  10  14
HETATM   14  C   UNL     1       3.089   1.134  -0.963  1.00  0.00     0.051 C 
HETATM   15  C   UNL     1       2.525   1.220  -2.401  1.00  0.00     0.041 C 
BRANCH  14  16
HETATM   16  C   UNL     1       2.663  -0.226  -0.337  1.00  0.00     0.028 C 
HETATM   17  C   UNL     1       3.159  -1.472  -1.061  1.00  0.00     0.007 C 
ENDBRANCH  14  16
BRANCH  14  18
HETATM   18  C   UNL     1       2.476   2.269  -0.078  1.00  0.00     0.194 C 
BRANCH  18  19
HETATM   19  O   UNL     1       1.052   2.207  -0.022  1.00  0.00    -0.398 OA
HETATM   20  H   UNL     1       0.727   2.629  -0.838  1.00  0.00     0.209 HD
ENDBRANCH  18  19
ENDBRANCH  14  18
ENDBRANCH  10  14
ENDBRANCH   1   8
BRANCH   5  21
HETATM   21  C   UNL     1      10.018   4.627  -3.755  1.00  0.00     0.109 C 
HETATM   22  C   UNL     1       9.798   5.663  -4.880  1.00  0.00     0.027 C 
HETATM   23  C   UNL     1       8.955   5.108  -6.031  1.00  0.00     0.002 C 
HETATM   24  C   UNL     1       9.549   3.821  -6.595  1.00  0.00     0.000 C 
HETATM   25  C   UNL     1       9.815   2.785  -5.507  1.00  0.00     0.002 C 
HETATM   26  C   UNL     1      10.656   3.365  -4.367  1.00  0.00     0.027 C 
ENDBRANCH   5  21
TORSDOF 6
