REMARK  5 active torsions:
REMARK  status: ('A' for Active; 'I' for Inactive)
REMARK    1  A    between atoms: C_2  and  C_3 
REMARK    2  A    between atoms: C_2  and  C_15 
REMARK    3  A    between atoms: C_3  and  N_4 
REMARK       I    between atoms: N_4  and  C_5 
REMARK       I    between atoms: C_5  and  N_7 
REMARK    4  A    between atoms: N_7  and  C_8 
REMARK    5  A    between atoms: C_8  and  C_10 
ROOT
HETATM    1  N   UNL     1       2.650   2.634  -0.580  1.00  0.00    -0.342 N 
HETATM    2  C   UNL     1       2.928   3.935  -0.246  1.00  0.00     0.316 C 
HETATM    3  O   UNL     1       3.522   4.267   0.772  1.00  0.00    -0.247 OA
HETATM    4  N   UNL     1       2.463   4.817  -1.190  1.00  0.00    -0.338 N 
HETATM    5  H   UNL     1       1.802   2.499  -1.121  1.00  0.00     0.164 HD
HETATM    6  H   UNL     1       2.339   4.424  -2.113  1.00  0.00     0.164 HD
ENDROOT
BRANCH   1   7
HETATM    7  C   UNL     1       2.946   1.586   0.384  1.00  0.00     0.135 C 
BRANCH   7   8
HETATM    8  C   UNL     1       2.652   0.160  -0.099  1.00  0.00     0.057 C 
HETATM    9  C   UNL     1       3.406  -0.187  -1.385  1.00  0.00     0.018 C 
BRANCH   8  10
HETATM   10  C   UNL     1       1.175  -0.071  -0.297  1.00  0.00     0.056 A 
HETATM   11  N   UNL     1       0.413   0.618  -1.123  1.00  0.00    -0.362 N 
HETATM   12  C   UNL     1      -0.852   0.061  -1.160  1.00  0.00     0.102 A 
ATOM     13  HN  UNL     1       0.711   1.437  -1.654  1.00  0.00     0.165 HD
HETATM   14  C   UNL     1      -1.047  -1.042  -0.351  1.00  0.00    -0.004 A 
HETATM   15  C   UNL     1      -2.245  -1.905  -0.195  1.00  0.00     0.058 C 
HETATM   16  S   UNL     1       0.386  -1.360   0.529  1.00  0.00    -0.080 SA
ENDBRANCH   8  10
ENDBRANCH   7   8
ENDBRANCH   1   7
BRANCH   4  17
HETATM   17  C   UNL     1       2.786   6.237  -1.090  1.00  0.00     0.088 C 
HETATM   18  C   UNL     1       4.183   6.499  -1.660  1.00  0.00     0.032 C 
BRANCH  17  19
HETATM   19  C   UNL     1       1.723   7.102  -1.786  1.00  0.00     0.034 C 
HETATM   20  C   UNL     1       1.953   8.599  -1.641  1.00  0.00     0.035 C 
HETATM   21  C   UNL     1       0.561   9.201  -1.646  1.00  0.00     0.168 C 
HETATM   22  O   UNL     1      -0.380   8.123  -1.587  1.00  0.00    -0.391 OA
HETATM   23  C   UNL     1       0.334   6.944  -1.195  1.00  0.00     0.174 C 
ENDBRANCH  17  19
ENDBRANCH   4  17
TORSDOF 5
