REMARK  5 active torsions:
REMARK  status: ('A' for Active; 'I' for Inactive)
REMARK    1  A    between atoms: C_2  and  C_3 
REMARK    2  A    between atoms: N_9  and  C_10 
REMARK    3  A    between atoms: C_10  and  C_11 
REMARK    4  A    between atoms: C_11  and  N_12 
REMARK       I    between atoms: N_12  and  C_13 
REMARK       I    between atoms: C_13  and  N_15 
REMARK    5  A    between atoms: N_15  and  C_16 
ROOT
HETATM    1  N   UNL     1       6.299  -0.088  -4.147  1.00  0.00    -0.342 N 
HETATM    2  C   UNL     1       7.087   0.457  -5.130  1.00  0.00     0.316 C 
HETATM    3  O   UNL     1       6.908   1.573  -5.593  1.00  0.00    -0.247 OA
HETATM    4  N   UNL     1       8.075  -0.404  -5.527  1.00  0.00    -0.338 N 
HETATM    5  H   UNL     1       6.779  -0.747  -3.551  1.00  0.00     0.164 HD
HETATM    6  H   UNL     1       7.856  -1.383  -5.405  1.00  0.00     0.164 HD
ENDROOT
BRANCH   1   7
HETATM    7  C   UNL     1       5.264   0.723  -3.523  1.00  0.00     0.144 C 
BRANCH   7   8
HETATM    8  C   UNL     1       4.138   1.165  -4.465  1.00  0.00     0.151 C 
BRANCH   8   9
HETATM    9  N   UNL     1       3.330   0.061  -4.935  1.00  0.00    -0.329 N 
HETATM   10  C   UNL     1       2.182  -0.445  -4.382  1.00  0.00     0.098 A 
HETATM   11  N   UNL     1       1.750  -1.429  -5.145  1.00  0.00    -0.288 N 
HETATM   12  N   UNL     1       2.613  -1.562  -6.207  1.00  0.00    -0.295 N 
ATOM     13  HN  UNL     1       0.918  -1.995  -4.977  1.00  0.00     0.188 HD
HETATM   14  C   UNL     1       3.553  -0.657  -6.070  1.00  0.00     0.201 A 
ATOM     15  HN  UNL     1       2.536  -2.241  -6.964  1.00  0.00     0.187 HD
BRANCH  10  16
HETATM   16  C   UNL     1       1.544   0.038  -3.128  1.00  0.00     0.073 C 
HETATM   17  C   UNL     1       0.551   1.157  -3.396  1.00  0.00     0.013 C 
ENDBRANCH  10  16
ENDBRANCH   8   9
ENDBRANCH   7   8
ENDBRANCH   1   7
BRANCH   4  18
HETATM   18  C   UNL     1       8.918  -0.053  -6.660  1.00  0.00     0.093 C 
HETATM   19  C   UNL     1       8.296  -0.495  -7.992  1.00  0.00     0.026 C 
HETATM   20  C   UNL     1       9.461  -0.892  -8.898  1.00  0.00     0.003 C 
HETATM   21  C   UNL     1      10.731  -0.568  -8.121  1.00  0.00     0.011 C 
HETATM   22  C   UNL     1      10.332  -0.672  -6.637  1.00  0.00    -0.027 C 
HETATM   23  C   UNL     1      11.296   0.150  -5.772  1.00  0.00     0.017 C 
HETATM   24  C   UNL     1      10.352  -2.136  -6.168  1.00  0.00     0.017 C 
ENDBRANCH   4  18
TORSDOF 5
