REMARK  5 active torsions:
REMARK  status: ('A' for Active; 'I' for Inactive)
REMARK    1  A    between atoms: C_2  and  C_5 
REMARK    2  A    between atoms: N_9  and  C_10 
REMARK    3  A    between atoms: C_10  and  C_11 
REMARK       I    between atoms: C_11  and  N_13 
REMARK    4  A    between atoms: N_13  and  C_14 
REMARK    5  A    between atoms: N_17  and  C_19 
ROOT
HETATM    1  C   UNL     1       3.905   0.817   4.633  1.00  0.00     0.234 C 
ENDROOT
BRANCH   1   2
HETATM    2  N   UNL     1       5.034   1.669   4.985  1.00  0.00    -0.315 N 
HETATM    3  C   UNL     1       5.753   2.301   3.989  1.00  0.00     0.095 C 
HETATM    4  C   UNL     1       6.728   3.161   4.296  1.00  0.00     0.018 C 
HETATM    5  C   UNL     1       6.976   3.497   5.674  1.00  0.00     0.023 C 
HETATM    6  C   UNL     1       6.330   2.863   6.676  1.00  0.00     0.115 C 
HETATM    7  C   UNL     1       5.362   1.791   6.337  1.00  0.00     0.263 C 
HETATM    8  O   UNL     1       4.865   1.062   7.194  1.00  0.00    -0.267 OA
BRANCH   6   9
HETATM    9  C   UNL     1       6.475   3.239   8.103  1.00  0.00     0.422 C 
HETATM   10  F   UNL     1       5.702   2.560   8.985  1.00  0.00    -0.166 F 
HETATM   11  F   UNL     1       6.174   4.556   8.282  1.00  0.00    -0.166 F 
HETATM   12  F   UNL     1       7.761   3.092   8.524  1.00  0.00    -0.166 F 
ENDBRANCH   6   9
ENDBRANCH   1   2
BRANCH   1  13
HETATM   13  C   UNL     1       4.311  -0.644   4.511  1.00  0.00     0.236 C 
HETATM   14  O   UNL     1       4.574  -1.156   3.423  1.00  0.00    -0.272 OA
HETATM   15  N   UNL     1       4.377  -1.322   5.709  1.00  0.00    -0.353 N 
HETATM   16  H   UNL     1       4.436  -0.763   6.563  1.00  0.00     0.163 HD
BRANCH  15  17
HETATM   17  C   UNL     1       4.745  -2.719   5.737  1.00  0.00     0.114 C 
HETATM   18  C   UNL     1       4.610  -3.378   7.101  1.00  0.00     0.057 C 
HETATM   19  C   UNL     1       5.689  -4.463   7.112  1.00  0.00     0.275 C 
HETATM   20  N   UNL     1       6.404  -4.405   5.823  1.00  0.00     0.095 N 
HETATM   21  C   UNL     1       6.200  -3.013   5.366  1.00  0.00     0.298 C 
BRANCH  20  22
HETATM   22  C   UNL     1       5.887  -5.371   4.825  1.00  0.00     0.223 A 
HETATM   23  C   UNL     1       6.045  -6.851   5.025  1.00  0.00     0.038 A 
HETATM   24  C   UNL     1       6.890  -6.142   4.009  1.00  0.00     0.038 A 
ENDBRANCH  20  22
ENDBRANCH  15  17
ENDBRANCH   1  13
TORSDOF 5
