REMARK  5 active torsions:
REMARK  status: ('A' for Active; 'I' for Inactive)
REMARK    1  A    between atoms: N_4  and  C_5 
REMARK    2  A    between atoms: C_5  and  C_6 
REMARK    3  A    between atoms: C_6  and  N_7 
REMARK       I    between atoms: N_7  and  C_8 
REMARK       I    between atoms: C_8  and  N_10 
REMARK    4  A    between atoms: N_10  and  C_11 
REMARK    5  A    between atoms: C_17  and  N_18 
ROOT
HETATM    1  N   UNL     1       3.007   4.058  -4.208  1.00  0.00    -0.341 N 
HETATM    2  C   UNL     1       2.735   5.379  -3.919  1.00  0.00     0.320 C 
HETATM    3  O   UNL     1       2.174   5.744  -2.898  1.00  0.00    -0.247 OA
HETATM    4  N   UNL     1       3.140   6.196  -4.956  1.00  0.00    -0.306 N 
HETATM    5  H   UNL     1       3.802   3.904  -4.811  1.00  0.00     0.164 HD
HETATM    6  H   UNL     1       3.150   5.760  -5.860  1.00  0.00     0.171 HD
ENDROOT
BRANCH   1   7
HETATM    7  C   UNL     1       2.707   3.021  -3.235  1.00  0.00     0.154 C 
BRANCH   7   8
HETATM    8  C   UNL     1       1.316   2.385  -3.442  1.00  0.00     0.292 C 
BRANCH   8   9
HETATM    9  N   UNL     1       0.963   1.388  -2.413  1.00  0.00     0.095 N 
HETATM   10  C   UNL     1       1.894   0.243  -2.374  1.00  0.00     0.303 C 
HETATM   11  C   UNL     1       1.505  -0.780  -1.286  1.00  0.00     0.146 C 
HETATM   12  C   UNL     1       1.721  -0.246   0.130  1.00  0.00     0.041 C 
HETATM   13  O   UNL     1       0.160  -1.247  -1.477  1.00  0.00    -0.378 OA
HETATM   14  C   UNL     1      -0.792  -0.172  -1.544  1.00  0.00     0.146 C 
HETATM   15  C   UNL     1      -0.405   0.861  -2.629  1.00  0.00     0.303 C 
HETATM   16  C   UNL     1      -2.151  -0.797  -1.834  1.00  0.00     0.041 C 
ENDBRANCH   8   9
ENDBRANCH   7   8
ENDBRANCH   1   7
BRANCH   4  17
HETATM   17  C   UNL     1       2.911   7.591  -4.948  1.00  0.00     0.080 A 
HETATM   18  C   UNL     1       3.400   8.313  -3.847  1.00  0.00     0.035 A 
HETATM   19  C   UNL     1       3.337   9.692  -3.837  1.00  0.00     0.019 A 
HETATM   20  C   UNL     1       2.774  10.309  -4.929  1.00  0.00     0.090 A 
HETATM   21  N   UNL     1       2.285   9.641  -5.998  1.00  0.00    -0.351 N 
HETATM   22  C   UNL     1       2.322   8.282  -6.031  1.00  0.00     0.130 A 
ATOM     23  HN  UNL     1       1.887  10.158  -6.782  1.00  0.00     0.166 HD
BRANCH  22  24
HETATM   24  N   UNL     1       1.742   7.689  -7.138  1.00  0.00    -0.365 N 
HETATM   25  C   UNL     1       1.358   6.294  -7.295  1.00  0.00     0.124 C 
HETATM   26  C   UNL     1       0.403   6.263  -8.483  1.00  0.00     0.021 C 
HETATM   27  C   UNL     1      -0.164   7.665  -8.542  1.00  0.00     0.021 C 
HETATM   28  C   UNL     1       0.985   8.543  -8.059  1.00  0.00     0.124 C 
ENDBRANCH  22  24
ENDBRANCH   4  17
TORSDOF 5
