REMARK  4 active torsions:
REMARK  status: ('A' for Active; 'I' for Inactive)
REMARK       I    between atoms: C_2  and  N_3 
REMARK       I    between atoms: C_2  and  N_16 
REMARK    1  A    between atoms: N_3  and  C_4 
REMARK    2  A    between atoms: N_7  and  C_8 
REMARK    3  A    between atoms: C_8  and  C_9 
REMARK    4  A    between atoms: N_16  and  C_17 
ROOT
HETATM    1  O   UNL     1       2.097  -1.985  -1.480  1.00  0.00    -0.247 OA
HETATM    2  C   UNL     1       2.658  -1.216  -0.709  1.00  0.00     0.321 C 
HETATM    3  N   UNL     1       2.647   0.149  -0.904  1.00  0.00    -0.338 N 
HETATM    4  N   UNL     1       3.351  -1.568   0.424  1.00  0.00    -0.308 N 
HETATM    5  H   UNL     1       3.097   0.748  -0.229  1.00  0.00     0.164 HD
HETATM    6  H   UNL     1       4.031  -0.902   0.758  1.00  0.00     0.170 HD
ENDROOT
BRANCH   3   7
HETATM    7  C   UNL     1       2.054   0.737  -2.105  1.00  0.00     0.089 C 
HETATM    8  C   UNL     1       3.041   0.696  -3.276  1.00  0.00     0.055 C 
HETATM    9  C   UNL     1       4.124   1.763  -3.121  1.00  0.00     0.274 C 
HETATM   10  N   UNL     1       3.591   3.126  -2.992  1.00  0.00     0.088 N 
HETATM   11  C   UNL     1       2.679   3.197  -1.836  1.00  0.00     0.274 C 
HETATM   12  C   UNL     1       1.550   2.160  -1.853  1.00  0.00     0.055 C 
BRANCH  10  13
HETATM   13  C   UNL     1       2.949   3.648  -4.213  1.00  0.00     0.277 C 
BRANCH  13  14
HETATM   14  C   UNL     1       3.837   3.702  -5.467  1.00  0.00     0.014 C 
HETATM   15  C   UNL     1       5.063   4.610  -5.343  1.00  0.00     0.006 C 
HETATM   16  C   UNL     1       5.353   5.120  -6.757  1.00  0.00     0.000 C 
HETATM   17  C   UNL     1       4.204   4.639  -7.637  1.00  0.00     0.000 C 
HETATM   18  C   UNL     1       3.089   4.289  -6.666  1.00  0.00     0.006 C 
ENDBRANCH  13  14
ENDBRANCH  10  13
ENDBRANCH   3   7
BRANCH   4  19
HETATM   19  C   UNL     1       3.354  -2.845   1.029  1.00  0.00     0.051 A 
HETATM   20  C   UNL     1       2.441  -3.852   0.717  1.00  0.00     0.032 A 
HETATM   21  C   UNL     1       2.489  -5.071   1.390  1.00  0.00     0.019 A 
HETATM   22  C   UNL     1       3.453  -5.247   2.368  1.00  0.00     0.088 A 
HETATM   23  N   UNL     1       4.354  -4.302   2.708  1.00  0.00    -0.373 N 
HETATM   24  C   UNL     1       4.280  -3.127   2.032  1.00  0.00     0.117 A 
ATOM     25  HN  UNL     1       5.053  -4.462   3.434  1.00  0.00     0.164 HD
ENDBRANCH   4  19
TORSDOF 4
