REMARK  2 active torsions:
REMARK  status: ('A' for Active; 'I' for Inactive)
REMARK       I    between atoms: C_2  and  N_3 
REMARK       I    between atoms: C_2  and  N_13 
REMARK    1  A    between atoms: N_3  and  C_4 
REMARK    2  A    between atoms: N_13  and  C_14 
ROOT
HETATM    1  O   UNL     1       0.882   0.007   0.014  1.00  0.00    -0.247 OA
HETATM    2  C   UNL     1       2.067   0.238  -0.180  1.00  0.00     0.321 C 
HETATM    3  N   UNL     1       2.829  -0.521  -1.041  1.00  0.00    -0.336 N 
HETATM    4  N   UNL     1       2.790   1.272   0.369  1.00  0.00    -0.308 N 
HETATM    5  H   UNL     1       3.812  -0.586  -0.821  1.00  0.00     0.164 HD
HETATM    6  H   UNL     1       3.644   1.515  -0.114  1.00  0.00     0.170 HD
ENDROOT
BRANCH   3   7
HETATM    7  C   UNL     1       2.221  -1.673  -1.699  1.00  0.00     0.121 C 
HETATM    8  C   UNL     1       2.906  -2.003  -3.031  1.00  0.00     0.057 C 
HETATM    9  C   UNL     1       3.060  -3.526  -3.054  1.00  0.00     0.275 C 
HETATM   10  N   UNL     1       2.215  -3.987  -1.960  1.00  0.00     0.095 N 
HETATM   11  C   UNL     1       2.514  -5.327  -1.471  1.00  0.00     0.273 C 
HETATM   12  C   UNL     1       2.352  -2.977  -0.902  1.00  0.00     0.245 C 
HETATM   13  C   UNL     1       1.547  -5.691  -0.335  1.00  0.00     0.030 C 
HETATM   14  C   UNL     1       1.515  -4.627   0.766  1.00  0.00     0.004 C 
HETATM   15  C   UNL     1       1.307  -3.227   0.180  1.00  0.00     0.038 C 
ENDBRANCH   3   7
BRANCH   4  16
HETATM   16  C   UNL     1       2.288   2.209   1.301  1.00  0.00     0.051 A 
HETATM   17  C   UNL     1       1.116   2.018   2.031  1.00  0.00     0.032 A 
HETATM   18  C   UNL     1       0.655   3.014   2.888  1.00  0.00     0.019 A 
HETATM   19  C   UNL     1       1.397   4.175   3.008  1.00  0.00     0.088 A 
HETATM   20  N   UNL     1       2.559   4.389   2.354  1.00  0.00    -0.373 N 
HETATM   21  C   UNL     1       2.975   3.402   1.521  1.00  0.00     0.117 A 
ATOM     22  HN  UNL     1       3.096   5.247   2.480  1.00  0.00     0.164 HD
ENDBRANCH   4  16
TORSDOF 2
