REMARK  5 active torsions:
REMARK  status: ('A' for Active; 'I' for Inactive)
REMARK    1  A    between atoms: C_9  and  C_10 
REMARK    2  A    between atoms: C_10  and  C_11 
REMARK       I    between atoms: C_11  and  N_13 
REMARK    3  A    between atoms: N_13  and  C_14 
REMARK    4  A    between atoms: C_14  and  C_15 
REMARK    5  A    between atoms: C_14  and  C_18 
ROOT
HETATM    1  C   UNL     1       2.042   3.272  -0.355  1.00  0.00     0.222 C 
HETATM    2  O   UNL     1       1.210   2.684  -1.048  1.00  0.00    -0.273 OA
HETATM    3  N   UNL     1       1.682   4.454   0.225  1.00  0.00    -0.355 N 
HETATM    4  H   UNL     1       0.737   4.739   0.005  1.00  0.00     0.162 HD
ENDROOT
BRANCH   1   5
HETATM    5  C   UNL     1       3.426   2.696  -0.110  1.00  0.00     0.145 C 
BRANCH   5   6
HETATM    6  C   UNL     1       4.496   3.159  -1.049  1.00  0.00    -0.002 A 
HETATM    7  C   UNL     1       4.433   3.371  -2.459  1.00  0.00     0.030 A 
HETATM    8  C   UNL     1       3.288   3.213  -3.391  1.00  0.00     0.070 C 
HETATM    9  N   UNL     1       5.613   3.759  -2.955  1.00  0.00    -0.303 N 
HETATM   10  N   UNL     1       6.439   3.767  -1.902  1.00  0.00    -0.300 N 
ATOM     11  HN  UNL     1       5.834   3.996  -3.922  1.00  0.00     0.186 HD
HETATM   12  C   UNL     1       7.827   4.109  -2.107  1.00  0.00     0.177 C 
HETATM   13  C   UNL     1       5.824   3.423  -0.727  1.00  0.00     0.033 A 
HETATM   14  C   UNL     1       6.534   3.355   0.577  1.00  0.00     0.070 C 
ENDBRANCH   5   6
ENDBRANCH   1   5
BRANCH   3  15
HETATM   15  C   UNL     1       2.527   5.393   0.928  1.00  0.00     0.092 C 
BRANCH  15  16
HETATM   16  C   UNL     1       2.084   6.794   0.584  1.00  0.00     0.009 A 
HETATM   17  C   UNL     1       2.126   7.335  -0.825  1.00  0.00     0.007 A 
HETATM   18  C   UNL     1       3.137   7.799   0.185  1.00  0.00     0.007 A 
ENDBRANCH  15  16
BRANCH  15  19
HETATM   19  C   UNL     1       2.424   5.177   2.417  1.00  0.00     0.009 A 
HETATM   20  C   UNL     1       3.353   5.960   3.319  1.00  0.00     0.007 A 
HETATM   21  C   UNL     1       3.485   4.470   3.227  1.00  0.00     0.007 A 
ENDBRANCH  15  19
ENDBRANCH   3  15
TORSDOF 5
