REMARK  6 active torsions:
REMARK  status: ('A' for Active; 'I' for Inactive)
REMARK    1  A    between atoms: C_2  and  O_3 
REMARK    2  A    between atoms: C_2  and  C_11 
REMARK    3  A    between atoms: O_3  and  C_4 
REMARK    4  A    between atoms: C_4  and  C_5 
REMARK       I    between atoms: C_11  and  N_13 
REMARK    5  A    between atoms: N_13  and  C_14 
REMARK    6  A    between atoms: C_18  and  C_21 
ROOT
HETATM    1  C   UNL     1       2.934   0.997  -1.152  1.00  0.00     0.251 C 
HETATM    2  O   UNL     1       3.528   0.702  -2.197  1.00  0.00    -0.270 OA
HETATM    3  N   UNL     1       2.543   2.300  -0.998  1.00  0.00    -0.311 N 
HETATM    4  H   UNL     1       2.553   2.840  -1.852  1.00  0.00     0.170 HD
ENDROOT
BRANCH   3   5
HETATM    5  C   UNL     1       2.040   2.879   0.162  1.00  0.00     0.108 A 
HETATM    6  C   UNL     1       0.881   3.631   0.047  1.00  0.00     0.049 A 
HETATM    7  C   UNL     1       0.255   4.053   1.216  1.00  0.00     0.006 A 
HETATM    8  C   UNL     1       0.868   3.816   2.443  1.00  0.00     0.034 A 
HETATM    9  C   UNL     1       2.092   3.143   2.476  1.00  0.00     0.118 A 
HETATM   10  N   UNL     1       2.635   2.622   1.335  1.00  0.00    -0.339 N 
ATOM     11  HN  UNL     1       3.477   2.048   1.376  1.00  0.00     0.167 HD
BRANCH   9  12
HETATM   12  C   UNL     1       2.844   3.006   3.792  1.00  0.00     0.432 C 
HETATM   13  F   UNL     1       2.230   3.651   4.829  1.00  0.00    -0.165 F 
HETATM   14  F   UNL     1       2.982   1.712   4.200  1.00  0.00    -0.165 F 
HETATM   15  F   UNL     1       4.103   3.524   3.741  1.00  0.00    -0.165 F 
ENDBRANCH   9  12
ENDBRANCH   3   5
BRANCH   1  16
HETATM   16  C   UNL     1       2.512  -0.071  -0.087  1.00  0.00     0.209 C 
HETATM   17  C   UNL     1       0.989  -0.085   0.137  1.00  0.00     0.050 C 
BRANCH  16  18
HETATM   18  O   UNL     1       2.970  -1.412  -0.317  1.00  0.00    -0.374 OA
BRANCH  18  19
HETATM   19  C   UNL     1       2.463  -2.038  -1.495  1.00  0.00     0.200 C 
BRANCH  19  20
HETATM   20  C   UNL     1       2.870  -3.518  -1.570  1.00  0.00     0.145 C 
HETATM   21  C   UNL     1       4.381  -3.775  -1.615  1.00  0.00     0.034 C 
HETATM   22  C   UNL     1       4.992  -3.610  -3.003  1.00  0.00     0.005 C 
HETATM   23  C   UNL     1       4.134  -4.275  -4.073  1.00  0.00     0.026 C 
HETATM   24  C   UNL     1       2.693  -3.821  -3.946  1.00  0.00     0.168 C 
HETATM   25  O   UNL     1       2.188  -4.169  -2.656  1.00  0.00    -0.384 OA
ENDBRANCH  19  20
ENDBRANCH  18  19
ENDBRANCH  16  18
ENDBRANCH   1  16
TORSDOF 6
