REMARK  7 active torsions:
REMARK  status: ('A' for Active; 'I' for Inactive)
REMARK    1  A    between atoms: N_2  and  C_10 
REMARK    2  A    between atoms: C_4  and  N_5 
REMARK    3  A    between atoms: C_15  and  C_27 
REMARK    4  A    between atoms: C_15  and  C_28 
REMARK    5  A    between atoms: N_16  and  C_29 
REMARK    6  A    between atoms: C_27  and  O_30 
REMARK    7  A    between atoms: C_28  and  O_31 
ROOT
HETATM    1  C   UNL     1       0.282  -0.715   0.082  1.00  0.00     0.122 A 
HETATM    2  N   UNL     1       1.599   1.045   0.099  1.00  0.00    -0.322 N 
HETATM    3  C   UNL     1       0.276   0.681   0.165  1.00  0.00     0.140 A 
HETATM    4  C   UNL     1      -0.972  -1.385   0.091  1.00  0.00     0.136 A 
HETATM    5  N   UNL     1       1.582  -1.184   0.006  1.00  0.00    -0.346 N 
ATOM      6  HN  UNL     1       1.888  -2.155  -0.051  1.00  0.00     0.167 HD
HETATM    7  C   UNL     1       2.337  -0.108   0.023  1.00  0.00     0.185 A 
HETATM    8  N   UNL     1      -0.793   1.487   0.269  1.00  0.00    -0.336 N 
ATOM      9  HN  UNL     1      -0.749   2.504   0.327  1.00  0.00     0.168 HD
HETATM   10  N   UNL     1      -2.068  -0.570   0.204  1.00  0.00    -0.337 N 
ATOM     11  HN  UNL     1      -3.001  -0.980   0.226  1.00  0.00     0.168 HD
HETATM   12  C   UNL     1      -1.926   0.770   0.286  1.00  0.00     0.183 A 
ENDROOT
BRANCH   4  13
HETATM   13  N   UNL     1      -1.194  -2.756  -0.073  1.00  0.00    -0.354 N 
HETATM   14  C   UNL     1      -0.117  -3.782  -0.015  1.00  0.00     0.143 C 
HETATM   15  C   UNL     1       0.202  -4.235   1.442  1.00  0.00     0.300 C 
HETATM   16  C   UNL     1      -0.576  -5.014  -0.850  1.00  0.00     0.147 C 
HETATM   17  N   UNL     1       1.060  -5.440   1.590  1.00  0.00     0.090 N 
HETATM   18  C   UNL     1       0.535  -6.545   0.774  1.00  0.00     0.275 C 
HETATM   19  C   UNL     1       0.405  -6.175  -0.704  1.00  0.00     0.064 C 
HETATM   20  O   UNL     1      -1.845  -5.528  -0.397  1.00  0.00    -0.382 OA
HETATM   21  C   UNL     1      -2.880  -4.552  -0.450  1.00  0.00     0.188 C 
HETATM   22  C   UNL     1      -2.543  -3.238   0.266  1.00  0.00     0.151 C 
BRANCH  17  23
HETATM   23  C   UNL     1       2.478  -5.142   1.354  1.00  0.00     0.268 C 
HETATM   24  C   UNL     1       3.396  -6.347   1.563  1.00  0.00     0.037 C 
ENDBRANCH  17  23
ENDBRANCH   4  13
BRANCH   2  25
HETATM   25  C   UNL     1       2.243   2.335   0.072  1.00  0.00     0.094 C 
HETATM   26  C   UNL     1       1.911   3.278   1.269  1.00  0.00     0.039 C 
HETATM   27  C   UNL     1       2.113   4.480   0.275  1.00  0.00     0.006 C 
HETATM   28  C   UNL     1       1.613   3.452  -0.811  1.00  0.00     0.039 C 
BRANCH  27  29
HETATM   29  C   UNL     1       1.193   5.671   0.556  1.00  0.00     0.175 C 
BRANCH  29  30
HETATM   30  O   UNL     1       1.137   6.531  -0.578  1.00  0.00    -0.400 OA
HETATM   31  H   UNL     1       2.060   6.775  -0.799  1.00  0.00     0.209 HD
ENDBRANCH  29  30
ENDBRANCH  27  29
BRANCH  27  32
HETATM   32  C   UNL     1       3.578   4.943   0.168  1.00  0.00     0.175 C 
BRANCH  32  33
HETATM   33  O   UNL     1       3.759   5.701  -1.025  1.00  0.00    -0.400 OA
HETATM   34  H   UNL     1       3.835   5.070  -1.765  1.00  0.00     0.209 HD
ENDBRANCH  32  33
ENDBRANCH  27  32
ENDBRANCH   2  25
TORSDOF 7
