REMARK  8 active torsions:
REMARK  status: ('A' for Active; 'I' for Inactive)
REMARK    1  A    between atoms: N_6  and  C_7 
REMARK    2  A    between atoms: C_7  and  C_8 
REMARK    3  A    between atoms: C_8  and  N_9 
REMARK    4  A    between atoms: N_9  and  C_10 
REMARK    5  A    between atoms: C_10  and  C_11 
REMARK    6  A    between atoms: C_11  and  O_12 
REMARK    7  A    between atoms: C_11  and  C_13 
REMARK    8  A    between atoms: C_13  and  N_14 
ROOT
HETATM    1  C   UNL     1       7.240  -6.235   0.042  1.00  0.00     0.164 C 
ENDROOT
BRANCH   1   2
HETATM    2  C   UNL     1       6.011  -5.318  -0.094  1.00  0.00     0.302 C 
BRANCH   2   3
HETATM    3  N   UNL     1       6.412  -3.911  -0.080  1.00  0.00     0.087 N 
HETATM    4  H   UNL     1       7.009  -3.730   0.730  1.00  0.00     0.316 HD
BRANCH   3   5
HETATM    5  C   UNL     1       5.273  -2.988  -0.139  1.00  0.00     0.291 C 
BRANCH   5   6
HETATM    6  C   UNL     1       4.305  -3.073   1.044  1.00  0.00     0.178 C 
BRANCH   6   7
HETATM    7  N   UNL     1       3.216  -2.129   0.904  1.00  0.00    -0.302 N 
HETATM    8  N   UNL     1       2.099  -2.494   0.251  1.00  0.00    -0.310 N 
HETATM    9  C   UNL     1       1.324  -1.409   0.324  1.00  0.00     0.115 A 
ATOM     10  HN  UNL     1       1.892  -3.388  -0.195  1.00  0.00     0.186 HD
HETATM   11  C   UNL     1       1.945  -0.348   1.025  1.00  0.00    -0.028 A 
HETATM   12  C   UNL     1       1.408   1.000   1.309  1.00  0.00     0.051 C 
HETATM   13  C   UNL     1       3.171  -0.858   1.390  1.00  0.00     0.118 A 
ENDBRANCH   6   7
ENDBRANCH   5   6
ENDBRANCH   3   5
ENDBRANCH   2   3
ENDBRANCH   1   2
BRANCH   1  14
HETATM   14  O   UNL     1       7.906  -5.930   1.280  1.00  0.00    -0.392 OA
HETATM   15  H   UNL     1       7.305  -6.123   2.018  1.00  0.00     0.210 HD
ENDBRANCH   1  14
BRANCH   1  16
HETATM   16  C   UNL     1       6.785  -7.697   0.016  1.00  0.00     0.163 C 
BRANCH  16  17
HETATM   17  N   UNL     1       7.894  -8.626   0.036  1.00  0.00    -0.339 N 
HETATM   18  C   UNL     1       8.445  -9.167   1.163  1.00  0.00     0.184 A 
HETATM   19  N   UNL     1       9.405 -10.014   0.873  1.00  0.00    -0.350 N 
HETATM   20  C   UNL     1       9.484 -10.006  -0.498  1.00  0.00     0.060 A 
ATOM     21  HN  UNL     1       9.970 -10.559   1.524  1.00  0.00     0.166 HD
HETATM   22  C   UNL     1      10.343 -10.720  -1.343  1.00  0.00     0.039 A 
HETATM   23  C   UNL     1       8.545  -9.144  -1.053  1.00  0.00     0.062 A 
HETATM   24  C   UNL     1      10.243 -10.558  -2.740  1.00  0.00    -0.054 A 
HETATM   25  C   UNL     1      11.182 -11.345  -3.613  1.00  0.00     0.049 C 
HETATM   26  C   UNL     1       9.283  -9.675  -3.281  1.00  0.00    -0.054 A 
HETATM   27  C   UNL     1       9.124  -9.449  -4.763  1.00  0.00     0.049 C 
HETATM   28  C   UNL     1       8.418  -8.953  -2.432  1.00  0.00     0.039 A 
ENDBRANCH  16  17
ENDBRANCH   1  16
TORSDOF 8
