REMARK  6 active torsions:
REMARK  status: ('A' for Active; 'I' for Inactive)
REMARK    1  A    between atoms: C_2  and  C_3 
REMARK    2  A    between atoms: C_2  and  N_11 
REMARK    3  A    between atoms: C_3  and  C_4 
REMARK    4  A    between atoms: C_4  and  N_5 
REMARK       I    between atoms: N_11  and  C_12 
REMARK    5  A    between atoms: C_12  and  C_14 
REMARK    6  A    between atoms: C_14  and  C_15 
ROOT
HETATM    1  N   UNL     1       3.136  -0.860  -1.193  1.00  0.00    -0.357 N 
HETATM    2  C   UNL     1       3.414  -0.516  -2.499  1.00  0.00     0.222 C 
HETATM    3  O   UNL     1       3.179   0.591  -2.974  1.00  0.00    -0.273 OA
HETATM    4  H   UNL     1       3.289  -1.815  -0.891  1.00  0.00     0.162 HD
ENDROOT
BRANCH   1   5
HETATM    5  C   UNL     1       2.495   0.069  -0.274  1.00  0.00     0.082 C 
HETATM    6  C   UNL     1       0.977   0.055  -0.480  1.00  0.00     0.032 C 
BRANCH   5   7
HETATM    7  C   UNL     1       2.819  -0.274   1.188  1.00  0.00     0.055 C 
BRANCH   7   8
HETATM    8  C   UNL     1       4.318  -0.190   1.521  1.00  0.00     0.274 C 
BRANCH   8   9
HETATM    9  N   UNL     1       4.586  -0.630   2.902  1.00  0.00     0.092 N 
HETATM   10  C   UNL     1       4.062   0.292   3.935  1.00  0.00     0.298 C 
HETATM   11  C   UNL     1       4.870   1.590   4.081  1.00  0.00     0.198 C 
HETATM   12  O   UNL     1       6.239   1.304   4.391  1.00  0.00    -0.388 OA
HETATM   13  C   UNL     1       6.825   0.487   3.370  1.00  0.00     0.198 C 
HETATM   14  C   UNL     1       6.035  -0.815   3.151  1.00  0.00     0.298 C 
ENDBRANCH   8   9
ENDBRANCH   7   8
ENDBRANCH   5   7
ENDBRANCH   1   5
BRANCH   2  15
HETATM   15  C   UNL     1       4.086  -1.613  -3.303  1.00  0.00     0.142 C 
BRANCH  15  16
HETATM   16  C   UNL     1       5.579  -1.621  -3.123  1.00  0.00    -0.034 A 
HETATM   17  C   UNL     1       6.249  -2.738  -2.617  1.00  0.00     0.010 A 
HETATM   18  C   UNL     1       7.632  -2.703  -2.468  1.00  0.00     0.018 A 
HETATM   19  C   UNL     1       8.304  -1.550  -2.834  1.00  0.00     0.087 A 
HETATM   20  N   UNL     1       7.694  -0.453  -3.332  1.00  0.00    -0.375 N 
HETATM   21  C   UNL     1       6.350  -0.513  -3.469  1.00  0.00     0.095 A 
ATOM     22  HN  UNL     1       8.221   0.380  -3.592  1.00  0.00     0.164 HD
ENDBRANCH  15  16
ENDBRANCH   2  15
TORSDOF 6
