REMARK  5 active torsions:
REMARK  status: ('A' for Active; 'I' for Inactive)
REMARK    1  A    between atoms: N_7  and  C_8 
REMARK    2  A    between atoms: C_8  and  C_9 
REMARK    3  A    between atoms: C_9  and  N_10 
REMARK       I    between atoms: N_10  and  C_11 
REMARK    4  A    between atoms: C_11  and  C_13 
REMARK    5  A    between atoms: C_13  and  N_14 
ROOT
HETATM    1  N   UNL     1       2.937  -4.818  -3.995  1.00  0.00    -0.358 N 
HETATM    2  C   UNL     1       2.167  -5.897  -3.626  1.00  0.00     0.237 C 
HETATM    3  O   UNL     1       1.124  -5.787  -2.984  1.00  0.00    -0.272 OA
HETATM    4  H   UNL     1       3.802  -4.950  -4.506  1.00  0.00     0.162 HD
ENDROOT
BRANCH   1   5
HETATM    5  C   UNL     1       2.551  -3.457  -3.663  1.00  0.00     0.152 C 
BRANCH   5   6
HETATM    6  C   UNL     1       3.039  -3.001  -2.271  1.00  0.00     0.292 C 
BRANCH   6   7
HETATM    7  N   UNL     1       2.595  -1.638  -1.911  1.00  0.00     0.090 N 
HETATM    8  C   UNL     1       3.109  -0.620  -2.839  1.00  0.00     0.276 C 
HETATM    9  C   UNL     1       2.597   0.787  -2.497  1.00  0.00     0.010 C 
HETATM   10  C   UNL     1       2.935   1.145  -1.046  1.00  0.00     0.012 C 
HETATM   11  C   UNL     1       3.177   1.811  -3.470  1.00  0.00     0.011 C 
HETATM   12  C   UNL     1       2.455   0.057  -0.075  1.00  0.00     0.010 C 
HETATM   13  C   UNL     1       0.929   0.060   0.069  1.00  0.00     0.011 C 
HETATM   14  C   UNL     1       2.979  -1.320  -0.524  1.00  0.00     0.276 C 
ENDBRANCH   6   7
ENDBRANCH   5   6
ENDBRANCH   1   5
BRANCH   2  15
HETATM   15  C   UNL     1       2.676  -7.238  -4.098  1.00  0.00     0.249 C 
BRANCH  15  16
HETATM   16  N   UNL     1       2.862  -8.137  -2.990  1.00  0.00    -0.264 N 
HETATM   17  C   UNL     1       1.937  -8.657  -2.143  1.00  0.00     0.213 A 
HETATM   18  N   UNL     1       2.548  -9.482  -1.324  1.00  0.00    -0.281 N 
HETATM   19  N   UNL     1       3.874  -9.462  -1.687  1.00  0.00    -0.008 NA
ATOM     20  HN  UNL     1       2.125 -10.026  -0.572  1.00  0.00     0.184 HD
HETATM   21  N   UNL     1       4.074  -8.645  -2.712  1.00  0.00    -0.005 NA
ENDBRANCH  15  16
ENDBRANCH   2  15
TORSDOF 5
