REMARK  4 active torsions:
REMARK  status: ('A' for Active; 'I' for Inactive)
REMARK    1  A    between atoms: C_5  and  C_6 
REMARK    2  A    between atoms: C_6  and  C_7 
REMARK    3  A    between atoms: C_7  and  N_8 
REMARK       I    between atoms: N_8  and  C_9 
REMARK       I    between atoms: C_9  and  N_11 
REMARK    4  A    between atoms: N_11  and  C_12 
ROOT
HETATM    1  N   UNL     1       8.665  -1.711  -0.684  1.00  0.00    -0.343 N 
HETATM    2  C   UNL     1       9.290  -2.851  -1.140  1.00  0.00     0.316 C 
HETATM    3  O   UNL     1       8.752  -3.759  -1.758  1.00  0.00    -0.247 OA
HETATM    4  N   UNL     1      10.602  -2.799  -0.788  1.00  0.00    -0.338 N 
HETATM    5  H   UNL     1       9.247  -0.892  -0.589  1.00  0.00     0.164 HD
HETATM    6  H   UNL     1      10.786  -2.128  -0.060  1.00  0.00     0.164 HD
ENDROOT
BRANCH   1   7
HETATM    7  C   UNL     1       7.242  -1.483  -0.790  1.00  0.00     0.129 C 
BRANCH   7   8
HETATM    8  C   UNL     1       6.521  -1.997   0.456  1.00  0.00     0.060 C 
BRANCH   8   9
HETATM    9  C   UNL     1       5.041  -1.760   0.382  1.00  0.00    -0.041 A 
HETATM   10  C   UNL     1       4.199  -2.675  -0.250  1.00  0.00     0.010 A 
HETATM   11  C   UNL     1       2.829  -2.437  -0.288  1.00  0.00     0.025 A 
HETATM   12  C   UNL     1       2.331  -1.280   0.300  1.00  0.00     0.005 A 
HETATM   13  C   UNL     1       0.856  -1.019   0.349  1.00  0.00     0.068 C 
HETATM   14  N   UNL     1       3.131  -0.361   0.897  1.00  0.00    -0.369 N 
HETATM   15  C   UNL     1       4.457  -0.620   0.921  1.00  0.00     0.095 A 
ATOM     16  HN  UNL     1       2.748   0.489   1.310  1.00  0.00     0.165 HD
ENDBRANCH   8   9
ENDBRANCH   7   8
ENDBRANCH   1   7
BRANCH   4  17
HETATM   17  C   UNL     1      11.705  -3.651  -1.218  1.00  0.00     0.091 C 
HETATM   18  C   UNL     1      12.840  -3.487  -0.210  1.00  0.00     0.051 C 
HETATM   19  C   UNL     1      13.387  -2.063  -0.273  1.00  0.00     0.171 C 
HETATM   20  O   UNL     1      13.811  -1.693  -1.575  1.00  0.00    -0.380 OA
HETATM   21  C   UNL     1      12.898  -1.887  -2.668  1.00  0.00     0.062 C 
HETATM   22  C   UNL     1      13.790  -1.715  -3.925  1.00  0.00     0.038 C 
HETATM   23  C   UNL     1      11.786  -0.816  -2.751  1.00  0.00     0.038 C 
HETATM   24  C   UNL     1      12.270  -3.300  -2.611  1.00  0.00     0.063 C 
HETATM   25  C   UNL     1      14.333  -0.279  -4.056  1.00  0.00     0.003 C 
HETATM   26  C   UNL     1      13.221   0.765  -4.060  1.00  0.00     0.000 C 
HETATM   27  C   UNL     1      12.307   0.607  -2.858  1.00  0.00     0.003 C 
ENDBRANCH   4  17
TORSDOF 4
