REMARK  6 active torsions:
REMARK  status: ('A' for Active; 'I' for Inactive)
REMARK    1  A    between atoms: N_1  and  C_11 
REMARK    2  A    between atoms: N_2  and  C_15 
REMARK       I    between atoms: N_4  and  C_10 
REMARK    3  A    between atoms: C_10  and  C_11 
REMARK    4  A    between atoms: C_12  and  C_22 
REMARK    5  A    between atoms: C_13  and  C_17 
REMARK    6  A    between atoms: C_25  and  O_28 
ROOT
HETATM    1  N   UNL     1      -3.563   0.733  -0.020  1.00  0.00    -0.250 N 
HETATM    2  N   UNL     1      -3.058  -0.361  -0.709  1.00  0.00    -0.298 N 
ATOM      3  HN  UNL     1      -2.276  -0.379  -1.364  1.00  0.00     0.187 HD
HETATM    4  C   UNL     1      -3.002   1.994   0.056  1.00  0.00     0.257 C 
HETATM    5  C   UNL     1      -3.809  -1.363  -0.331  1.00  0.00     0.038 C 
HETATM    6  C   UNL     1      -4.866   0.442   0.589  1.00  0.00     0.150 C 
HETATM    7  C   UNL     1      -4.744  -1.050   0.812  1.00  0.00     0.091 C 
HETATM    8  O   UNL     1      -3.612   2.913   0.615  1.00  0.00    -0.270 OA
ENDROOT
BRANCH   4   9
HETATM    9  C   UNL     1      -1.603   2.238  -0.522  1.00  0.00     0.242 C 
BRANCH   9  10
HETATM   10  N   UNL     1      -0.473   1.873   0.336  1.00  0.00    -0.255 N 
HETATM   11  C   UNL     1      -0.478   2.298   1.660  1.00  0.00     0.334 C 
HETATM   12  N   UNL     1       0.541   1.766   2.459  1.00  0.00    -0.279 N 
HETATM   13  O   UNL     1      -1.325   3.046   2.139  1.00  0.00    -0.246 OA
HETATM   14  C   UNL     1       1.692   1.252   1.907  1.00  0.00     0.146 C 
HETATM   15  C   UNL     1       1.838   1.181   0.587  1.00  0.00     0.200 C 
HETATM   16  C   UNL     1       0.717   1.551  -0.305  1.00  0.00     0.292 C 
HETATM   17  F   UNL     1       2.980   0.760   0.014  1.00  0.00    -0.199 F 
HETATM   18  O   UNL     1       0.884   1.590  -1.521  1.00  0.00    -0.264 OA
BRANCH  12  19
HETATM   19  C   UNL     1       0.282   1.746   3.894  1.00  0.00     0.232 C 
HETATM   20  O   UNL     1       1.390   1.195   4.630  1.00  0.00    -0.366 OA
HETATM   21  C   UNL     1       0.903   0.166   5.502  1.00  0.00     0.170 C 
HETATM   22  C   UNL     1      -0.598   0.298   5.565  1.00  0.00     0.031 C 
HETATM   23  C   UNL     1      -0.923   0.857   4.210  1.00  0.00     0.056 C 
ENDBRANCH  12  19
ENDBRANCH   9  10
ENDBRANCH   4   9
BRANCH   6  24
HETATM   24  C   UNL     1      -6.078   0.794  -0.274  1.00  0.00    -0.033 A 
HETATM   25  C   UNL     1      -5.972   1.263  -1.591  1.00  0.00     0.012 A 
HETATM   26  C   UNL     1      -7.110   1.655  -2.305  1.00  0.00     0.037 A 
HETATM   27  C   UNL     1      -8.380   1.561  -1.737  1.00  0.00     0.068 A 
HETATM   28  C   UNL     1      -8.507   1.053  -0.447  1.00  0.00     0.037 A 
HETATM   29  C   UNL     1      -7.367   0.677   0.277  1.00  0.00     0.012 A 
BRANCH  27  30
HETATM   30  O   UNL     1      -9.394   2.051  -2.512  1.00  0.00    -0.356 OA
HETATM   31  C   UNL     1     -10.702   1.565  -2.245  1.00  0.00     0.210 C 
ENDBRANCH  27  30
ENDBRANCH   6  24
BRANCH   5  32
HETATM   32  C   UNL     1      -3.828  -2.723  -0.907  1.00  0.00    -0.012 A 
HETATM   33  C   UNL     1      -4.075  -3.826  -0.076  1.00  0.00     0.013 A 
HETATM   34  C   UNL     1      -4.244  -5.097  -0.629  1.00  0.00     0.001 A 
HETATM   35  C   UNL     1      -4.171  -5.272  -2.007  1.00  0.00     0.000 A 
HETATM   36  C   UNL     1      -3.920  -4.172  -2.831  1.00  0.00     0.001 A 
HETATM   37  C   UNL     1      -3.746  -2.900  -2.288  1.00  0.00     0.013 A 
ENDBRANCH   5  32
TORSDOF 6
