REMARK  5 active torsions:
REMARK  status: ('A' for Active; 'I' for Inactive)
REMARK    1  A    between atoms: N_2  and  C_3 
REMARK    2  A    between atoms: N_2  and  C_15 
REMARK    3  A    between atoms: C_3  and  C_4 
REMARK    4  A    between atoms: C_4  and  N_5 
REMARK       I    between atoms: N_5  and  C_6 
REMARK       I    between atoms: C_6  and  N_8 
REMARK    5  A    between atoms: N_8  and  C_9 
ROOT
HETATM    1  N   UNL     1       3.998   0.476  -3.468  1.00  0.00    -0.341 N 
HETATM    2  C   UNL     1       5.228   0.568  -4.068  1.00  0.00     0.320 C 
HETATM    3  O   UNL     1       6.276   0.546  -3.436  1.00  0.00    -0.247 OA
HETATM    4  N   UNL     1       5.108   0.656  -5.436  1.00  0.00    -0.306 N 
HETATM    5  H   UNL     1       3.296   1.075  -3.878  1.00  0.00     0.164 HD
HETATM    6  H   UNL     1       4.234   0.360  -5.843  1.00  0.00     0.171 HD
ENDROOT
BRANCH   1   7
HETATM    7  C   UNL     1       3.940   0.317  -2.019  1.00  0.00     0.154 C 
BRANCH   7   8
HETATM    8  C   UNL     1       2.492   0.196  -1.531  1.00  0.00     0.292 C 
BRANCH   8   9
HETATM    9  N   UNL     1       2.302  -0.021  -0.084  1.00  0.00     0.090 N 
HETATM   10  C   UNL     1       0.899  -0.343   0.151  1.00  0.00     0.310 C 
BRANCH   9  11
HETATM   11  C   UNL     1       2.924   1.012   0.780  1.00  0.00     0.222 C 
HETATM   12  C   UNL     1       2.852   0.746   2.298  1.00  0.00     0.036 C 
HETATM   13  C   UNL     1       1.546   1.142   2.981  1.00  0.00     0.002 C 
HETATM   14  C   UNL     1       0.968   2.485   2.539  1.00  0.00     0.000 C 
HETATM   15  C   UNL     1       1.168   2.862   1.074  1.00  0.00     0.002 C 
HETATM   16  C   UNL     1       2.536   2.481   0.529  1.00  0.00     0.036 C 
ENDBRANCH   9  11
ENDBRANCH   8   9
ENDBRANCH   7   8
ENDBRANCH   1   7
BRANCH   4  17
HETATM   17  C   UNL     1       6.198   0.775  -6.273  1.00  0.00     0.070 A 
HETATM   18  C   UNL     1       7.538   1.128  -6.002  1.00  0.00     0.138 A 
HETATM   19  N   UNL     1       8.302   1.099  -7.098  1.00  0.00    -0.310 N 
HETATM   20  N   UNL     1       7.454   0.707  -8.061  1.00  0.00    -0.310 N 
ATOM     21  HN  UNL     1       9.294   1.322  -7.182  1.00  0.00     0.186 HD
HETATM   22  C   UNL     1       6.169   0.543  -7.627  1.00  0.00     0.138 A 
HETATM   23  H   UNL     1       7.826   0.567  -8.994  1.00  0.00     0.186 HD
ENDBRANCH   4  17
TORSDOF 5
