REMARK  7 active torsions:
REMARK  status: ('A' for Active; 'I' for Inactive)
REMARK    1  A    between atoms: N_2  and  C_3 
REMARK    2  A    between atoms: N_2  and  C_19 
REMARK    3  A    between atoms: C_3  and  C_4 
REMARK    4  A    between atoms: C_4  and  O_5 
REMARK    5  A    between atoms: C_4  and  C_6 
REMARK    6  A    between atoms: C_6  and  N_7 
REMARK    7  A    between atoms: C_19  and  C_20 
ROOT
HETATM    1  C   UNL     1       2.316   2.414  -0.691  1.00  0.00     0.164 C 
ENDROOT
BRANCH   1   2
HETATM    2  C   UNL     1       2.894   1.369   0.299  1.00  0.00     0.305 C 
BRANCH   2   3
HETATM    3  N   UNL     1       2.315   0.008   0.220  1.00  0.00     0.090 N 
HETATM    4  C   UNL     1       2.868  -0.808   1.315  1.00  0.00     0.310 C 
BRANCH   3   5
HETATM    5  C   UNL     1       2.572  -0.619  -1.094  1.00  0.00     0.313 C 
BRANCH   5   6
HETATM    6  C   UNL     1       1.900  -1.949  -1.198  1.00  0.00     0.004 A 
HETATM    7  C   UNL     1       2.505  -3.204  -1.448  1.00  0.00     0.117 A 
HETATM    8  N   UNL     1       1.629  -4.212  -1.435  1.00  0.00    -0.310 N 
HETATM    9  N   UNL     1       0.456  -3.606  -1.181  1.00  0.00    -0.308 N 
ATOM     10  HN  UNL     1       1.807  -5.205  -1.583  1.00  0.00     0.186 HD
HETATM   11  C   UNL     1      -0.742  -4.390  -1.004  1.00  0.00     0.177 C 
HETATM   12  C   UNL     1       0.558  -2.252  -1.067  1.00  0.00     0.120 A 
ENDBRANCH   5   6
ENDBRANCH   3   5
ENDBRANCH   2   3
ENDBRANCH   1   2
BRANCH   1  13
HETATM   13  O   UNL     1       0.897   2.528  -0.541  1.00  0.00    -0.392 OA
HETATM   14  H   UNL     1       0.666   2.340   0.386  1.00  0.00     0.210 HD
ENDBRANCH   1  13
BRANCH   1  15
HETATM   15  C   UNL     1       2.958   3.785  -0.430  1.00  0.00     0.163 C 
BRANCH  15  16
HETATM   16  N   UNL     1       2.579   4.776  -1.413  1.00  0.00    -0.339 N 
HETATM   17  C   UNL     1       1.510   5.637  -1.289  1.00  0.00     0.184 A 
HETATM   18  N   UNL     1       1.418   6.437  -2.327  1.00  0.00    -0.350 N 
HETATM   19  C   UNL     1       2.446   6.069  -3.162  1.00  0.00     0.060 A 
ATOM     20  HN  UNL     1       0.730   7.174  -2.481  1.00  0.00     0.166 HD
HETATM   21  C   UNL     1       2.798   6.580  -4.419  1.00  0.00     0.039 A 
HETATM   22  C   UNL     1       3.202   5.038  -2.609  1.00  0.00     0.062 A 
HETATM   23  C   UNL     1       3.907   6.047  -5.108  1.00  0.00    -0.054 A 
HETATM   24  C   UNL     1       4.245   6.617  -6.459  1.00  0.00     0.049 C 
HETATM   25  C   UNL     1       4.667   5.011  -4.520  1.00  0.00    -0.054 A 
HETATM   26  C   UNL     1       5.877   4.411  -5.191  1.00  0.00     0.049 C 
HETATM   27  C   UNL     1       4.311   4.489  -3.257  1.00  0.00     0.039 A 
ENDBRANCH  15  16
ENDBRANCH   1  15
TORSDOF 7
