REMARK  6 active torsions:
REMARK  status: ('A' for Active; 'I' for Inactive)
REMARK    1  A    between atoms: C_2  and  N_3 
REMARK    2  A    between atoms: C_2  and  C_9 
REMARK    3  A    between atoms: N_3  and  C_4 
REMARK    4  A    between atoms: C_4  and  C_5 
REMARK    5  A    between atoms: C_5  and  C_6 
REMARK       I    between atoms: C_6  and  N_8 
REMARK    6  A    between atoms: C_9  and  N_11 
ROOT
HETATM    1  C   UNL     1       0.889   0.120  -0.097  1.00  0.00     0.045 C 
HETATM    2  C   UNL     1       2.420   0.034   0.028  1.00  0.00     0.240 C 
ENDROOT
BRANCH   2   3
HETATM    3  N   UNL     1       2.810   0.046   1.462  1.00  0.00     0.090 N 
HETATM    4  H   UNL     1       2.446   0.893   1.899  1.00  0.00     0.316 HD
BRANCH   3   5
HETATM    5  C   UNL     1       2.381  -1.133   2.219  1.00  0.00     0.279 C 
BRANCH   5   6
HETATM    6  C   UNL     1       2.901  -1.094   3.653  1.00  0.00     0.132 C 
BRANCH   6   7
HETATM    7  C   UNL     1       2.441  -2.331   4.394  1.00  0.00     0.216 C 
HETATM    8  O   UNL     1       1.752  -3.222   3.909  1.00  0.00    -0.274 OA
HETATM    9  N   UNL     1       2.846  -2.397   5.693  1.00  0.00    -0.370 N 
HETATM   10  H   UNL     1       3.490  -1.738   6.105  1.00  0.00     0.159 HD
HETATM   11  H   UNL     1       2.588  -3.224   6.218  1.00  0.00     0.159 HD
ENDBRANCH   6   7
ENDBRANCH   5   6
ENDBRANCH   3   5
ENDBRANCH   2   3
BRANCH   2  12
HETATM   12  C   UNL     1       3.022  -1.141  -0.808  1.00  0.00     0.136 C 
HETATM   13  C   UNL     1       2.623  -1.113  -2.288  1.00  0.00     0.036 C 
BRANCH  12  14
HETATM   14  N   UNL     1       4.481  -1.202  -0.694  1.00  0.00    -0.297 N 
HETATM   15  C   UNL     1       5.211  -2.237  -0.175  1.00  0.00     0.112 A 
HETATM   16  C   UNL     1       6.531  -1.884  -0.312  1.00  0.00     0.037 A 
HETATM   17  C   UNL     1       6.499  -0.629  -0.945  1.00  0.00     0.108 A 
HETATM   18  N   UNL     1       5.255  -0.220  -1.207  1.00  0.00    -0.310 N 
ATOM     19  HN  UNL     1       4.959   0.633  -1.682  1.00  0.00     0.186 HD
ENDBRANCH  12  14
ENDBRANCH   2  12
TORSDOF 6
