REMARK  7 active torsions:
REMARK  status: ('A' for Active; 'I' for Inactive)
REMARK       I    between atoms: C_2  and  N_4 
REMARK    1  A    between atoms: N_4  and  C_5 
REMARK    2  A    between atoms: C_5  and  C_6 
REMARK    3  A    between atoms: C_6  and  C_7 
REMARK    4  A    between atoms: N_16  and  C_17 
REMARK    5  A    between atoms: C_17  and  C_18 
REMARK    6  A    between atoms: C_18  and  O_19 
REMARK    7  A    between atoms: O_19  and  C_20 
ROOT
HETATM    1  C   UNL     1       6.678  -1.739   2.104  1.00  0.00     0.086 A 
HETATM    2  N   UNL     1       7.383  -2.721   1.579  1.00  0.00    -0.344 N 
ATOM      3  HN  UNL     1       7.022  -3.562   1.128  1.00  0.00     0.167 HD
HETATM    4  C   UNL     1       8.694  -2.386   1.760  1.00  0.00     0.060 A 
HETATM    5  C   UNL     1       9.840  -3.114   1.402  1.00  0.00     0.032 A 
HETATM    6  C   UNL     1      11.105  -2.586   1.677  1.00  0.00     0.002 A 
HETATM    7  C   UNL     1      11.224  -1.346   2.292  1.00  0.00     0.002 A 
HETATM    8  C   UNL     1      10.093  -0.607   2.655  1.00  0.00     0.032 A 
HETATM    9  C   UNL     1       8.818  -1.143   2.386  1.00  0.00     0.062 A 
HETATM   10  N   UNL     1       7.508  -0.739   2.598  1.00  0.00    -0.333 N 
ENDROOT
BRANCH  10  11
HETATM   11  C   UNL     1       7.004   0.480   3.223  1.00  0.00     0.157 C 
BRANCH  11  12
HETATM   12  C   UNL     1       8.058   1.422   3.783  1.00  0.00     0.196 C 
BRANCH  12  13
HETATM   13  O   UNL     1       7.497   2.578   4.413  1.00  0.00    -0.350 OA
BRANCH  13  14
HETATM   14  C   UNL     1       8.466   3.457   4.848  1.00  0.00     0.068 A 
HETATM   15  C   UNL     1       8.130   4.809   4.828  1.00  0.00     0.037 A 
HETATM   16  C   UNL     1       9.066   5.776   5.217  1.00  0.00     0.009 A 
HETATM   17  C   UNL     1      10.345   5.398   5.642  1.00  0.00    -0.062 A 
HETATM   18  C   UNL     1      11.369   6.415   6.051  1.00  0.00     0.048 C 
HETATM   19  C   UNL     1      10.665   4.040   5.698  1.00  0.00     0.009 A 
HETATM   20  C   UNL     1       9.731   3.077   5.311  1.00  0.00     0.037 A 
ENDBRANCH  13  14
ENDBRANCH  12  13
ENDBRANCH  11  12
ENDBRANCH  10  11
BRANCH   1  21
HETATM   21  C   UNL     1       5.181  -1.701   2.141  1.00  0.00     0.096 C 
BRANCH  21  22
HETATM   22  C   UNL     1       4.588  -3.113   2.184  1.00  0.00     0.130 C 
BRANCH  22  23
HETATM   23  N   UNL     1       3.134  -3.105   2.234  1.00  0.00    -0.361 N 
HETATM   24  C   UNL     1       2.450  -3.025   3.425  1.00  0.00     0.213 C 
HETATM   25  C   UNL     1       0.957  -3.107   3.266  1.00  0.00     0.117 C 
HETATM   26  O   UNL     1       2.993  -2.901   4.517  1.00  0.00    -0.274 OA
HETATM   27  H   UNL     1       2.621  -3.139   1.363  1.00  0.00     0.162 HD
ENDBRANCH  22  23
ENDBRANCH  21  22
ENDBRANCH   1  21
TORSDOF 7
