REMARK  8 active torsions:
REMARK  status: ('A' for Active; 'I' for Inactive)
REMARK    1  A    between atoms: N_2  and  C_9 
REMARK    2  A    between atoms: C_4  and  N_7 
REMARK    3  A    between atoms: C_14  and  C_15 
REMARK    4  A    between atoms: C_15  and  C_17 
REMARK    5  A    between atoms: C_16  and  C_26 
REMARK    6  A    between atoms: C_16  and  C_27 
REMARK       I    between atoms: C_17  and  N_23 
REMARK    7  A    between atoms: C_26  and  O_28 
REMARK    8  A    between atoms: C_27  and  O_29 
ROOT
HETATM    1  C   UNL     1       0.352  -0.660  -0.067  1.00  0.00     0.122 A 
HETATM    2  N   UNL     1       1.613   1.127   0.004  1.00  0.00    -0.322 N 
HETATM    3  C   UNL     1       0.297   0.733  -0.090  1.00  0.00     0.140 A 
HETATM    4  C   UNL     1      -0.867  -1.389  -0.153  1.00  0.00     0.136 A 
HETATM    5  N   UNL     1       1.660  -1.092   0.063  1.00  0.00    -0.346 N 
ATOM      6  HN  UNL     1       1.991  -2.055   0.118  1.00  0.00     0.167 HD
HETATM    7  C   UNL     1       2.381  -0.002   0.100  1.00  0.00     0.185 A 
HETATM    8  N   UNL     1      -0.809   1.490  -0.177  1.00  0.00    -0.336 N 
ATOM      9  HN  UNL     1      -0.814   2.510  -0.197  1.00  0.00     0.168 HD
HETATM   10  N   UNL     1      -2.003  -0.637  -0.224  1.00  0.00    -0.337 N 
ATOM     11  HN  UNL     1      -2.916  -1.090  -0.269  1.00  0.00     0.168 HD
HETATM   12  C   UNL     1      -1.913   0.715  -0.235  1.00  0.00     0.183 A 
ENDROOT
BRANCH   4  13
HETATM   13  N   UNL     1      -0.951  -2.782  -0.113  1.00  0.00    -0.356 N 
HETATM   14  C   UNL     1      -2.287  -3.439  -0.163  1.00  0.00     0.118 C 
HETATM   15  C   UNL     1      -2.131  -4.853   0.466  1.00  0.00     0.193 C 
HETATM   16  O   UNL     1      -1.150  -5.631  -0.246  1.00  0.00    -0.387 OA
HETATM   17  C   UNL     1       0.137  -5.009  -0.127  1.00  0.00     0.187 C 
HETATM   18  C   UNL     1       0.151  -3.578  -0.686  1.00  0.00     0.151 C 
BRANCH  14  19
HETATM   19  C   UNL     1      -2.796  -3.553  -1.610  1.00  0.00     0.130 C 
BRANCH  19  20
HETATM   20  C   UNL     1      -4.161  -4.196  -1.667  1.00  0.00     0.217 C 
HETATM   21  O   UNL     1      -5.026  -4.060  -0.811  1.00  0.00    -0.274 OA
HETATM   22  N   UNL     1      -4.398  -4.941  -2.788  1.00  0.00    -0.370 N 
HETATM   23  H   UNL     1      -3.642  -5.279  -3.368  1.00  0.00     0.159 HD
HETATM   24  H   UNL     1      -5.272  -5.450  -2.816  1.00  0.00     0.159 HD
ENDBRANCH  19  20
ENDBRANCH  14  19
ENDBRANCH   4  13
BRANCH   2  25
HETATM   25  C   UNL     1       2.240   2.417   0.024  1.00  0.00     0.094 C 
HETATM   26  C   UNL     1       1.727   3.400   1.115  1.00  0.00     0.039 C 
HETATM   27  C   UNL     1       2.092   4.554   0.111  1.00  0.00     0.006 C 
HETATM   28  C   UNL     1       1.751   3.479  -0.993  1.00  0.00     0.039 C 
BRANCH  27  29
HETATM   29  C   UNL     1       1.149   5.757   0.186  1.00  0.00     0.175 C 
BRANCH  29  30
HETATM   30  O   UNL     1       1.277   6.552  -0.988  1.00  0.00    -0.400 OA
HETATM   31  H   UNL     1       2.225   6.777  -1.084  1.00  0.00     0.209 HD
ENDBRANCH  29  30
ENDBRANCH  27  29
BRANCH  27  32
HETATM   32  C   UNL     1       3.563   5.003   0.215  1.00  0.00     0.175 C 
BRANCH  32  33
HETATM   33  O   UNL     1       3.946   5.672  -0.983  1.00  0.00    -0.400 OA
HETATM   34  H   UNL     1       4.160   4.989  -1.646  1.00  0.00     0.209 HD
ENDBRANCH  32  33
ENDBRANCH  27  32
ENDBRANCH   2  25
TORSDOF 8
