REMARK  4 active torsions:
REMARK  status: ('A' for Active; 'I' for Inactive)
REMARK    1  A    between atoms: C_5  and  C_6 
REMARK    2  A    between atoms: C_6  and  C_7 
REMARK    3  A    between atoms: C_7  and  N_8 
REMARK       I    between atoms: N_8  and  C_9 
REMARK       I    between atoms: C_9  and  N_11 
REMARK    4  A    between atoms: N_11  and  C_12 
ROOT
HETATM    1  N   UNL     1       5.907  -4.679   0.380  1.00  0.00    -0.343 N 
HETATM    2  C   UNL     1       5.474  -5.976   0.301  1.00  0.00     0.316 C 
HETATM    3  O   UNL     1       4.298  -6.303   0.230  1.00  0.00    -0.247 OA
HETATM    4  N   UNL     1       6.524  -6.847   0.357  1.00  0.00    -0.339 N 
HETATM    5  H   UNL     1       6.867  -4.479   0.122  1.00  0.00     0.164 HD
HETATM    6  H   UNL     1       7.435  -6.447   0.200  1.00  0.00     0.164 HD
ENDROOT
BRANCH   1   7
HETATM    7  C   UNL     1       5.008  -3.550   0.230  1.00  0.00     0.130 C 
BRANCH   7   8
HETATM    8  C   UNL     1       5.544  -2.298   0.929  1.00  0.00     0.079 C 
BRANCH   8   9
HETATM    9  C   UNL     1       6.831  -1.793   0.364  1.00  0.00     0.042 A 
HETATM   10  N   UNL     1       7.773  -2.657  -0.162  1.00  0.00    -0.342 N 
HETATM   11  C   UNL     1       8.754  -1.867  -0.545  1.00  0.00     0.120 A 
ATOM     12  HN  UNL     1       7.720  -3.673  -0.236  1.00  0.00     0.167 HD
HETATM   13  C   UNL     1      10.027  -2.230  -1.196  1.00  0.00     0.098 C 
HETATM   14  O   UNL     1       8.543  -0.540  -0.298  1.00  0.00    -0.301 OA
HETATM   15  C   UNL     1       7.308  -0.500   0.291  1.00  0.00     0.073 A 
HETATM   16  C   UNL     1       6.804   0.826   0.690  1.00  0.00     0.079 C 
ENDBRANCH   8   9
ENDBRANCH   7   8
ENDBRANCH   1   7
BRANCH   4  17
HETATM   17  C   UNL     1       6.423  -8.293   0.250  1.00  0.00     0.086 C 
HETATM   18  C   UNL     1       5.577  -8.960   1.341  1.00  0.00     0.025 C 
HETATM   19  C   UNL     1       5.724 -10.482   1.256  1.00  0.00     0.002 C 
HETATM   20  C   UNL     1       5.404 -11.023  -0.140  1.00  0.00     0.000 C 
HETATM   21  C   UNL     1       6.132 -10.269  -1.254  1.00  0.00     0.002 C 
HETATM   22  C   UNL     1       5.951  -8.757  -1.131  1.00  0.00     0.025 C 
ENDBRANCH   4  17
TORSDOF 4
