REMARK  6 active torsions:
REMARK  status: ('A' for Active; 'I' for Inactive)
REMARK    1  A    between atoms: C_2  and  N_3 
REMARK    2  A    between atoms: C_2  and  C_12 
REMARK    3  A    between atoms: N_3  and  C_4 
REMARK    4  A    between atoms: C_4  and  C_5 
REMARK    5  A    between atoms: C_5  and  O_6 
REMARK    6  A    between atoms: C_12  and  N_14 
ROOT
HETATM    1  C   UNL     1       0.864   0.143   0.092  1.00  0.00     0.045 C 
HETATM    2  C   UNL     1       2.401   0.156   0.033  1.00  0.00     0.240 C 
ENDROOT
BRANCH   2   3
HETATM    3  N   UNL     1       2.843  -0.834   1.046  1.00  0.00     0.092 N 
HETATM    4  H   UNL     1       2.537  -1.760   0.748  1.00  0.00     0.316 HD
BRANCH   3   5
HETATM    5  C   UNL     1       4.297  -0.868   1.279  1.00  0.00     0.307 C 
BRANCH   5   6
HETATM    6  C   UNL     1       4.691  -1.997   2.281  1.00  0.00     0.084 C 
HETATM    7  C   UNL     1       4.091  -1.807   3.688  1.00  0.00     0.039 C 
HETATM    8  C   UNL     1       4.757  -0.685   4.482  1.00  0.00     0.003 C 
HETATM    9  C   UNL     1       6.273  -0.846   4.538  1.00  0.00     0.000 C 
HETATM   10  C   UNL     1       6.884  -1.011   3.152  1.00  0.00     0.003 C 
HETATM   11  C   UNL     1       6.219  -2.148   2.383  1.00  0.00     0.039 C 
BRANCH   6  12
HETATM   12  O   UNL     1       4.195  -3.238   1.741  1.00  0.00    -0.388 OA
HETATM   13  H   UNL     1       3.240  -3.258   1.922  1.00  0.00     0.210 HD
ENDBRANCH   6  12
ENDBRANCH   5   6
ENDBRANCH   3   5
ENDBRANCH   2   3
BRANCH   2  14
HETATM   14  C   UNL     1       2.951  -0.086  -1.409  1.00  0.00     0.136 C 
HETATM   15  C   UNL     1       2.662  -1.488  -1.962  1.00  0.00     0.036 C 
BRANCH  14  16
HETATM   16  N   UNL     1       2.536   0.966  -2.343  1.00  0.00    -0.297 N 
HETATM   17  C   UNL     1       3.219   2.121  -2.621  1.00  0.00     0.118 A 
HETATM   18  C   UNL     1       2.519   2.760  -3.623  1.00  0.00    -0.028 A 
HETATM   19  C   UNL     1       2.837   4.035  -4.303  1.00  0.00     0.051 C 
HETATM   20  C   UNL     1       1.422   1.907  -3.871  1.00  0.00     0.115 A 
HETATM   21  N   UNL     1       1.426   0.824  -3.093  1.00  0.00    -0.309 N 
ATOM     22  HN  UNL     1       0.746   0.064  -3.071  1.00  0.00     0.186 HD
ENDBRANCH  14  16
ENDBRANCH   2  14
TORSDOF 6
