REMARK  6 active torsions:
REMARK  status: ('A' for Active; 'I' for Inactive)
REMARK       I    between atoms: N_2  and  C_3 
REMARK    1  A    between atoms: C_3  and  C_5 
REMARK    2  A    between atoms: C_5  and  S_6 
REMARK    3  A    between atoms: S_6  and  C_7 
REMARK    4  A    between atoms: N_16  and  C_17 
REMARK    5  A    between atoms: C_17  and  C_18 
REMARK    6  A    between atoms: C_18  and  O_19 
ROOT
HETATM    1  C   UNL     1       7.137   2.043   2.077  1.00  0.00     0.148 A 
HETATM    2  N   UNL     1       7.826   3.156   1.996  1.00  0.00    -0.335 N 
ATOM      3  HN  UNL     1       7.463   4.108   1.951  1.00  0.00     0.168 HD
HETATM    4  C   UNL     1       9.141   2.762   1.985  1.00  0.00     0.061 A 
HETATM    5  C   UNL     1      10.303   3.550   1.976  1.00  0.00     0.032 A 
HETATM    6  C   UNL     1      11.553   2.918   2.010  1.00  0.00     0.002 A 
HETATM    7  C   UNL     1      11.644   1.527   2.037  1.00  0.00     0.002 A 
HETATM    8  C   UNL     1      10.497   0.722   2.029  1.00  0.00     0.032 A 
HETATM    9  C   UNL     1       9.252   1.371   2.011  1.00  0.00     0.063 A 
HETATM   10  N   UNL     1       7.943   0.928   2.031  1.00  0.00    -0.324 N 
ENDROOT
BRANCH   1  11
HETATM   11  S   UNL     1       5.420   1.968   2.301  1.00  0.00    -0.084 SA
BRANCH  11  12
HETATM   12  C   UNL     1       4.903   3.524   1.527  1.00  0.00     0.185 C 
BRANCH  12  13
HETATM   13  C   UNL     1       3.393   3.657   1.652  1.00  0.00     0.226 C 
HETATM   14  N   UNL     1       2.974   4.312   2.795  1.00  0.00    -0.365 N 
HETATM   15  C   UNL     1       1.574   4.482   3.086  1.00  0.00     0.149 C 
HETATM   16  H   UNL     1       3.655   4.559   3.503  1.00  0.00     0.161 HD
HETATM   17  O   UNL     1       2.617   3.210   0.812  1.00  0.00    -0.273 OA
ENDBRANCH  12  13
ENDBRANCH  11  12
ENDBRANCH   1  11
BRANCH  10  18
HETATM   18  C   UNL     1       7.517  -0.459   2.067  1.00  0.00     0.157 C 
BRANCH  18  19
HETATM   19  C   UNL     1       6.768  -0.902   0.811  1.00  0.00     0.187 C 
BRANCH  19  20
HETATM   20  O   UNL     1       6.386  -2.273   0.953  1.00  0.00    -0.394 OA
HETATM   21  C   UNL     1       5.563  -2.694  -0.131  1.00  0.00     0.201 C 
ENDBRANCH  19  20
ENDBRANCH  18  19
ENDBRANCH  10  18
TORSDOF 6
