REMARK  6 active torsions:
REMARK  status: ('A' for Active; 'I' for Inactive)
REMARK    1  A    between atoms: C_2  and  C_3 
REMARK    2  A    between atoms: C_2  and  N_10 
REMARK    3  A    between atoms: C_3  and  N_4 
REMARK       I    between atoms: N_10  and  C_11 
REMARK    4  A    between atoms: C_11  and  C_13 
REMARK    5  A    between atoms: N_15  and  C_16 
REMARK    6  A    between atoms: C_16  and  C_17 
ROOT
HETATM    1  N   UNL     1       5.173   1.174  -0.070  1.00  0.00    -0.355 N 
HETATM    2  C   UNL     1       4.516   1.200   1.141  1.00  0.00     0.224 C 
HETATM    3  O   UNL     1       3.673   0.357   1.436  1.00  0.00    -0.273 OA
HETATM    4  H   UNL     1       6.004   1.739  -0.203  1.00  0.00     0.162 HD
ENDROOT
BRANCH   2   5
HETATM    5  C   UNL     1       4.968   2.282   2.106  1.00  0.00     0.104 C 
HETATM    6  C   UNL     1       4.047   2.337   3.323  1.00  0.00     0.140 C 
HETATM    7  N   UNL     1       4.001   3.732   3.686  1.00  0.00    -0.351 N 
HETATM    8  C   UNL     1       4.497   4.557   2.698  1.00  0.00     0.220 C 
HETATM    9  O   UNL     1       4.572   5.774   2.724  1.00  0.00    -0.273 OA
HETATM   10  C   UNL     1       4.917   3.698   1.532  1.00  0.00     0.118 C 
BRANCH   7  11
HETATM   11  C   UNL     1       3.376   4.205   4.904  1.00  0.00     0.130 C 
BRANCH  11  12
HETATM   12  C   UNL     1       1.905   4.471   4.739  1.00  0.00     0.004 A 
HETATM   13  C   UNL     1       1.333   5.521   3.812  1.00  0.00     0.007 A 
HETATM   14  C   UNL     1       1.354   5.767   5.291  1.00  0.00     0.007 A 
ENDBRANCH  11  12
ENDBRANCH   7  11
ENDBRANCH   2   5
BRANCH   1  15
HETATM   15  C   UNL     1       4.852   0.154  -1.084  1.00  0.00     0.100 C 
HETATM   16  C   UNL     1       5.219   0.680  -2.471  1.00  0.00     0.034 C 
BRANCH  15  17
HETATM   17  C   UNL     1       5.520  -1.194  -0.757  1.00  0.00     0.172 C 
BRANCH  17  18
HETATM   18  N   UNL     1       5.128  -2.268  -1.653  1.00  0.00    -0.302 N 
HETATM   19  C   UNL     1       4.061  -3.106  -1.513  1.00  0.00     0.111 A 
HETATM   20  C   UNL     1       4.108  -3.967  -2.587  1.00  0.00     0.037 A 
HETATM   21  C   UNL     1       5.248  -3.572  -3.310  1.00  0.00     0.108 A 
HETATM   22  N   UNL     1       5.880  -2.542  -2.739  1.00  0.00    -0.310 N 
ATOM     23  HN  UNL     1       6.731  -2.073  -3.051  1.00  0.00     0.186 HD
ENDBRANCH  17  18
ENDBRANCH  15  17
ENDBRANCH   1  15
TORSDOF 6
