REMARK  1 active torsions:
REMARK  status: ('A' for Active; 'I' for Inactive)
REMARK    1  A    between atoms: C_5  and  C_7 
ROOT
HETATM    1  C   UNL     1      -2.867  -0.064   0.327  1.00  0.00     0.017 A 
HETATM    2  C   UNL     1      -3.888   0.502  -0.417  1.00  0.00     0.042 A 
HETATM    3  C   UNL     1      -5.148   0.464   0.139  1.00  0.00     0.091 A 
HETATM    4  N   UNL     1      -5.415  -0.081   1.337  1.00  0.00    -0.362 N 
ATOM      5  HN  UNL     1      -6.357  -0.102   1.728  1.00  0.00     0.165 HD
HETATM    6  C   UNL     1      -4.360  -0.595   1.984  1.00  0.00     0.180 A 
HETATM    7  N   UNL     1      -3.091  -0.608   1.543  1.00  0.00    -0.355 N 
ATOM      8  HN  UNL     1      -2.335  -1.008   2.098  1.00  0.00     0.166 HD
ENDROOT
BRANCH   1   9
HETATM    9  C   UNL     1      -1.442  -0.029  -0.192  1.00  0.00     0.064 C 
HETATM   10  C   UNL     1      -0.622  -1.257   0.251  1.00  0.00     0.280 C 
HETATM   11  N   UNL     1       0.761  -1.202  -0.250  1.00  0.00     0.084 N 
HETATM   12  C   UNL     1       1.444   0.000   0.232  1.00  0.00     0.269 C 
HETATM   13  H   UNL     1       1.262  -2.025   0.085  1.00  0.00     0.315 HD
HETATM   14  C   UNL     1       0.716   1.267  -0.212  1.00  0.00     0.031 C 
HETATM   15  C   UNL     1      -0.740   1.263   0.248  1.00  0.00     0.014 C 
ENDBRANCH   1   9
TORSDOF 1
