REMARK  4 active torsions:
REMARK  status: ('A' for Active; 'I' for Inactive)
REMARK    1  A    between atoms: N_2  and  C_4 
REMARK    2  A    between atoms: N_9  and  C_10 
REMARK    3  A    between atoms: C_10  and  C_11 
REMARK       I    between atoms: C_11  and  N_13 
REMARK    4  A    between atoms: N_13  and  C_14 
ROOT
HETATM    1  C   UNL     1       2.787  -6.673  -2.580  1.00  0.00     0.236 C 
HETATM    2  O   UNL     1       2.838  -7.895  -2.710  1.00  0.00    -0.272 OA
HETATM    3  N   UNL     1       2.314  -6.035  -1.448  1.00  0.00    -0.350 N 
HETATM    4  H   UNL     1       2.525  -5.044  -1.359  1.00  0.00     0.163 HD
ENDROOT
BRANCH   1   5
HETATM    5  C   UNL     1       3.347  -5.749  -3.663  1.00  0.00     0.234 C 
BRANCH   5   6
HETATM    6  N   UNL     1       4.781  -5.528  -3.462  1.00  0.00    -0.314 N 
HETATM    7  C   UNL     1       5.173  -4.387  -2.767  1.00  0.00     0.247 A 
HETATM    8  C   UNL     1       6.639  -4.211  -2.565  1.00  0.00     0.077 A 
HETATM    9  O   UNL     1       4.392  -3.554  -2.311  1.00  0.00    -0.268 OA
HETATM   10  C   UNL     1       7.497  -5.168  -2.950  1.00  0.00     0.043 A 
HETATM   11  C   UNL     1       7.001  -6.363  -3.594  1.00  0.00     0.118 A 
HETATM   12  C   UNL     1       5.692  -6.509  -3.855  1.00  0.00     0.130 A 
BRANCH  11  13
HETATM   13  N   UNL     1       7.900  -7.454  -3.952  1.00  0.00    -0.114 N 
HETATM   14  O   UNL     1       7.585  -8.181  -4.904  1.00  0.00    -0.532 OA
HETATM   15  O   UNL     1       8.935  -7.569  -3.282  1.00  0.00    -0.532 OA
ENDBRANCH  11  13
ENDBRANCH   5   6
ENDBRANCH   1   5
BRANCH   3  16
HETATM   16  C   UNL     1       1.802  -6.736  -0.256  1.00  0.00     0.034 C 
HETATM   17  C   UNL     1       2.888  -7.648   0.371  1.00  0.00     0.035 C 
HETATM   18  C   UNL     1       2.355  -8.349   1.631  1.00  0.00    -0.012 C 
HETATM   19  C   UNL     1       1.125  -9.194   1.259  1.00  0.00     0.009 C 
HETATM   20  C   UNL     1       1.954  -7.288   2.666  1.00  0.00     0.009 C 
HETATM   21  C   UNL     1       0.020  -8.294   0.682  1.00  0.00    -0.012 C 
HETATM   22  C   UNL     1      -0.369  -7.242   1.733  1.00  0.00     0.009 C 
HETATM   23  C   UNL     1       0.547  -7.589  -0.583  1.00  0.00     0.035 C 
HETATM   24  C   UNL     1       0.854  -6.383   2.088  1.00  0.00    -0.012 C 
HETATM   25  C   UNL     1       1.379  -5.691   0.815  1.00  0.00     0.035 C 
ENDBRANCH   3  16
TORSDOF 4
