REMARK  4 active torsions:
REMARK  status: ('A' for Active; 'I' for Inactive)
REMARK       I    between atoms: N_1  and  C_2 
REMARK    1  A    between atoms: C_2  and  C_4 
REMARK    2  A    between atoms: N_6  and  C_7 
REMARK    3  A    between atoms: C_7  and  C_8 
REMARK    4  A    between atoms: C_8  and  O_9 
ROOT
HETATM    1  C   UNL     1       3.088  -1.150  -0.279  1.00  0.00     0.130 A 
HETATM    2  C   UNL     1       4.406  -1.249  -0.675  1.00  0.00     0.144 A 
HETATM    3  N   UNL     1       4.613  -2.586  -0.813  1.00  0.00    -0.282 N 
HETATM    4  N   UNL     1       3.506  -3.289  -0.512  1.00  0.00    -0.020 NA
HETATM    5  N   UNL     1       2.558  -2.418  -0.189  1.00  0.00    -0.278 N 
ATOM      6  HN  UNL     1       1.601  -2.648   0.080  1.00  0.00     0.184 HD
ENDROOT
BRANCH   1   7
HETATM    7  C   UNL     1       2.341   0.063  -0.000  1.00  0.00     0.268 C 
HETATM    8  N   UNL     1       1.036  -0.137   0.351  1.00  0.00    -0.365 N 
HETATM    9  H   UNL     1       0.458   0.666   0.552  1.00  0.00     0.159 HD
HETATM   10  H   UNL     1       0.649  -1.070   0.404  1.00  0.00     0.159 HD
HETATM   11  O   UNL     1       2.816   1.192  -0.071  1.00  0.00    -0.266 OA
ENDBRANCH   1   7
BRANCH   3  12
HETATM   12  C   UNL     1       5.821  -3.257  -1.242  1.00  0.00     0.172 C 
BRANCH  12  13
HETATM   13  C   UNL     1       5.618  -4.081  -2.508  1.00  0.00     0.185 C 
BRANCH  13  14
HETATM   14  O   UNL     1       5.283  -3.251  -3.618  1.00  0.00    -0.399 OA
HETATM   15  H   UNL     1       4.331  -3.048  -3.549  1.00  0.00     0.209 HD
ENDBRANCH  13  14
ENDBRANCH  12  13
ENDBRANCH   3  12
TORSDOF 4
