REMARK  7 active torsions:
REMARK  status: ('A' for Active; 'I' for Inactive)
REMARK    1  A    between atoms: O_2  and  C_3 
REMARK    2  A    between atoms: C_3  and  C_4 
REMARK    3  A    between atoms: C_4  and  N_5 
REMARK    4  A    between atoms: C_8  and  C_13 
REMARK       I    between atoms: C_13  and  N_15 
REMARK    5  A    between atoms: N_15  and  C_16 
REMARK    6  A    between atoms: C_16  and  C_17 
REMARK    7  A    between atoms: C_17  and  C_18 
ROOT
HETATM    1  N   UNL     1       4.573  -0.004   2.969  1.00  0.00    -0.255 N 
HETATM    2  N   UNL     1       4.678   1.245   3.578  1.00  0.00    -0.290 N 
ATOM      3  HN  UNL     1       3.966   1.964   3.453  1.00  0.00     0.187 HD
HETATM    4  C   UNL     1       5.731   1.445   4.313  1.00  0.00     0.116 A 
HETATM    5  C   UNL     1       6.816   0.470   4.531  1.00  0.00     0.042 A 
HETATM    6  C   UNL     1       6.666  -0.731   3.975  1.00  0.00     0.078 A 
HETATM    7  C   UNL     1       5.475  -1.049   3.163  1.00  0.00     0.262 A 
HETATM    8  O   UNL     1       5.356  -2.188   2.722  1.00  0.00    -0.267 OA
ENDROOT
BRANCH   4   9
HETATM    9  C   UNL     1       5.899   2.782   5.034  1.00  0.00     0.269 C 
HETATM   10  O   UNL     1       6.564   2.832   6.061  1.00  0.00    -0.266 OA
HETATM   11  N   UNL     1       5.266   3.860   4.453  1.00  0.00    -0.355 N 
HETATM   12  H   UNL     1       4.628   3.667   3.686  1.00  0.00     0.162 HD
BRANCH  11  13
HETATM   13  C   UNL     1       5.273   5.143   5.131  1.00  0.00     0.127 C 
BRANCH  13  14
HETATM   14  C   UNL     1       4.516   6.241   4.381  1.00  0.00     0.053 C 
BRANCH  14  15
HETATM   15  C   UNL     1       4.583   7.598   5.066  1.00  0.00    -0.082 A 
HETATM   16  C   UNL     1       5.127   8.658   4.452  1.00  0.00    -0.024 A 
HETATM   17  C   UNL     1       5.216  10.032   5.025  1.00  0.00     0.027 A 
HETATM   18  C   UNL     1       4.605  10.254   6.403  1.00  0.00     0.004 A 
HETATM   19  C   UNL     1       3.989   9.062   7.129  1.00  0.00     0.005 A 
HETATM   20  C   UNL     1       3.986   7.696   6.441  1.00  0.00     0.034 A 
ENDBRANCH  14  15
ENDBRANCH  13  14
ENDBRANCH  11  13
ENDBRANCH   4   9
BRANCH   1  21
HETATM   21  C   UNL     1       3.412  -0.220   2.105  1.00  0.00     0.178 C 
BRANCH  21  22
HETATM   22  C   UNL     1       3.364   0.754   0.927  1.00  0.00     0.189 C 
BRANCH  22  23
HETATM   23  O   UNL     1       4.504   0.566   0.083  1.00  0.00    -0.394 OA
HETATM   24  C   UNL     1       4.519   1.492  -0.994  1.00  0.00     0.201 C 
ENDBRANCH  22  23
ENDBRANCH  21  22
ENDBRANCH   1  21
TORSDOF 7
