REMARK  5 active torsions:
REMARK  status: ('A' for Active; 'I' for Inactive)
REMARK    1  A    between atoms: C_2  and  C_3 
REMARK    2  A    between atoms: C_6  and  C_7 
REMARK    3  A    between atoms: C_7  and  C_8 
REMARK    4  A    between atoms: C_8  and  N_9 
REMARK       I    between atoms: N_9  and  C_10 
REMARK    5  A    between atoms: C_10  and  C_12 
ROOT
HETATM    1  C   UNL     1       4.022  -3.187  -3.762  1.00  0.00     0.129 C 
ENDROOT
BRANCH   1   2
HETATM    2  C   UNL     1       4.173  -1.811  -4.410  1.00  0.00     0.084 C 
BRANCH   2   3
HETATM    3  C   UNL     1       3.816  -0.729  -3.441  1.00  0.00     0.053 A 
HETATM    4  N   UNL     1       4.659  -0.193  -2.585  1.00  0.00    -0.356 N 
HETATM    5  C   UNL     1       4.017   0.775  -1.822  1.00  0.00     0.022 A 
ATOM      6  HN  UNL     1       5.642  -0.451  -2.494  1.00  0.00     0.166 HD
HETATM    7  C   UNL     1       2.673   0.945  -2.113  1.00  0.00     0.003 A 
HETATM    8  S   UNL     1       2.215  -0.112  -3.381  1.00  0.00    -0.080 SA
HETATM    9  C   UNL     1       1.682   1.868  -1.497  1.00  0.00     0.058 C 
BRANCH   5  10
HETATM   10  C   UNL     1       4.820   1.512  -0.797  1.00  0.00     0.054 C 
HETATM   11  C   UNL     1       4.820   0.817   0.554  1.00  0.00     0.011 C 
ENDBRANCH   5  10
ENDBRANCH   2   3
ENDBRANCH   1   2
BRANCH   1  12
HETATM   12  N   UNL     1       4.278  -4.273  -4.696  1.00  0.00    -0.360 N 
HETATM   13  C   UNL     1       3.280  -4.744  -5.522  1.00  0.00     0.221 C 
HETATM   14  O   UNL     1       2.145  -4.277  -5.492  1.00  0.00    -0.273 OA
HETATM   15  H   UNL     1       5.202  -4.683  -4.728  1.00  0.00     0.162 HD
BRANCH  13  16
HETATM   16  C   UNL     1       3.689  -5.907  -6.434  1.00  0.00     0.078 C 
HETATM   17  C   UNL     1       4.845  -5.551  -7.379  1.00  0.00     0.014 C 
HETATM   18  C   UNL     1       4.423  -4.590  -8.488  1.00  0.00     0.001 C 
HETATM   19  C   UNL     1       3.214  -5.103  -9.266  1.00  0.00     0.000 C 
HETATM   20  C   UNL     1       2.055  -5.479  -8.350  1.00  0.00     0.001 C 
HETATM   21  C   UNL     1       2.490  -6.436  -7.239  1.00  0.00     0.014 C 
ENDBRANCH  13  16
ENDBRANCH   1  12
TORSDOF 5
