REMARK  7 active torsions:
REMARK  status: ('A' for Active; 'I' for Inactive)
REMARK    1  A    between atoms: N_2  and  C_3 
REMARK       I    between atoms: N_2  and  C_7 
REMARK    2  A    between atoms: C_3  and  C_4 
REMARK    3  A    between atoms: C_7  and  C_9 
REMARK    4  A    between atoms: C_9  and  N_10 
REMARK    5  A    between atoms: C_14  and  C_15 
REMARK    6  A    between atoms: C_15  and  N_16 
REMARK    7  A    between atoms: N_16  and  C_17 
ROOT
HETATM    1  C   UNL     1       4.796   1.382  -3.928  1.00  0.00     0.143 C 
HETATM    2  C   UNL     1       4.740   0.952  -5.330  1.00  0.00     0.060 C 
HETATM    3  N   UNL     1       4.696   0.609  -6.437  1.00  0.00    -0.197 NA
ENDROOT
BRANCH   1   4
HETATM    4  C   UNL     1       5.977   0.727  -3.218  1.00  0.00     0.139 C 
BRANCH   4   5
HETATM    5  N   UNL     1       6.038   1.065  -1.789  1.00  0.00    -0.354 N 
HETATM    6  C   UNL     1       6.833   2.219  -1.404  1.00  0.00     0.152 C 
HETATM    7  C   UNL     1       5.481   0.316  -0.754  1.00  0.00     0.247 C 
HETATM    8  O   UNL     1       5.654   0.619   0.429  1.00  0.00    -0.271 OA
BRANCH   7   9
HETATM    9  C   UNL     1       4.605  -0.901  -1.095  1.00  0.00     0.374 C 
BRANCH   9  10
HETATM   10  N   UNL     1       5.362  -1.986  -1.756  1.00  0.00     0.101 N 
HETATM   11  C   UNL     1       4.477  -3.121  -2.100  1.00  0.00     0.299 C 
HETATM   12  C   UNL     1       4.043  -3.965  -0.889  1.00  0.00     0.198 C 
HETATM   13  O   UNL     1       5.176  -4.433  -0.149  1.00  0.00    -0.381 OA
HETATM   14  C   UNL     1       6.000  -3.325   0.287  1.00  0.00     0.163 C 
HETATM   15  C   UNL     1       6.475  -2.503  -0.925  1.00  0.00     0.306 C 
BRANCH  14  16
HETATM   16  C   UNL     1       7.198  -3.895   1.062  1.00  0.00     0.127 C 
BRANCH  16  17
HETATM   17  N   UNL     1       6.682  -4.583   2.248  1.00  0.00    -0.275 NA
HETATM   18  H   UNL     1       5.964  -5.253   1.970  1.00  0.00     0.129 HD
BRANCH  17  19
HETATM   19  C   UNL     1       7.656  -5.242   3.014  1.00  0.00     0.094 A 
HETATM   20  C   UNL     1       7.233  -5.930   4.144  1.00  0.00     0.045 A 
HETATM   21  C   UNL     1       8.165  -6.598   4.928  1.00  0.00     0.022 A 
HETATM   22  C   UNL     1       9.488  -6.544   4.545  1.00  0.00     0.107 A 
HETATM   23  N   UNL     1       9.896  -5.859   3.462  1.00  0.00    -0.311 N 
HETATM   24  N   UNL     1       8.969  -5.196   2.701  1.00  0.00    -0.290 N 
ATOM     25  HN  UNL     1      10.884  -5.833   3.210  1.00  0.00     0.186 HD
ATOM     26  HN  UNL     1       9.274  -4.661   1.888  1.00  0.00     0.188 HD
ENDBRANCH  17  19
ENDBRANCH  16  17
ENDBRANCH  14  16
ENDBRANCH   9  10
ENDBRANCH   7   9
ENDBRANCH   4   5
ENDBRANCH   1   4
TORSDOF 7
