REMARK  5 active torsions:
REMARK  status: ('A' for Active; 'I' for Inactive)
REMARK       I    between atoms: N_1  and  C_2 
REMARK    1  A    between atoms: C_2  and  C_4 
REMARK    2  A    between atoms: C_4  and  N_5 
REMARK    3  A    between atoms: C_8  and  N_11 
REMARK       I    between atoms: N_11  and  C_12 
REMARK       I    between atoms: C_12  and  N_14 
REMARK    4  A    between atoms: N_14  and  C_15 
REMARK    5  A    between atoms: C_21  and  N_22 
ROOT
HETATM    1  N   UNL     1       6.966  -1.557   0.207  1.00  0.00    -0.343 N 
HETATM    2  C   UNL     1       7.582  -2.341  -0.749  1.00  0.00     0.299 C 
HETATM    3  O   UNL     1       7.011  -2.791  -1.731  1.00  0.00    -0.254 OA
HETATM    4  N   UNL     1       8.921  -2.517  -0.430  1.00  0.00    -0.207 NA
HETATM    5  H   UNL     1       7.329  -1.748   1.132  1.00  0.00     0.164 HD
HETATM    6  H   UNL     1       9.311  -1.607  -0.221  1.00  0.00     0.138 HD
ENDROOT
BRANCH   1   7
HETATM    7  C   UNL     1       5.535  -1.269   0.112  1.00  0.00     0.089 C 
HETATM    8  C   UNL     1       5.205  -0.358  -1.076  1.00  0.00     0.055 C 
HETATM    9  C   UNL     1       5.736   1.059  -0.852  1.00  0.00     0.275 C 
HETATM   10  N   UNL     1       5.274   1.699   0.394  1.00  0.00     0.097 N 
HETATM   11  C   UNL     1       5.520   0.823   1.552  1.00  0.00     0.275 C 
HETATM   12  C   UNL     1       5.020  -0.617   1.398  1.00  0.00     0.055 C 
BRANCH  10  13
HETATM   13  C   UNL     1       3.853   2.124   0.329  1.00  0.00     0.374 C 
BRANCH  13  14
HETATM   14  C   UNL     1       3.644   3.283  -0.653  1.00  0.00     0.243 C 
HETATM   15  N   UNL     1       4.661   4.193  -0.716  1.00  0.00    -0.369 N 
HETATM   16  H   UNL     1       4.600   4.940  -1.392  1.00  0.00     0.159 HD
HETATM   17  H   UNL     1       5.550   3.965  -0.286  1.00  0.00     0.159 HD
HETATM   18  O   UNL     1       2.611   3.443  -1.295  1.00  0.00    -0.272 OA
ENDBRANCH  13  14
ENDBRANCH  10  13
ENDBRANCH   1   7
BRANCH   4  19
HETATM   19  C   UNL     1       9.702  -3.291  -1.324  1.00  0.00     0.060 A 
HETATM   20  C   UNL     1      10.444  -2.573  -2.271  1.00  0.00     0.029 A 
HETATM   21  C   UNL     1      11.142  -3.252  -3.255  1.00  0.00     0.019 A 
HETATM   22  C   UNL     1      11.110  -4.629  -3.220  1.00  0.00     0.090 A 
HETATM   23  N   UNL     1      10.451  -5.346  -2.283  1.00  0.00    -0.351 N 
HETATM   24  C   UNL     1       9.722  -4.705  -1.329  1.00  0.00     0.125 A 
ATOM     25  HN  UNL     1      10.500  -6.365  -2.291  1.00  0.00     0.166 HD
BRANCH  24  26
HETATM   26  N   UNL     1       9.091  -5.518  -0.415  1.00  0.00    -0.366 N 
HETATM   27  C   UNL     1       8.283  -5.118   0.723  1.00  0.00     0.124 C 
HETATM   28  C   UNL     1       7.734  -6.426   1.304  1.00  0.00     0.021 C 
HETATM   29  C   UNL     1       7.873  -7.422   0.165  1.00  0.00     0.021 C 
HETATM   30  C   UNL     1       9.136  -6.964  -0.559  1.00  0.00     0.124 C 
ENDBRANCH  24  26
ENDBRANCH   4  19
TORSDOF 5
