REMARK  4 active torsions:
REMARK  status: ('A' for Active; 'I' for Inactive)
REMARK    1  A    between atoms: N_2  and  C_4 
REMARK    2  A    between atoms: C_4  and  C_5 
REMARK    3  A    between atoms: C_5  and  N_6 
REMARK       I    between atoms: N_6  and  C_7 
REMARK       I    between atoms: C_7  and  N_9 
REMARK    4  A    between atoms: N_9  and  C_10 
ROOT
HETATM    1  N   UNL     1       1.607  -0.287   3.218  1.00  0.00    -0.340 N 
HETATM    2  C   UNL     1       0.991  -1.329   3.865  1.00  0.00     0.320 C 
HETATM    3  O   UNL     1       1.512  -2.435   3.951  1.00  0.00    -0.247 OA
HETATM    4  N   UNL     1      -0.234  -0.979   4.385  1.00  0.00    -0.308 N 
HETATM    5  H   UNL     1       1.091   0.560   3.047  1.00  0.00     0.164 HD
HETATM    6  H   UNL     1      -0.377   0.002   4.572  1.00  0.00     0.170 HD
ENDROOT
BRANCH   1   7
HETATM    7  C   UNL     1       2.893  -0.468   2.558  1.00  0.00     0.166 C 
BRANCH   7   8
HETATM    8  C   UNL     1       2.856  -0.903   1.045  1.00  0.00     0.178 C 
HETATM    9  C   UNL     1       4.331  -1.234   0.640  1.00  0.00     0.069 C 
HETATM   10  C   UNL     1       4.411  -1.846  -0.755  1.00  0.00     0.170 C 
HETATM   11  O   UNL     1       3.680  -3.070  -0.797  1.00  0.00    -0.391 OA
HETATM   12  C   UNL     1       2.297  -2.871  -0.504  1.00  0.00     0.170 C 
HETATM   13  C   UNL     1       2.112  -2.265   0.885  1.00  0.00     0.069 C 
BRANCH   8  14
HETATM   14  N   UNL     1       2.299   0.139   0.115  1.00  0.00     0.091 N 
HETATM   15  C   UNL     1       0.872   0.430   0.241  1.00  0.00     0.310 C 
HETATM   16  C   UNL     1       3.044   1.400   0.072  1.00  0.00     0.310 C 
ENDBRANCH   8  14
ENDBRANCH   7   8
ENDBRANCH   1   7
BRANCH   4  17
HETATM   17  C   UNL     1      -1.148  -1.890   4.966  1.00  0.00     0.051 A 
HETATM   18  C   UNL     1      -1.099  -3.266   4.747  1.00  0.00     0.032 A 
HETATM   19  C   UNL     1      -2.009  -4.110   5.376  1.00  0.00     0.019 A 
HETATM   20  C   UNL     1      -2.962  -3.545   6.203  1.00  0.00     0.088 A 
HETATM   21  N   UNL     1      -3.074  -2.216   6.417  1.00  0.00    -0.373 N 
HETATM   22  C   UNL     1      -2.167  -1.424   5.792  1.00  0.00     0.117 A 
ATOM     23  HN  UNL     1      -3.802  -1.828   7.017  1.00  0.00     0.164 HD
ENDBRANCH   4  17
TORSDOF 4
