REMARK  4 active torsions:
REMARK  status: ('A' for Active; 'I' for Inactive)
REMARK    1  A    between atoms: C_4  and  O_5 
REMARK    2  A    between atoms: N_9  and  C_10 
REMARK    3  A    between atoms: C_10  and  C_11 
REMARK    4  A    between atoms: C_11  and  O_13 
ROOT
HETATM    1  C   UNL     1       0.922  -0.399   0.105  1.00  0.00     0.068 C 
HETATM    2  C   UNL     1       2.412  -0.197   0.128  1.00  0.00     0.014 A 
HETATM    3  C   UNL     1       3.231  -1.267   0.132  1.00  0.00     0.061 A 
HETATM    4  C   UNL     1       4.659  -1.101   0.128  1.00  0.00     0.072 A 
HETATM    5  C   UNL     1       5.210   0.112   0.145  1.00  0.00     0.111 A 
HETATM    6  C   UNL     1       4.342   1.311   0.161  1.00  0.00     0.250 A 
HETATM    7  O   UNL     1       4.854   2.426   0.206  1.00  0.00    -0.268 OA
HETATM    8  N   UNL     1       2.957   1.095   0.136  1.00  0.00    -0.309 N 
ENDROOT
BRANCH   8   9
HETATM    9  C   UNL     1       2.122   2.297  -0.069  1.00  0.00     0.242 C 
BRANCH   9  10
HETATM   10  C   UNL     1       1.665   3.037   1.182  1.00  0.00     0.158 C 
HETATM   11  O   UNL     1       0.952   4.033   1.145  1.00  0.00    -0.649 OA
BRANCH  10  12
HETATM   12  O   UNL     1       2.069   2.495   2.353  1.00  0.00    -0.775 OA
HETATM   13  H   UNL     1       2.670   1.738   2.199  1.00  0.00     0.167 HD
ENDBRANCH  10  12
ENDBRANCH   9  10
ENDBRANCH   8   9
BRANCH   4  14
HETATM   14  O   UNL     1       5.439  -2.232   0.092  1.00  0.00    -0.360 OA
HETATM   15  H   UNL     1       4.874  -3.022   0.052  1.00  0.00     0.217 HD
ENDBRANCH   4  14
TORSDOF 4
