REMARK  5 active torsions:
REMARK  status: ('A' for Active; 'I' for Inactive)
REMARK    1  A    between atoms: C_2  and  C_3 
REMARK    2  A    between atoms: C_2  and  N_15 
REMARK       I    between atoms: C_3  and  N_5 
REMARK    3  A    between atoms: N_5  and  C_6 
REMARK    4  A    between atoms: C_6  and  C_7 
REMARK    5  A    between atoms: C_7  and  N_8 
ROOT
HETATM    1  C   UNL     1       2.613  -0.559  -1.352  1.00  0.00     0.242 C 
HETATM    2  O   UNL     1       2.839   0.111  -2.358  1.00  0.00    -0.271 OA
HETATM    3  N   UNL     1       2.695  -1.942  -1.341  1.00  0.00    -0.358 N 
HETATM    4  H   UNL     1       2.775  -2.398  -0.431  1.00  0.00     0.162 HD
ENDROOT
BRANCH   1   5
HETATM    5  C   UNL     1       2.154   0.071  -0.042  1.00  0.00     0.196 C 
HETATM    6  C   UNL     1       1.927   1.575  -0.206  1.00  0.00     0.044 C 
BRANCH   5   7
HETATM    7  N   UNL     1       3.092  -0.259   1.015  1.00  0.00    -0.273 N 
HETATM    8  C   UNL     1       4.188   0.424   1.440  1.00  0.00     0.202 A 
HETATM    9  N   UNL     1       4.775  -0.243   2.407  1.00  0.00    -0.346 N 
HETATM   10  C   UNL     1       3.999  -1.360   2.528  1.00  0.00     0.198 A 
ATOM     11  HN  UNL     1       5.608   0.011   2.938  1.00  0.00     0.167 HD
HETATM   12  N   UNL     1       2.965  -1.429   1.685  1.00  0.00    -0.292 N 
ATOM     13  HN  UNL     1       2.267  -2.165   1.575  1.00  0.00     0.188 HD
ENDBRANCH   5   7
ENDBRANCH   1   5
BRANCH   3  14
HETATM   14  C   UNL     1       3.178  -2.650  -2.515  1.00  0.00     0.152 C 
BRANCH  14  15
HETATM   15  C   UNL     1       2.602  -4.075  -2.637  1.00  0.00     0.292 C 
BRANCH  15  16
HETATM   16  N   UNL     1       2.995  -4.795  -3.875  1.00  0.00     0.090 N 
HETATM   17  C   UNL     1       2.447  -4.138  -5.075  1.00  0.00     0.272 C 
HETATM   18  C   UNL     1       3.191  -4.548  -6.344  1.00  0.00     0.030 C 
HETATM   19  C   UNL     1       2.588  -5.743  -7.068  1.00  0.00     0.002 C 
HETATM   20  C   UNL     1       2.082  -6.870  -6.177  1.00  0.00     0.002 C 
HETATM   21  C   UNL     1       2.937  -7.126  -4.941  1.00  0.00     0.030 C 
HETATM   22  C   UNL     1       2.591  -6.208  -3.760  1.00  0.00     0.272 C 
ENDBRANCH  15  16
ENDBRANCH  14  15
ENDBRANCH   3  14
TORSDOF 5
