REMARK  3 active torsions:
REMARK  status: ('A' for Active; 'I' for Inactive)
REMARK       I    between atoms: C_2  and  N_4 
REMARK    1  A    between atoms: N_4  and  C_5 
REMARK    2  A    between atoms: C_5  and  C_6 
REMARK    3  A    between atoms: N_8  and  C_12 
ROOT
HETATM    1  C   UNL     1       5.199   1.732   1.773  1.00  0.00     0.157 C 
HETATM    2  C   UNL     1       4.940   3.194   1.366  1.00  0.00     0.158 C 
HETATM    3  N   UNL     1       5.743   3.550   0.194  1.00  0.00    -0.360 N 
HETATM    4  C   UNL     1       7.171   3.267   0.291  1.00  0.00     0.151 C 
HETATM    5  C   UNL     1       7.378   1.812   0.752  1.00  0.00     0.188 C 
HETATM    6  O   UNL     1       6.619   1.472   1.922  1.00  0.00    -0.381 OA
ENDROOT
BRANCH   3   7
HETATM    7  C   UNL     1       5.147   4.113  -0.909  1.00  0.00     0.142 A 
HETATM    8  N   UNL     1       3.870   3.743  -1.177  1.00  0.00    -0.350 N 
HETATM    9  C   UNL     1       3.257   4.261  -2.268  1.00  0.00     0.090 A 
ATOM     10  HN  UNL     1       3.380   3.087  -0.568  1.00  0.00     0.166 HD
HETATM   11  C   UNL     1       3.846   5.169  -3.127  1.00  0.00     0.020 A 
HETATM   12  C   UNL     1       5.147   5.565  -2.854  1.00  0.00     0.047 A 
HETATM   13  C   UNL     1       5.800   5.027  -1.748  1.00  0.00     0.160 A 
HETATM   14  F   UNL     1       7.049   5.446  -1.488  1.00  0.00    -0.202 F 
ENDBRANCH   3   7
BRANCH   1  15
HETATM   15  C   UNL     1       4.523   0.754   0.794  1.00  0.00     0.156 C 
BRANCH  15  16
HETATM   16  N   UNL     1       4.694  -0.633   1.200  1.00  0.00    -0.359 N 
HETATM   17  C   UNL     1       3.802  -1.255   2.042  1.00  0.00     0.213 C 
HETATM   18  C   UNL     1       4.173  -2.678   2.356  1.00  0.00     0.117 C 
HETATM   19  O   UNL     1       2.790  -0.722   2.481  1.00  0.00    -0.274 OA
HETATM   20  H   UNL     1       5.616  -1.035   1.092  1.00  0.00     0.162 HD
ENDBRANCH  15  16
ENDBRANCH   1  15
TORSDOF 3
