REMARK  6 active torsions:
REMARK  status: ('A' for Active; 'I' for Inactive)
REMARK    1  A    between atoms: C_2  and  C_4 
REMARK    2  A    between atoms: C_8  and  C_9 
REMARK    3  A    between atoms: C_9  and  C_10 
REMARK    4  A    between atoms: C_10  and  N_11 
REMARK    5  A    between atoms: N_11  and  C_12 
REMARK    6  A    between atoms: C_12  and  C_13 
ROOT
HETATM    1  C   UNL     1       4.257  -3.127  -4.144  1.00  0.00     0.117 C 
ENDROOT
BRANCH   1   2
HETATM    2  C   UNL     1       3.536  -2.407  -5.219  1.00  0.00     0.149 A 
HETATM    3  O   UNL     1       4.230  -2.180  -6.373  1.00  0.00    -0.223 OA
HETATM    4  N   UNL     1       3.383  -1.456  -7.210  1.00  0.00    -0.247 N 
HETATM    5  C   UNL     1       2.270  -1.322  -6.479  1.00  0.00     0.107 A 
ATOM      6  HN  UNL     1       3.567  -1.111  -8.152  1.00  0.00     0.196 HD
HETATM    7  N   UNL     1       2.327  -1.888  -5.226  1.00  0.00    -0.327 N 
ATOM      8  HN  UNL     1       1.617  -1.902  -4.494  1.00  0.00     0.169 HD
BRANCH   5   9
HETATM    9  C   UNL     1       1.067  -0.605  -6.995  1.00  0.00     0.047 C 
HETATM   10  C   UNL     1      -0.145  -1.533  -7.078  1.00  0.00     0.017 C 
HETATM   11  C   UNL     1       0.744   0.628  -6.150  1.00  0.00     0.017 C 
ENDBRANCH   5   9
ENDBRANCH   1   2
BRANCH   1  12
HETATM   12  C   UNL     1       4.014  -4.639  -4.171  1.00  0.00     0.277 C 
BRANCH  12  13
HETATM   13  N   UNL     1       4.533  -5.294  -5.378  1.00  0.00     0.084 N 
HETATM   14  H   UNL     1       5.535  -5.133  -5.476  1.00  0.00     0.315 HD
BRANCH  13  15
HETATM   15  C   UNL     1       4.263  -6.734  -5.345  1.00  0.00     0.274 C 
BRANCH  15  16
HETATM   16  C   UNL     1       4.722  -7.446  -6.637  1.00  0.00     0.014 C 
HETATM   17  C   UNL     1       4.020  -6.930  -7.906  1.00  0.00     0.006 C 
HETATM   18  C   UNL     1       2.544  -7.322  -7.970  1.00  0.00     0.000 C 
HETATM   19  C   UNL     1       2.347  -8.827  -7.810  1.00  0.00     0.000 C 
HETATM   20  C   UNL     1       3.041  -9.372  -6.566  1.00  0.00     0.000 C 
HETATM   21  C   UNL     1       4.515  -8.968  -6.517  1.00  0.00     0.006 C 
ENDBRANCH  15  16
ENDBRANCH  13  15
ENDBRANCH  12  13
ENDBRANCH   1  12
TORSDOF 6
