REMARK  3 active torsions:
REMARK  status: ('A' for Active; 'I' for Inactive)
REMARK    1  A    between atoms: C_5  and  N_6 
REMARK       I    between atoms: N_6  and  C_7 
REMARK       I    between atoms: C_7  and  N_9 
REMARK    2  A    between atoms: N_9  and  C_10 
REMARK    3  A    between atoms: N_12  and  C_13 
ROOT
HETATM    1  N   UNL     1       6.881   0.124  -0.541  1.00  0.00    -0.295 N 
HETATM    2  C   UNL     1       7.532   1.323  -0.563  1.00  0.00     0.322 C 
HETATM    3  O   UNL     1       6.912   2.367  -0.381  1.00  0.00    -0.247 OA
HETATM    4  N   UNL     1       8.866   1.291  -0.812  1.00  0.00    -0.336 N 
HETATM    5  H   UNL     1       5.892   0.209  -0.358  1.00  0.00     0.172 HD
HETATM    6  H   UNL     1       9.257   0.361  -0.959  1.00  0.00     0.164 HD
ENDROOT
BRANCH   1   7
HETATM    7  C   UNL     1       7.407  -1.149  -0.788  1.00  0.00     0.108 A 
HETATM    8  C   UNL     1       6.542  -2.238  -0.770  1.00  0.00     0.049 A 
HETATM    9  C   UNL     1       7.054  -3.506  -1.063  1.00  0.00     0.012 A 
HETATM   10  C   UNL     1       8.406  -3.653  -1.366  1.00  0.00    -0.046 A 
HETATM   11  C   UNL     1       9.015  -4.973  -1.714  1.00  0.00     0.049 C 
HETATM   12  C   UNL     1       9.193  -2.514  -1.330  1.00  0.00     0.096 A 
HETATM   13  N   UNL     1       8.725  -1.279  -1.055  1.00  0.00    -0.352 N 
ATOM     14  HN  UNL     1       9.346  -0.470  -1.049  1.00  0.00     0.166 HD
ENDBRANCH   1   7
BRANCH   4  15
HETATM   15  C   UNL     1       9.706   2.464  -0.906  1.00  0.00     0.112 C 
HETATM   16  C   UNL     1       9.351   3.378  -2.073  1.00  0.00     0.152 C 
HETATM   17  N   UNL     1      10.592   4.040  -2.390  1.00  0.00    -0.345 N 
HETATM   18  C   UNL     1      11.687   3.324  -1.905  1.00  0.00     0.222 C 
HETATM   19  O   UNL     1      12.870   3.554  -2.109  1.00  0.00    -0.273 OA
HETATM   20  C   UNL     1      11.168   2.116  -1.168  1.00  0.00     0.129 C 
BRANCH  17  21
HETATM   21  C   UNL     1      10.667   4.900  -3.528  1.00  0.00     0.087 A 
HETATM   22  C   UNL     1      11.534   6.126  -3.562  1.00  0.00     0.027 A 
HETATM   23  C   UNL     1      10.043   6.269  -3.495  1.00  0.00     0.027 A 
ENDBRANCH  17  21
ENDBRANCH   4  15
TORSDOF 3
