REMARK  5 active torsions:
REMARK  status: ('A' for Active; 'I' for Inactive)
REMARK    1  A    between atoms: O_2  and  C_3 
REMARK    2  A    between atoms: C_6  and  N_7 
REMARK       I    between atoms: N_7  and  C_8 
REMARK       I    between atoms: C_8  and  N_10 
REMARK    3  A    between atoms: N_10  and  C_11 
REMARK    4  A    between atoms: C_11  and  C_12 
REMARK    5  A    between atoms: C_12  and  N_13 
ROOT
HETATM    1  N   UNL     1       5.106   5.022  -0.045  1.00  0.00    -0.308 N 
HETATM    2  C   UNL     1       6.483   5.003  -0.086  1.00  0.00     0.320 C 
HETATM    3  O   UNL     1       7.167   3.986  -0.083  1.00  0.00    -0.247 OA
HETATM    4  N   UNL     1       7.045   6.270  -0.141  1.00  0.00    -0.341 N 
HETATM    5  H   UNL     1       4.659   5.846  -0.411  1.00  0.00     0.170 HD
HETATM    6  H   UNL     1       6.476   7.016  -0.512  1.00  0.00     0.164 HD
ENDROOT
BRANCH   1   7
HETATM    7  C   UNL     1       4.339   3.832  -0.008  1.00  0.00     0.051 A 
HETATM    8  C   UNL     1       4.724   2.706   0.728  1.00  0.00     0.035 A 
HETATM    9  C   UNL     1       3.933   1.556   0.688  1.00  0.00     0.058 A 
HETATM   10  C   UNL     1       2.789   1.567  -0.087  1.00  0.00     0.141 A 
HETATM   11  N   UNL     1       2.376   2.640  -0.800  1.00  0.00    -0.345 N 
HETATM   12  C   UNL     1       3.157   3.744  -0.737  1.00  0.00     0.119 A 
ATOM     13  HN  UNL     1       1.521   2.618  -1.356  1.00  0.00     0.167 HD
BRANCH  10  14
HETATM   14  O   UNL     1       2.051   0.400  -0.108  1.00  0.00    -0.341 OA
HETATM   15  C   UNL     1       0.946   0.456  -1.005  1.00  0.00     0.211 C 
ENDBRANCH  10  14
ENDBRANCH   1   7
BRANCH   4  16
HETATM   16  C   UNL     1       8.478   6.313  -0.391  1.00  0.00     0.154 C 
BRANCH  16  17
HETATM   17  C   UNL     1       9.167   7.692  -0.267  1.00  0.00     0.292 C 
BRANCH  17  18
HETATM   18  N   UNL     1      10.606   7.611  -0.624  1.00  0.00     0.094 N 
HETATM   19  C   UNL     1      11.376   6.744   0.289  1.00  0.00     0.273 C 
HETATM   20  C   UNL     1      11.568   7.344   1.681  1.00  0.00     0.030 C 
HETATM   21  C   UNL     1      12.239   8.711   1.596  1.00  0.00     0.004 C 
HETATM   22  C   UNL     1      11.541   9.619   0.583  1.00  0.00     0.035 C 
HETATM   23  C   UNL     1      11.316   8.903  -0.759  1.00  0.00     0.219 C 
HETATM   24  C   UNL     1      10.706   9.846  -1.798  1.00  0.00     0.043 C 
ENDBRANCH  17  18
ENDBRANCH  16  17
ENDBRANCH   4  16
TORSDOF 5
