REMARK  5 active torsions:
REMARK  status: ('A' for Active; 'I' for Inactive)
REMARK    1  A    between atoms: C_2  and  C_4 
REMARK    2  A    between atoms: C_4  and  C_5 
REMARK    3  A    between atoms: C_5  and  N_6 
REMARK       I    between atoms: N_6  and  C_7 
REMARK    4  A    between atoms: C_7  and  C_9 
REMARK    5  A    between atoms: C_9  and  N_10 
ROOT
HETATM    1  C   UNL     1       6.891  -2.043  -4.025  1.00  0.00     0.235 C 
ENDROOT
BRANCH   1   2
HETATM    2  C   UNL     1       6.457  -1.458  -2.686  1.00  0.00     0.235 C 
HETATM    3  N   UNL     1       5.109  -1.183  -2.590  1.00  0.00    -0.360 N 
HETATM    4  H   UNL     1       4.500  -1.447  -3.361  1.00  0.00     0.162 HD
HETATM    5  O   UNL     1       7.248  -1.307  -1.757  1.00  0.00    -0.272 OA
BRANCH   3   6
HETATM    6  C   UNL     1       4.515  -0.636  -1.388  1.00  0.00     0.123 C 
BRANCH   6   7
HETATM    7  C   UNL     1       4.454   0.894  -1.411  1.00  0.00     0.023 C 
BRANCH   7   8
HETATM    8  C   UNL     1       3.593   1.487  -2.544  1.00  0.00    -0.021 C 
HETATM    9  C   UNL     1       2.131   1.047  -2.454  1.00  0.00     0.009 C 
HETATM   10  C   UNL     1       3.670   3.016  -2.518  1.00  0.00     0.009 C 
ENDBRANCH   7   8
ENDBRANCH   6   7
ENDBRANCH   3   6
ENDBRANCH   1   2
BRANCH   1  11
HETATM   11  N   UNL     1       6.843  -3.502  -3.996  1.00  0.00    -0.301 N 
HETATM   12  C   UNL     1       7.945  -4.215  -3.570  1.00  0.00     0.102 A 
HETATM   13  C   UNL     1       7.965  -5.550  -3.576  1.00  0.00     0.092 A 
HETATM   14  C   UNL     1       6.777  -6.274  -4.058  1.00  0.00     0.250 A 
HETATM   15  O   UNL     1       6.778  -7.494  -4.162  1.00  0.00    -0.268 OA
HETATM   16  N   UNL     1       5.699  -5.498  -4.378  1.00  0.00    -0.275 N 
HETATM   17  C   UNL     1       5.664  -4.129  -4.372  1.00  0.00     0.329 A 
HETATM   18  H   UNL     1       4.870  -5.977  -4.694  1.00  0.00     0.173 HD
HETATM   19  O   UNL     1       4.642  -3.520  -4.688  1.00  0.00    -0.246 OA
ENDBRANCH   1  11
TORSDOF 5
