REMARK  3 active torsions:
REMARK  status: ('A' for Active; 'I' for Inactive)
REMARK    1  A    between atoms: C_2  and  C_5 
REMARK    2  A    between atoms: C_10  and  N_11 
REMARK       I    between atoms: N_11  and  C_12 
REMARK       I    between atoms: C_12  and  N_14 
REMARK    3  A    between atoms: N_14  and  C_15 
ROOT
HETATM    1  C   UNL     1       2.572  -1.550   1.749  1.00  0.00     0.065 A 
HETATM    2  C   UNL     1       3.550  -1.893   2.604  1.00  0.00     0.107 A 
HETATM    3  N   UNL     1       3.953  -3.201   2.727  1.00  0.00    -0.331 N 
HETATM    4  C   UNL     1       3.421  -4.243   2.003  1.00  0.00     0.272 A 
HETATM    5  O   UNL     1       3.831  -5.398   2.097  1.00  0.00    -0.266 OA
HETATM    6  C   UNL     1       2.276  -3.896   1.087  1.00  0.00     0.105 A 
HETATM    7  C   UNL     1       1.921  -2.603   0.986  1.00  0.00     0.052 A 
HETATM    8  H   UNL     1       4.702  -3.445   3.367  1.00  0.00     0.168 HD
ENDROOT
BRANCH   6   9
HETATM    9  N   UNL     1       1.692  -4.936   0.395  1.00  0.00    -0.304 N 
HETATM   10  C   UNL     1       0.438  -4.914  -0.167  1.00  0.00     0.321 C 
HETATM   11  O   UNL     1      -0.389  -4.028   0.009  1.00  0.00    -0.247 OA
HETATM   12  N   UNL     1       0.229  -5.965  -1.026  1.00  0.00    -0.338 N 
HETATM   13  H   UNL     1       0.718  -6.818  -0.797  1.00  0.00     0.164 HD
HETATM   14  H   UNL     1       2.162  -5.830   0.492  1.00  0.00     0.171 HD
BRANCH  12  15
HETATM   15  C   UNL     1      -1.016  -6.084  -1.794  1.00  0.00     0.090 C 
HETATM   16  C   UNL     1      -0.989  -7.348  -2.659  1.00  0.00     0.051 C 
HETATM   17  C   UNL     1      -0.001  -7.195  -3.812  1.00  0.00     0.169 C 
HETATM   18  O   UNL     1      -0.291  -6.038  -4.595  1.00  0.00    -0.391 OA
HETATM   19  C   UNL     1      -0.240  -4.834  -3.828  1.00  0.00     0.169 C 
HETATM   20  C   UNL     1      -1.274  -4.879  -2.714  1.00  0.00     0.051 C 
ENDBRANCH  12  15
ENDBRANCH   6   9
BRANCH   1  21
HETATM   21  C   UNL     1       2.131  -0.127   1.543  1.00  0.00     0.418 C 
HETATM   22  F   UNL     1       1.171   0.008   0.594  1.00  0.00    -0.166 F 
HETATM   23  F   UNL     1       3.169   0.659   1.157  1.00  0.00    -0.166 F 
HETATM   24  F   UNL     1       1.635   0.413   2.686  1.00  0.00    -0.166 F 
ENDBRANCH   1  21
TORSDOF 3
