REMARK  5 active torsions:
REMARK  status: ('A' for Active; 'I' for Inactive)
REMARK    1  A    between atoms: C_8  and  C_9 
REMARK    2  A    between atoms: C_9  and  C_10 
REMARK    3  A    between atoms: C_10  and  N_11 
REMARK       I    between atoms: N_11  and  C_12 
REMARK       I    between atoms: C_12  and  N_14 
REMARK    4  A    between atoms: C_17  and  O_18 
REMARK    5  A    between atoms: C_17  and  C_21 
ROOT
HETATM    1  N   UNL     1       0.138  -3.660   0.059  1.00  0.00    -0.343 N 
HETATM    2  C   UNL     1      -1.219  -3.680  -0.156  1.00  0.00     0.318 C 
HETATM    3  O   UNL     1      -1.883  -2.646  -0.163  1.00  0.00    -0.247 OA
HETATM    4  N   UNL     1      -1.793  -4.935  -0.321  1.00  0.00    -0.334 N 
HETATM    5  C   UNL     1      -1.087  -6.215  -0.230  1.00  0.00     0.131 C 
HETATM    6  C   UNL     1      -1.695  -7.245  -1.179  1.00  0.00     0.067 C 
HETATM    7  C   UNL     1      -3.212  -7.412  -0.991  1.00  0.00     0.158 C 
HETATM    8  C   UNL     1      -3.883  -6.031  -1.079  1.00  0.00     0.067 C 
HETATM    9  C   UNL     1      -3.245  -5.008  -0.147  1.00  0.00     0.131 C 
HETATM   10  H   UNL     1       0.654  -4.367  -0.432  1.00  0.00     0.164 HD
ENDROOT
BRANCH   1  11
HETATM   11  C   UNL     1       0.852  -2.397   0.190  1.00  0.00     0.129 C 
BRANCH  11  12
HETATM   12  C   UNL     1       0.452  -1.559   1.413  1.00  0.00     0.059 C 
BRANCH  12  13
HETATM   13  C   UNL     1       1.130  -0.207   1.409  1.00  0.00    -0.048 A 
HETATM   14  C   UNL     1       2.308   0.070   2.121  1.00  0.00    -0.040 A 
HETATM   15  C   UNL     1       3.002  -0.946   2.977  1.00  0.00     0.050 C 
HETATM   16  C   UNL     1       2.838   1.358   2.016  1.00  0.00     0.094 A 
HETATM   17  N   UNL     1       2.300   2.355   1.279  1.00  0.00    -0.375 N 
HETATM   18  C   UNL     1       1.168   2.063   0.612  1.00  0.00     0.088 A 
ATOM     19  HN  UNL     1       2.729   3.279   1.231  1.00  0.00     0.164 HD
HETATM   20  C   UNL     1       0.559   0.820   0.641  1.00  0.00     0.024 A 
ENDBRANCH  12  13
ENDBRANCH  11  12
ENDBRANCH   1  11
BRANCH   7  21
HETATM   21  O   UNL     1      -3.689  -8.190  -2.118  1.00  0.00    -0.381 OA
HETATM   22  H   UNL     1      -3.527  -7.690  -2.937  1.00  0.00     0.211 HD
ENDBRANCH   7  21
BRANCH   7  23
HETATM   23  C   UNL     1      -3.546  -8.137   0.354  1.00  0.00     0.418 C 
HETATM   24  F   UNL     1      -2.429  -8.481   1.037  1.00  0.00    -0.168 F 
HETATM   25  F   UNL     1      -4.293  -7.369   1.181  1.00  0.00    -0.168 F 
HETATM   26  F   UNL     1      -4.244  -9.280   0.153  1.00  0.00    -0.168 F 
ENDBRANCH   7  23
TORSDOF 5
