REMARK  5 active torsions:
REMARK  status: ('A' for Active; 'I' for Inactive)
REMARK    1  A    between atoms: C_2  and  C_4 
REMARK    2  A    between atoms: C_4  and  C_5 
REMARK       I    between atoms: C_5  and  N_7 
REMARK    3  A    between atoms: N_7  and  C_8 
REMARK    4  A    between atoms: C_8  and  C_9 
REMARK    5  A    between atoms: C_15  and  N_16 
ROOT
HETATM    1  C   UNL     1       7.207  -3.375  -2.209  1.00  0.00     0.004 A 
HETATM    2  C   UNL     1       8.160  -3.332  -3.250  1.00  0.00     0.014 A 
HETATM    3  C   UNL     1       8.600  -4.496  -3.853  1.00  0.00     0.018 A 
HETATM    4  C   UNL     1       8.085  -5.679  -3.382  1.00  0.00     0.089 A 
HETATM    5  N   UNL     1       7.199  -5.757  -2.366  1.00  0.00    -0.352 N 
ATOM      6  HN  UNL     1       6.866  -6.668  -2.052  1.00  0.00     0.166 HD
HETATM    7  C   UNL     1       6.750  -4.627  -1.761  1.00  0.00     0.111 A 
ENDROOT
BRANCH   1   8
HETATM    8  C   UNL     1       6.697  -2.042  -1.731  1.00  0.00     0.165 C 
BRANCH   8   9
HETATM    9  N   UNL     1       7.559  -1.451  -0.726  1.00  0.00    -0.357 N 
HETATM   10  C   UNL     1       7.207  -0.271  -0.115  1.00  0.00     0.218 C 
HETATM   11  O   UNL     1       6.249   0.405  -0.481  1.00  0.00    -0.274 OA
HETATM   12  H   UNL     1       8.323  -2.005  -0.360  1.00  0.00     0.162 HD
BRANCH  10  13
HETATM   13  C   UNL     1       8.113   0.114   1.041  1.00  0.00     0.106 C 
BRANCH  13  14
HETATM   14  C   UNL     1       7.437   1.073   2.037  1.00  0.00    -0.014 C 
HETATM   15  C   UNL     1       6.253   0.406   2.745  1.00  0.00     0.010 C 
HETATM   16  C   UNL     1       8.445   1.557   3.081  1.00  0.00     0.010 C 
ENDBRANCH  13  14
ENDBRANCH  10  13
ENDBRANCH   8   9
ENDBRANCH   1   8
BRANCH   7  17
HETATM   17  N   UNL     1       5.799  -4.814  -0.792  1.00  0.00    -0.363 N 
HETATM   18  C   UNL     1       5.026  -6.068  -0.764  1.00  0.00     0.150 C 
HETATM   19  C   UNL     1       3.546  -5.704  -0.530  1.00  0.00     0.187 C 
HETATM   20  O   UNL     1       3.358  -4.903   0.655  1.00  0.00    -0.388 OA
HETATM   21  C   UNL     1       4.161  -3.708   0.599  1.00  0.00     0.187 C 
HETATM   22  C   UNL     1       5.650  -4.066   0.456  1.00  0.00     0.150 C 
ENDBRANCH   7  17
TORSDOF 5
