REMARK  3 active torsions:
REMARK  status: ('A' for Active; 'I' for Inactive)
REMARK    1  A    between atoms: C_2  and  N_4 
REMARK       I    between atoms: N_4  and  C_5 
REMARK    2  A    between atoms: C_5  and  C_7 
REMARK    3  A    between atoms: C_7  and  N_8 
ROOT
HETATM    1  N   UNL     1       4.166  -3.337  -2.489  1.00  0.00    -0.301 N 
HETATM    2  C   UNL     1       4.616  -3.193  -3.786  1.00  0.00     0.102 A 
HETATM    3  C   UNL     1       3.955  -3.716  -4.821  1.00  0.00     0.092 A 
HETATM    4  C   UNL     1       2.714  -4.465  -4.566  1.00  0.00     0.250 A 
HETATM    5  O   UNL     1       2.044  -4.912  -5.488  1.00  0.00    -0.268 OA
HETATM    6  N   UNL     1       2.364  -4.607  -3.255  1.00  0.00    -0.275 N 
HETATM    7  C   UNL     1       2.991  -4.013  -2.194  1.00  0.00     0.329 A 
HETATM    8  O   UNL     1       2.499  -4.056  -1.066  1.00  0.00    -0.246 OA
HETATM    9  H   UNL     1       1.496  -5.084  -3.065  1.00  0.00     0.173 HD
ENDROOT
BRANCH   1  10
HETATM   10  C   UNL     1       4.902  -2.697  -1.395  1.00  0.00     0.235 C 
BRANCH  10  11
HETATM   11  C   UNL     1       4.371  -1.290  -1.116  1.00  0.00     0.236 C 
HETATM   12  N   UNL     1       3.048  -1.242  -0.729  1.00  0.00    -0.356 N 
HETATM   13  H   UNL     1       2.585  -2.125  -0.513  1.00  0.00     0.162 HD
HETATM   14  O   UNL     1       5.091  -0.298  -1.197  1.00  0.00    -0.272 OA
BRANCH  12  15
HETATM   15  C   UNL     1       2.376   0.000  -0.387  1.00  0.00     0.076 C 
HETATM   16  C   UNL     1       0.888  -0.112  -0.705  1.00  0.00     0.032 C 
HETATM   17  C   UNL     1       2.594   0.351   1.082  1.00  0.00     0.032 C 
ENDBRANCH  12  15
ENDBRANCH  10  11
ENDBRANCH   1  10
TORSDOF 3
