REMARK  6 active torsions:
REMARK  status: ('A' for Active; 'I' for Inactive)
REMARK    1  A    between atoms: C_7  and  O_8 
REMARK    2  A    between atoms: O_8  and  C_9 
REMARK    3  A    between atoms: C_9  and  C_10 
REMARK    4  A    between atoms: C_10  and  N_11 
REMARK    5  A    between atoms: C_13  and  C_14 
REMARK    6  A    between atoms: C_14  and  N_15 
ROOT
HETATM    1  N   UNL     1       2.871  -4.383   2.683  1.00  0.00    -0.306 N 
HETATM    2  C   UNL     1       2.194  -5.239   1.836  1.00  0.00     0.122 A 
HETATM    3  C   UNL     1       2.586  -6.503   1.652  1.00  0.00     0.110 A 
HETATM    4  C   UNL     1       3.780  -6.988   2.367  1.00  0.00     0.270 A 
HETATM    5  O   UNL     1       4.149  -8.154   2.323  1.00  0.00    -0.266 OA
HETATM    6  N   UNL     1       4.446  -6.049   3.112  1.00  0.00    -0.274 N 
HETATM    7  C   UNL     1       4.040  -4.760   3.335  1.00  0.00     0.329 A 
HETATM    8  O   UNL     1       4.677  -4.021   4.083  1.00  0.00    -0.246 OA
HETATM    9  H   UNL     1       5.264  -6.357   3.617  1.00  0.00     0.173 HD
ENDROOT
BRANCH   1  10
HETATM   10  C   UNL     1       2.334  -3.040   2.910  1.00  0.00     0.159 C 
BRANCH  10  11
HETATM   11  C   UNL     1       2.947  -1.990   1.986  1.00  0.00     0.188 C 
BRANCH  11  12
HETATM   12  O   UNL     1       2.497  -2.198   0.639  1.00  0.00    -0.384 OA
BRANCH  12  13
HETATM   13  C   UNL     1       3.033  -1.241  -0.288  1.00  0.00     0.125 C 
HETATM   14  C   UNL     1       2.509   0.189  -0.021  1.00  0.00     0.010 C 
HETATM   15  C   UNL     1       0.982   0.240   0.112  1.00  0.00     0.012 C 
HETATM   16  C   UNL     1       3.021   1.158  -1.093  1.00  0.00     0.007 C 
HETATM   17  C   UNL     1       2.687   0.703  -2.510  1.00  0.00     0.001 C 
HETATM   18  C   UNL     1       3.168  -0.721  -2.773  1.00  0.00     0.002 C 
HETATM   19  C   UNL     1       2.683  -1.706  -1.709  1.00  0.00     0.032 C 
ENDBRANCH  12  13
ENDBRANCH  11  12
ENDBRANCH  10  11
ENDBRANCH   1  10
BRANCH   3  20
HETATM   20  C   UNL     1       1.744  -7.470   0.835  1.00  0.00    -0.030 C 
BRANCH  20  21
HETATM   21  N   UNL     1       1.046  -8.272   0.157  1.00  0.00    -0.365 N 
ATOM     22  HN2 UNL     1       1.625  -7.622   0.689  1.00  0.00     0.165 HD
ATOM     23  HN1 UNL     1       0.481  -8.921  -0.391  1.00  0.00     0.165 HD
ENDBRANCH  20  21
ENDBRANCH   3  20
TORSDOF 6
