REMARK  4 active torsions:
REMARK  status: ('A' for Active; 'I' for Inactive)
REMARK    1  A    between atoms: C_2  and  C_3 
REMARK    2  A    between atoms: C_2  and  N_11 
REMARK    3  A    between atoms: C_3  and  N_4 
REMARK    4  A    between atoms: N_11  and  C_12 
ROOT
HETATM    1  C   UNL     1       0.792  -0.048  -0.087  1.00  0.00     0.044 C 
HETATM    2  C   UNL     1       2.316   0.110  -0.012  1.00  0.00     0.237 C 
ENDROOT
BRANCH   2   3
HETATM    3  C   UNL     1       2.608   1.509   0.579  1.00  0.00     0.183 C 
BRANCH   3   4
HETATM    4  N   UNL     1       3.999   1.911   0.506  1.00  0.00    -0.300 N 
HETATM    5  C   UNL     1       4.923   1.813   1.509  1.00  0.00     0.130 A 
HETATM    6  C   UNL     1       6.052   2.413   1.020  1.00  0.00     0.044 A 
HETATM    7 BR   UNL     1       7.702   2.628   1.861  1.00  0.00    -0.048 Br
HETATM    8  C   UNL     1       5.719   2.866  -0.264  1.00  0.00     0.127 A 
HETATM    9  N   UNL     1       4.454   2.573  -0.583  1.00  0.00    -0.309 N 
ATOM     10  HN  UNL     1       3.952   2.795  -1.442  1.00  0.00     0.186 HD
ENDBRANCH   3   4
ENDBRANCH   2   3
BRANCH   2  11
HETATM   11  N   UNL     1       2.935  -0.951   0.813  1.00  0.00     0.098 N 
HETATM   12  H   UNL     1       2.594  -0.890   1.773  1.00  0.00     0.317 HD
BRANCH  11  13
HETATM   13  C   UNL     1       2.898  -2.309   0.240  1.00  0.00     0.154 C 
HETATM   14  C   UNL     1       3.461  -2.462  -1.162  1.00  0.00     0.049 C 
HETATM   15  C   UNL     1       1.556  -3.014   0.598  1.00  0.00     0.041 C 
HETATM   16  C   UNL     1       2.382  -4.229   1.062  1.00  0.00     0.005 C 
HETATM   17  C   UNL     1       3.556  -3.256   1.299  1.00  0.00     0.041 C 
ENDBRANCH  11  13
ENDBRANCH   2  11
TORSDOF 4
