REMARK  5 active torsions:
REMARK  status: ('A' for Active; 'I' for Inactive)
REMARK    1  A    between atoms: N_7  and  C_8 
REMARK    2  A    between atoms: C_8  and  C_9 
REMARK       I    between atoms: C_9  and  N_11 
REMARK    3  A    between atoms: N_11  and  C_12 
REMARK    4  A    between atoms: C_12  and  C_13 
REMARK    5  A    between atoms: C_13  and  N_14 
ROOT
HETATM    1  C   UNL     1       5.789  -4.733  -1.504  1.00  0.00     0.236 C 
HETATM    2  O   UNL     1       5.887  -5.336  -2.572  1.00  0.00    -0.272 OA
HETATM    3  N   UNL     1       4.894  -5.102  -0.517  1.00  0.00    -0.358 N 
HETATM    4  H   UNL     1       4.668  -4.413   0.192  1.00  0.00     0.162 HD
ENDROOT
BRANCH   1   5
HETATM    5  C   UNL     1       6.687  -3.543  -1.151  1.00  0.00     0.235 C 
BRANCH   5   6
HETATM    6  N   UNL     1       6.663  -2.515  -2.192  1.00  0.00    -0.301 N 
HETATM    7  C   UNL     1       7.512  -2.611  -3.265  1.00  0.00     0.102 C 
HETATM    8  C   UNL     1       7.528  -1.696  -4.237  1.00  0.00     0.092 C 
HETATM    9  C   UNL     1       6.636  -0.530  -4.136  1.00  0.00     0.252 C 
HETATM   10  N   UNL     1       5.824  -0.475  -3.018  1.00  0.00    -0.271 N 
HETATM   11  O   UNL     1       6.667   0.314  -5.029  1.00  0.00    -0.268 OA
HETATM   12  C   UNL     1       4.984   0.689  -2.825  1.00  0.00     0.164 C 
HETATM   13  C   UNL     1       5.736  -1.486  -2.064  1.00  0.00     0.331 C 
HETATM   14  O   UNL     1       4.907  -1.467  -1.151  1.00  0.00    -0.246 OA
ENDBRANCH   5   6
ENDBRANCH   1   5
BRANCH   3  15
HETATM   15  C   UNL     1       3.919  -6.167  -0.734  1.00  0.00     0.142 C 
BRANCH  15  16
HETATM   16  C   UNL     1       4.562  -7.554  -0.848  1.00  0.00     0.145 C 
BRANCH  16  17
HETATM   17  N   UNL     1       3.633  -8.642  -1.150  1.00  0.00    -0.351 N 
HETATM   18  C   UNL     1       3.257  -8.871  -2.543  1.00  0.00     0.126 C 
HETATM   19  C   UNL     1       3.833 -10.166  -3.095  1.00  0.00     0.020 C 
HETATM   20  C   UNL     1       2.981 -11.397  -2.787  1.00  0.00     0.002 C 
HETATM   21  C   UNL     1       2.287 -11.416  -1.425  1.00  0.00     0.009 C 
HETATM   22  C   UNL     1       3.138 -10.894  -0.284  1.00  0.00     0.103 C 
HETATM   23  C   UNL     1       3.145  -9.386  -0.094  1.00  0.00     0.219 C 
HETATM   24  O   UNL     1       2.931  -8.887   1.011  1.00  0.00    -0.273 OA
ENDBRANCH  16  17
ENDBRANCH  15  16
ENDBRANCH   3  15
TORSDOF 5
