REMARK  4 active torsions:
REMARK  status: ('A' for Active; 'I' for Inactive)
REMARK    1  A    between atoms: S_2  and  C_3 
REMARK    2  A    between atoms: C_8  and  C_9 
REMARK    3  A    between atoms: C_9  and  C_10 
REMARK       I    between atoms: C_10  and  N_12 
REMARK    4  A    between atoms: N_12  and  C_13 
ROOT
HETATM    1  C   UNL     1       4.991  -4.639   3.126  1.00  0.00     0.151 C 
ENDROOT
BRANCH   1   2
HETATM    2  C   UNL     1       5.367  -4.271   1.724  1.00  0.00     0.016 A 
HETATM    3  C   UNL     1       4.597  -4.067   0.584  1.00  0.00     0.020 A 
HETATM    4  N   UNL     1       5.310  -3.640  -0.529  1.00  0.00    -0.348 N 
HETATM    5  C   UNL     1       3.126  -4.218   0.415  1.00  0.00     0.069 C 
HETATM    6  C   UNL     1       6.584  -3.525  -0.244  1.00  0.00     0.112 A 
ATOM      7  HN  UNL     1       4.899  -3.443  -1.442  1.00  0.00     0.167 HD
HETATM    8  S   UNL     1       7.016  -3.916   1.362  1.00  0.00    -0.067 SA
BRANCH   6   9
HETATM    9  S   UNL     1       7.759  -3.015  -1.435  1.00  0.00    -0.109 SA
HETATM   10  C   UNL     1       6.696  -2.800  -2.881  1.00  0.00     0.097 C 
ENDBRANCH   6   9
ENDBRANCH   1   2
BRANCH   1  11
HETATM   11  C   UNL     1       4.260  -5.968   3.201  1.00  0.00     0.222 C 
HETATM   12  O   UNL     1       3.036  -6.027   3.070  1.00  0.00    -0.273 OA
HETATM   13  N   UNL     1       5.034  -7.079   3.476  1.00  0.00    -0.356 N 
HETATM   14  H   UNL     1       6.025  -6.977   3.643  1.00  0.00     0.162 HD
BRANCH  13  15
HETATM   15  C   UNL     1       4.387  -8.372   3.719  1.00  0.00     0.084 C 
HETATM   16  C   UNL     1       5.237  -9.286   4.617  1.00  0.00     0.025 C 
HETATM   17  C   UNL     1       6.267 -10.124   3.866  1.00  0.00     0.002 C 
HETATM   18  C   UNL     1       5.614 -10.902   2.732  1.00  0.00     0.000 C 
HETATM   19  C   UNL     1       4.963  -9.943   1.745  1.00  0.00     0.002 C 
HETATM   20  C   UNL     1       3.922  -9.051   2.419  1.00  0.00     0.025 C 
ENDBRANCH  13  15
ENDBRANCH   1  11
TORSDOF 4
