REMARK  3 active torsions:
REMARK  status: ('A' for Active; 'I' for Inactive)
REMARK    1  A    between atoms: C_10  and  C_11 
REMARK    2  A    between atoms: C_11  and  C_12 
REMARK    3  A    between atoms: C_12  and  O_14 
ROOT
HETATM    1  C   UNL     1       1.039  -0.372   0.073  1.00  0.00     0.069 C 
HETATM    2  C   UNL     1       2.533  -0.134   0.084  1.00  0.00     0.018 A 
HETATM    3  N   UNL     1       3.270  -1.197   0.104  1.00  0.00    -0.312 N 
ATOM      4  HN  UNL     1       2.841  -2.122   0.114  1.00  0.00     0.170 HD
HETATM    5  C   UNL     1       4.627  -1.065   0.111  1.00  0.00     0.324 A 
HETATM    6  O   UNL     1       5.394  -2.024   0.102  1.00  0.00    -0.247 OA
HETATM    7  N   UNL     1       5.140   0.202   0.116  1.00  0.00    -0.312 N 
HETATM    8  C   UNL     1       4.398   1.352   0.075  1.00  0.00     0.018 A 
HETATM    9  C   UNL     1       5.185   2.633   0.018  1.00  0.00     0.069 C 
HETATM   10  C   UNL     1       3.051   1.276   0.059  1.00  0.00    -0.004 A 
HETATM   11  H   UNL     1       6.153   0.232   0.119  1.00  0.00     0.170 HD
ENDROOT
BRANCH  10  12
HETATM   12  C   UNL     1       2.108   2.441  -0.088  1.00  0.00     0.152 C 
BRANCH  12  13
HETATM   13  C   UNL     1       2.127   3.457   1.044  1.00  0.00     0.143 C 
HETATM   14  O   UNL     1       2.761   3.367   2.082  1.00  0.00    -0.650 OA
BRANCH  13  15
HETATM   15  O   UNL     1       1.326   4.522   0.785  1.00  0.00    -0.776 OA
HETATM   16  H   UNL     1       0.849   4.486  -0.066  1.00  0.00     0.167 HD
ENDBRANCH  13  15
ENDBRANCH  12  13
ENDBRANCH  10  12
TORSDOF 3
