REMARK  3 active torsions:
REMARK  status: ('A' for Active; 'I' for Inactive)
REMARK    1  A    between atoms: C_6  and  N_7 
REMARK       I    between atoms: N_7  and  C_8 
REMARK       I    between atoms: C_8  and  N_10 
REMARK    2  A    between atoms: N_10  and  C_11 
REMARK    3  A    between atoms: C_14  and  O_15 
ROOT
HETATM    1  N   UNL     1       5.210  -2.643  -0.627  1.00  0.00    -0.295 N 
HETATM    2  C   UNL     1       4.332  -3.676  -0.484  1.00  0.00     0.322 C 
HETATM    3  O   UNL     1       3.130  -3.442  -0.384  1.00  0.00    -0.247 OA
HETATM    4  N   UNL     1       4.854  -4.939  -0.510  1.00  0.00    -0.338 N 
HETATM    5  H   UNL     1       4.755  -1.746  -0.707  1.00  0.00     0.172 HD
HETATM    6  H   UNL     1       5.867  -4.970  -0.398  1.00  0.00     0.164 HD
ENDROOT
BRANCH   1   7
HETATM    7  C   UNL     1       6.604  -2.693  -0.675  1.00  0.00     0.109 A 
HETATM    8  C   UNL     1       7.294  -1.549  -1.046  1.00  0.00     0.049 A 
HETATM    9  C   UNL     1       8.682  -1.615  -1.146  1.00  0.00     0.006 A 
HETATM   10  C   UNL     1       9.337  -2.804  -0.838  1.00  0.00     0.025 A 
HETATM   11  C   UNL     1       8.580  -3.893  -0.432  1.00  0.00     0.007 A 
HETATM   12  C   UNL     1       9.206  -5.206  -0.076  1.00  0.00     0.068 C 
HETATM   13  N   UNL     1       7.231  -3.850  -0.369  1.00  0.00    -0.346 N 
ATOM     14  HN  UNL     1       6.697  -4.675  -0.096  1.00  0.00     0.167 HD
ENDBRANCH   1   7
BRANCH   4  15
HETATM   15  C   UNL     1       4.053  -6.114  -0.218  1.00  0.00     0.086 C 
HETATM   16  C   UNL     1       4.911  -7.238   0.390  1.00  0.00     0.028 C 
HETATM   17  C   UNL     1       5.394  -8.296  -0.594  1.00  0.00     0.034 C 
HETATM   18  C   UNL     1       4.267  -8.810  -1.478  1.00  0.00     0.118 C 
HETATM   19  C   UNL     1       3.684  -7.662  -2.289  1.00  0.00     0.034 C 
HETATM   20  C   UNL     1       3.175  -6.510  -1.423  1.00  0.00     0.028 C 
BRANCH  18  21
HETATM   21  O   UNL     1       3.257  -9.453  -0.694  1.00  0.00    -0.396 OA
HETATM   22  H   UNL     1       2.822  -8.789  -0.133  1.00  0.00     0.210 HD
ENDBRANCH  18  21
ENDBRANCH   4  15
TORSDOF 3
