REMARK  8 active torsions:
REMARK  status: ('A' for Active; 'I' for Inactive)
REMARK    1  A    between atoms: O_2  and  C_3 
REMARK    2  A    between atoms: C_6  and  C_7 
REMARK    3  A    between atoms: C_7  and  C_8 
REMARK    4  A    between atoms: N_17  and  C_18 
REMARK    5  A    between atoms: C_18  and  C_19 
REMARK    6  A    between atoms: C_19  and  O_20 
REMARK    7  A    between atoms: C_19  and  C_21 
REMARK    8  A    between atoms: C_21  and  O_22 
ROOT
HETATM    1  C   UNL     1       6.222   3.164   4.164  1.00  0.00     0.088 A 
HETATM    2  N   UNL     1       7.104   3.884   4.829  1.00  0.00    -0.344 N 
ATOM      3  HN  UNL     1       7.154   4.902   4.874  1.00  0.00     0.167 HD
HETATM    4  C   UNL     1       7.937   2.995   5.446  1.00  0.00     0.060 A 
HETATM    5  C   UNL     1       9.094   3.248   6.197  1.00  0.00     0.032 A 
HETATM    6  C   UNL     1       9.809   2.169   6.723  1.00  0.00     0.002 A 
HETATM    7  C   UNL     1       9.379   0.862   6.502  1.00  0.00     0.002 A 
HETATM    8  C   UNL     1       8.237   0.590   5.737  1.00  0.00     0.032 A 
HETATM    9  C   UNL     1       7.529   1.684   5.216  1.00  0.00     0.062 A 
HETATM   10  N   UNL     1       6.412   1.810   4.411  1.00  0.00    -0.332 N 
ENDROOT
BRANCH   1  11
HETATM   11  C   UNL     1       5.279   3.761   3.157  1.00  0.00     0.115 C 
BRANCH  11  12
HETATM   12  C   UNL     1       3.794   3.609   3.402  1.00  0.00    -0.051 A 
HETATM   13  C   UNL     1       3.222   3.523   4.677  1.00  0.00     0.010 A 
HETATM   14  C   UNL     1       1.839   3.337   4.830  1.00  0.00     0.037 A 
HETATM   15  C   UNL     1       1.009   3.267   3.711  1.00  0.00     0.068 A 
HETATM   16  C   UNL     1       1.562   3.446   2.445  1.00  0.00     0.037 A 
HETATM   17  C   UNL     1       2.937   3.622   2.290  1.00  0.00     0.010 A 
BRANCH  15  18
HETATM   18  O   UNL     1      -0.338   3.038   3.709  1.00  0.00    -0.356 OA
HETATM   19  C   UNL     1      -0.948   2.745   4.958  1.00  0.00     0.210 C 
ENDBRANCH  15  18
ENDBRANCH  11  12
ENDBRANCH   1  11
BRANCH  10  20
HETATM   20  C   UNL     1       5.712   0.707   3.770  1.00  0.00     0.164 C 
BRANCH  20  21
HETATM   21  C   UNL     1       5.039  -0.305   4.717  1.00  0.00     0.160 C 
BRANCH  21  22
HETATM   22  O   UNL     1       4.036   0.304   5.537  1.00  0.00    -0.392 OA
HETATM   23  H   UNL     1       3.549   0.951   4.990  1.00  0.00     0.210 HD
ENDBRANCH  21  22
BRANCH  21  24
HETATM   24  C   UNL     1       4.376  -1.433   3.913  1.00  0.00     0.197 C 
BRANCH  24  25
HETATM   25  O   UNL     1       3.407  -0.899   3.014  1.00  0.00    -0.398 OA
HETATM   26  H   UNL     1       2.651  -0.608   3.557  1.00  0.00     0.209 HD
ENDBRANCH  24  25
ENDBRANCH  21  24
ENDBRANCH  20  21
ENDBRANCH  10  20
TORSDOF 8
