REMARK  11 active torsions:
REMARK  status: ('A' for Active; 'I' for Inactive)
REMARK    1  A    between atoms: N_1  and  C1*_2 
REMARK    2  A    between atoms: C2*_7  and  O2*_20 
REMARK    3  A    between atoms: C_10  and  N_15 
REMARK    4  A    between atoms: C3*_11  and  O3*_21 
REMARK    5  A    between atoms: C4*_12  and  C5*_24 
REMARK    6  A    between atoms: N_15  and  C_19 
REMARK    7  A    between atoms: C_19  and  C_22 
REMARK    8  A    between atoms: C_19  and  C_23 
REMARK    9  A    between atoms: C_23  and  C_27 
REMARK   10  A    between atoms: C5*_24  and  O5*_25 
REMARK   11  A    between atoms: O_26  and  C_27 
ROOT
HETATM    1  N   UNL     1       4.309   2.639  -0.519  1.00  0.00    -0.297 N 
HETATM    2  C   UNL     1       4.370   1.391  -1.082  1.00  0.00     0.142 A 
HETATM    3  C   UNL     1       5.132   1.554  -2.229  1.00  0.00     0.122 A 
HETATM    4  N   UNL     1       5.493   2.870  -2.403  1.00  0.00    -0.346 N 
ATOM      5  HN  UNL     1       6.054   3.269  -3.156  1.00  0.00     0.167 HD
HETATM    6  C   UNL     1       4.954   3.497  -1.384  1.00  0.00     0.188 A 
HETATM    7  C   UNL     1       5.386   0.413  -3.013  1.00  0.00     0.133 A 
HETATM    8  N   UNL     1       3.826   0.244  -0.644  1.00  0.00    -0.336 N 
ATOM      9  HN  UNL     1       3.255   0.161   0.197  1.00  0.00     0.168 HD
HETATM   10  N   UNL     1       4.901  -0.775  -2.575  1.00  0.00    -0.337 N 
ATOM     11  HN  UNL     1       5.110  -1.640  -3.073  1.00  0.00     0.168 HD
HETATM   12  C   UNL     1       4.133  -0.785  -1.462  1.00  0.00     0.183 A 
ENDROOT
BRANCH   7  13
HETATM   13  N   UNL     1       6.050   0.546  -4.209  1.00  0.00    -0.369 N 
HETATM   14  H   UNL     1       6.246   1.504  -4.478  1.00  0.00     0.161 HD
BRANCH  13  15
HETATM   15  C   UNL     1       6.394  -0.528  -5.120  1.00  0.00     0.089 C 
BRANCH  15  16
HETATM   16  C   UNL     1       5.320  -0.776  -6.230  1.00  0.00     0.008 C 
HETATM   17  C   UNL     1       4.991   0.417  -7.145  1.00  0.00     0.007 C 
HETATM   18  C   UNL     1       3.995   1.401  -6.545  1.00  0.00     0.000 C 
HETATM   19  C   UNL     1       2.700   0.715  -6.135  1.00  0.00     0.000 C 
HETATM   20  C   UNL     1       2.925  -0.505  -5.249  1.00  0.00     0.000 C 
HETATM   21  C   UNL     1       4.022  -1.447  -5.743  1.00  0.00     0.007 C 
ENDBRANCH  15  16
BRANCH  15  22
HETATM   22  C   UNL     1       7.753  -0.162  -5.771  1.00  0.00     0.051 C 
BRANCH  22  23
HETATM   23  C   UNL     1       8.903  -0.084  -4.775  1.00  0.00     0.166 C 
BRANCH  23  24
HETATM   24  O   UNL     1      10.093   0.240  -5.493  1.00  0.00    -0.401 OA
HETATM   25  H   UNL     1      10.798   0.361  -4.834  1.00  0.00     0.209 HD
ENDBRANCH  23  24
ENDBRANCH  22  23
ENDBRANCH  15  22
ENDBRANCH  13  15
ENDBRANCH   7  13
BRANCH   1  26
HETATM   26  C1* UNL     1       3.644   3.082   0.694  1.00  0.00     0.262 C 
HETATM   27  C2* UNL     1       3.426   2.077   1.834  1.00  0.00     0.198 C 
HETATM   28  C3* UNL     1       4.290   2.582   2.995  1.00  0.00     0.182 C 
HETATM   29  C4* UNL     1       5.166   3.671   2.390  1.00  0.00     0.179 C 
HETATM   30  O4* UNL     1       4.439   4.164   1.248  1.00  0.00    -0.353 OA
BRANCH  27  31
HETATM   31  O2* UNL     1       2.039   2.060   2.220  1.00  0.00    -0.388 OA
HETATM   32  H2* UNL     1       2.018   2.361   3.154  1.00  0.00     0.210 HD
ENDBRANCH  27  31
BRANCH  28  33
HETATM   33  O3* UNL     1       3.424   3.093   4.028  1.00  0.00    -0.390 OA
HETATM   34  H3* UNL     1       3.438   4.065   4.004  1.00  0.00     0.210 HD
ENDBRANCH  28  33
BRANCH  29  35
HETATM   35  C5* UNL     1       6.550   3.154   1.976  1.00  0.00     0.198 C 
BRANCH  35  36
HETATM   36  O5* UNL     1       7.334   4.212   1.433  1.00  0.00    -0.398 OA
HETATM   37  H5* UNL     1       6.978   4.417   0.549  1.00  0.00     0.209 HD
ENDBRANCH  35  36
ENDBRANCH  29  35
ENDBRANCH   1  26
TORSDOF 11
