REMARK  6 active torsions:
REMARK  status: ('A' for Active; 'I' for Inactive)
REMARK    1  A    between atoms: C_2  and  C_5 
REMARK    2  A    between atoms: N_10  and  C_11 
REMARK    3  A    between atoms: C_11  and  C_12 
REMARK       I    between atoms: C_12  and  N_14 
REMARK    4  A    between atoms: N_14  and  C_15 
REMARK    5  A    between atoms: C_15  and  C_20 
REMARK    6  A    between atoms: C_20  and  N_21 
ROOT
HETATM    1  C   UNL     1       0.060  -4.309  -0.795  1.00  0.00     0.237 C 
HETATM    2  O   UNL     1       0.001  -3.223  -1.368  1.00  0.00    -0.272 OA
HETATM    3  N   UNL     1      -1.046  -5.116  -0.626  1.00  0.00    -0.339 N 
HETATM    4  H   UNL     1      -0.899  -6.040  -0.243  1.00  0.00     0.164 HD
ENDROOT
BRANCH   1   5
HETATM    5  C   UNL     1       1.344  -4.766  -0.090  1.00  0.00     0.234 C 
BRANCH   5   6
HETATM    6  N   UNL     1       1.418  -6.216   0.112  1.00  0.00    -0.315 N 
HETATM    7  C   UNL     1       0.978  -6.742   1.325  1.00  0.00     0.247 A 
HETATM    8  C   UNL     1       1.053  -8.219   1.451  1.00  0.00     0.075 A 
HETATM    9  O   UNL     1       0.494  -6.080   2.236  1.00  0.00    -0.268 OA
HETATM   10  C   UNL     1       1.493  -8.966   0.429  1.00  0.00     0.023 A 
HETATM   11  C   UNL     1       1.924  -8.354  -0.815  1.00  0.00     0.063 A 
HETATM   12  C   UNL     1       1.880  -7.014  -0.923  1.00  0.00     0.110 A 
BRANCH  11  13
HETATM   13  C   UNL     1       2.374  -9.226  -1.956  1.00  0.00     0.418 C 
HETATM   14  F   UNL     1       2.159 -10.547  -1.727  1.00  0.00    -0.166 F 
HETATM   15  F   UNL     1       3.698  -9.078  -2.210  1.00  0.00    -0.166 F 
HETATM   16  F   UNL     1       1.715  -8.918  -3.101  1.00  0.00    -0.166 F 
ENDBRANCH  11  13
ENDBRANCH   5   6
ENDBRANCH   1   5
BRANCH   3  17
HETATM   17  C   UNL     1      -2.365  -4.782  -1.168  1.00  0.00     0.104 C 
HETATM   18  C   UNL     1      -2.852  -3.391  -0.700  1.00  0.00     0.045 C 
HETATM   19  C   UNL     1      -4.345  -3.514  -0.388  1.00  0.00     0.004 C 
HETATM   20  C   UNL     1      -4.734  -4.950  -0.704  1.00  0.00     0.004 C 
HETATM   21  C   UNL     1      -3.432  -5.731  -0.598  1.00  0.00     0.045 C 
BRANCH  17  22
HETATM   22  C   UNL     1      -2.350  -4.851  -2.686  1.00  0.00    -0.046 C 
BRANCH  22  23
HETATM   23  N   UNL     1      -2.338  -4.907  -3.946  1.00  0.00    -0.367 N 
ATOM     24  HN2 UNL     1      -2.366  -4.809  -2.931  1.00  0.00     0.165 HD
ATOM     25  HN1 UNL     1      -2.328  -4.953  -4.965  1.00  0.00     0.165 HD
ENDBRANCH  22  23
ENDBRANCH  17  22
ENDBRANCH   3  17
TORSDOF 6
