REMARK  7 active torsions:
REMARK  status: ('A' for Active; 'I' for Inactive)
REMARK    1  A    between atoms: C_2  and  N_3 
REMARK    2  A    between atoms: C_2  and  C_18 
REMARK    3  A    between atoms: C_2  and  C_22 
REMARK       I    between atoms: N_3  and  C_4 
REMARK    4  A    between atoms: C_4  and  C_6 
REMARK    5  A    between atoms: C_6  and  N_7 
REMARK    6  A    between atoms: C_9  and  C_14 
REMARK    7  A    between atoms: C_18  and  N_19 
ROOT
HETATM    1  N   UNL     1       2.878  -0.109   1.481  1.00  0.00    -0.339 N 
HETATM    2  C   UNL     1       2.349   0.750   2.427  1.00  0.00     0.237 C 
HETATM    3  O   UNL     1       1.378   1.473   2.215  1.00  0.00    -0.272 OA
HETATM    4  H   UNL     1       3.839  -0.413   1.625  1.00  0.00     0.164 HD
ENDROOT
BRANCH   2   5
HETATM    5  C   UNL     1       3.102   0.802   3.755  1.00  0.00     0.234 C 
BRANCH   5   6
HETATM    6  N   UNL     1       4.152   1.814   3.698  1.00  0.00    -0.315 N 
HETATM    7  C   UNL     1       3.891   3.112   4.117  1.00  0.00     0.110 A 
HETATM    8  C   UNL     1       4.829   4.075   4.064  1.00  0.00     0.063 A 
HETATM    9  C   UNL     1       6.149   3.728   3.566  1.00  0.00     0.023 A 
HETATM   10  C   UNL     1       6.426   2.487   3.137  1.00  0.00     0.075 A 
HETATM   11  C   UNL     1       5.375   1.439   3.155  1.00  0.00     0.247 A 
HETATM   12  O   UNL     1       5.607   0.326   2.685  1.00  0.00    -0.268 OA
BRANCH   8  13
HETATM   13  C   UNL     1       4.552   5.491   4.494  1.00  0.00     0.418 C 
HETATM   14  F   UNL     1       5.607   6.324   4.289  1.00  0.00    -0.166 F 
HETATM   15  F   UNL     1       3.502   6.025   3.821  1.00  0.00    -0.166 F 
HETATM   16  F   UNL     1       4.250   5.563   5.816  1.00  0.00    -0.166 F 
ENDBRANCH   8  13
ENDBRANCH   5   6
ENDBRANCH   2   5
BRANCH   1  17
HETATM   17  C   UNL     1       2.311  -0.234   0.132  1.00  0.00     0.104 C 
HETATM   18  C   UNL     1       2.396   1.090  -0.645  1.00  0.00     0.054 C 
BRANCH  17  19
HETATM   19  C   UNL     1       0.856  -0.670   0.188  1.00  0.00    -0.046 C 
BRANCH  19  20
HETATM   20  N   UNL     1      -0.351  -1.032   0.235  1.00  0.00    -0.367 N 
ATOM     21  HN2 UNL     1       0.629  -0.751   0.219  1.00  0.00     0.165 HD
ATOM     22  HN1 UNL     1      -1.327  -1.325   0.273  1.00  0.00     0.165 HD
ENDBRANCH  19  20
ENDBRANCH  17  19
BRANCH  17  23
HETATM   23  C   UNL     1       2.993  -1.402  -0.566  1.00  0.00     0.027 A 
HETATM   24  C   UNL     1       4.448  -1.343  -0.986  1.00  0.00     0.009 A 
HETATM   25  C   UNL     1       3.374  -1.392  -2.036  1.00  0.00     0.009 A 
ENDBRANCH  17  23
ENDBRANCH   1  17
TORSDOF 7
