REMARK  3 active torsions:
REMARK  status: ('A' for Active; 'I' for Inactive)
REMARK    1  A    between atoms: C_6  and  N_8 
REMARK       I    between atoms: N_8  and  C_9 
REMARK    2  A    between atoms: C_9  and  C_11 
REMARK    3  A    between atoms: C_11  and  C_12 
ROOT
HETATM    1  C   UNL     1       2.919  -5.280  -3.509  1.00  0.00     0.149 C 
ENDROOT
BRANCH   1   2
HETATM    2  C   UNL     1       2.294  -3.942  -3.147  1.00  0.00     0.222 C 
HETATM    3  N   UNL     1       3.020  -3.187  -2.247  1.00  0.00    -0.356 N 
HETATM    4  H   UNL     1       3.732  -3.661  -1.695  1.00  0.00     0.162 HD
HETATM    5  O   UNL     1       1.233  -3.571  -3.641  1.00  0.00    -0.273 OA
BRANCH   3   6
HETATM    6  C   UNL     1       2.586  -1.852  -1.852  1.00  0.00     0.084 C 
HETATM    7  C   UNL     1       3.773  -1.015  -1.362  1.00  0.00     0.025 C 
HETATM    8  C   UNL     1       3.344   0.392  -0.946  1.00  0.00     0.002 C 
HETATM    9  C   UNL     1       2.211   0.368   0.078  1.00  0.00     0.004 C 
HETATM   10  C   UNL     1       1.016  -0.488  -0.368  1.00  0.00    -0.017 C 
HETATM   11  C   UNL     1       0.217   0.198  -1.482  1.00  0.00     0.010 C 
HETATM   12  C   UNL     1       1.484  -1.895  -0.783  1.00  0.00     0.029 C 
ENDBRANCH   3   6
ENDBRANCH   1   2
BRANCH   1  13
HETATM   13  C   UNL     1       2.362  -6.363  -2.634  1.00  0.00     0.041 A 
HETATM   14  C   UNL     1       1.308  -7.166  -2.882  1.00  0.00     0.018 A 
HETATM   15  C   UNL     1       0.481  -7.089  -4.141  1.00  0.00     0.069 C 
HETATM   16  N   UNL     1       0.870  -8.142  -2.011  1.00  0.00    -0.349 N 
HETATM   17  C   UNL     1       1.514  -8.307  -0.907  1.00  0.00     0.080 A 
ATOM     18  HN  UNL     1       0.058  -8.718  -2.235  1.00  0.00     0.167 HD
HETATM   19  C   UNL     1       1.091  -9.350   0.085  1.00  0.00     0.089 C 
HETATM   20  N   UNL     1       2.607  -7.571  -0.562  1.00  0.00    -0.313 N 
HETATM   21  C   UNL     1       3.079  -6.570  -1.352  1.00  0.00     0.255 A 
HETATM   22  H   UNL     1       3.093  -7.728   0.309  1.00  0.00     0.170 HD
HETATM   23  O   UNL     1       4.038  -5.876  -1.024  1.00  0.00    -0.268 OA
ENDBRANCH   1  13
TORSDOF 3
