REMARK  6 active torsions:
REMARK  status: ('A' for Active; 'I' for Inactive)
REMARK    1  A    between atoms: O_1  and  C_2 
REMARK    2  A    between atoms: C_2  and  C_3 
REMARK    3  A    between atoms: C_3  and  C_4 
REMARK    4  A    between atoms: C_4  and  N_5 
REMARK    5  A    between atoms: C_4  and  C_16 
REMARK       I    between atoms: N_5  and  C_6 
REMARK       I    between atoms: C_6  and  N_8 
REMARK    6  A    between atoms: N_8  and  C_9 
ROOT
HETATM    1  N   UNL     1       4.987  -0.790  -0.756  1.00  0.00    -0.338 N 
HETATM    2  C   UNL     1       6.150  -1.023  -0.096  1.00  0.00     0.322 C 
HETATM    3  O   UNL     1       6.880  -0.140   0.349  1.00  0.00    -0.247 OA
HETATM    4  N   UNL     1       6.509  -2.328   0.072  1.00  0.00    -0.295 N 
HETATM    5  H   UNL     1       4.550  -1.628  -1.137  1.00  0.00     0.164 HD
HETATM    6  H   UNL     1       7.391  -2.434   0.550  1.00  0.00     0.172 HD
ENDROOT
BRANCH   1   7
HETATM    7  C   UNL     1       4.431   0.510  -1.123  1.00  0.00     0.092 C 
BRANCH   7   8
HETATM    8  C   UNL     1       2.890   0.405  -1.080  1.00  0.00     0.051 C 
BRANCH   8   9
HETATM    9  C   UNL     1       2.323  -0.025   0.268  1.00  0.00     0.166 C 
BRANCH   9  10
HETATM   10  O   UNL     1       0.900  -0.034   0.167  1.00  0.00    -0.401 OA
HETATM   11  H   UNL     1       0.555  -0.319   1.030  1.00  0.00     0.209 HD
ENDBRANCH   9  10
ENDBRANCH   8   9
ENDBRANCH   7   8
BRANCH   7  12
HETATM   12  C   UNL     1       4.920   0.937  -2.551  1.00  0.00     0.008 C 
HETATM   13  C   UNL     1       6.454   1.007  -2.699  1.00  0.00     0.007 C 
HETATM   14  C   UNL     1       7.066   2.170  -1.922  1.00  0.00     0.000 C 
HETATM   15  C   UNL     1       6.461   3.506  -2.333  1.00  0.00     0.000 C 
HETATM   16  C   UNL     1       4.935   3.492  -2.313  1.00  0.00     0.000 C 
HETATM   17  C   UNL     1       4.349   2.284  -3.044  1.00  0.00     0.007 C 
ENDBRANCH   7  12
ENDBRANCH   1   7
BRANCH   4  18
HETATM   18  C   UNL     1       5.805  -3.483  -0.284  1.00  0.00     0.108 A 
HETATM   19  C   UNL     1       6.350  -4.713   0.057  1.00  0.00     0.049 A 
HETATM   20  C   UNL     1       5.643  -5.873  -0.259  1.00  0.00     0.005 A 
HETATM   21  C   UNL     1       4.418  -5.771  -0.906  1.00  0.00     0.017 A 
HETATM   22  C   UNL     1       3.955  -4.511  -1.220  1.00  0.00     0.089 A 
HETATM   23  N   UNL     1       4.618  -3.371  -0.924  1.00  0.00    -0.352 N 
ATOM     24  HN  UNL     1       4.237  -2.458  -1.174  1.00  0.00     0.166 HD
ENDBRANCH   4  18
TORSDOF 6
