REMARK  6 active torsions:
REMARK  status: ('A' for Active; 'I' for Inactive)
REMARK    1  A    between atoms: C_4  and  N_5 
REMARK       I    between atoms: N_5  and  C_6 
REMARK       I    between atoms: C_6  and  N_8 
REMARK    2  A    between atoms: N_8  and  C_9 
REMARK    3  A    between atoms: C_9  and  C_10 
REMARK    4  A    between atoms: N_13  and  C_14 
REMARK    5  A    between atoms: C_14  and  C_15 
REMARK    6  A    between atoms: C_15  and  O_16 
ROOT
HETATM    1  N   UNL     1       4.111   7.795  -0.262  1.00  0.00    -0.293 N 
HETATM    2  C   UNL     1       4.839   6.667  -0.558  1.00  0.00     0.321 C 
HETATM    3  O   UNL     1       4.675   5.922  -1.515  1.00  0.00    -0.247 OA
HETATM    4  N   UNL     1       5.840   6.447   0.372  1.00  0.00    -0.342 N 
HETATM    5  H   UNL     1       4.339   8.321   0.564  1.00  0.00     0.172 HD
HETATM    6  H   UNL     1       5.861   6.986   1.223  1.00  0.00     0.164 HD
ENDROOT
BRANCH   4   7
HETATM    7  C   UNL     1       6.658   5.255   0.299  1.00  0.00     0.129 C 
BRANCH   7   8
HETATM    8  C   UNL     1       8.157   5.567   0.143  1.00  0.00     0.007 C 
HETATM    9  C   UNL     1       8.492   6.363  -1.130  1.00  0.00     0.036 C 
HETATM   10  C   UNL     1       8.380   5.522  -2.410  1.00  0.00     0.273 C 
HETATM   11  N   UNL     1       9.112   4.238  -2.366  1.00  0.00     0.090 N 
HETATM   12  C   UNL     1       8.742   3.478  -1.164  1.00  0.00     0.273 C 
HETATM   13  C   UNL     1       8.959   4.258   0.136  1.00  0.00     0.036 C 
BRANCH  11  14
HETATM   14  C   UNL     1      10.568   4.433  -2.529  1.00  0.00     0.298 C 
BRANCH  14  15
HETATM   15  C   UNL     1      11.349   3.108  -2.615  1.00  0.00     0.194 C 
BRANCH  15  16
HETATM   16  O   UNL     1      10.806   2.274  -3.634  1.00  0.00    -0.399 OA
HETATM   17  H   UNL     1       9.842   2.443  -3.618  1.00  0.00     0.209 HD
ENDBRANCH  15  16
ENDBRANCH  14  15
ENDBRANCH  11  14
ENDBRANCH   7   8
ENDBRANCH   4   7
BRANCH   1  18
HETATM   18  C   UNL     1       3.055   8.250  -1.033  1.00  0.00     0.132 A 
HETATM   19  C   UNL     1       2.288   9.396  -0.714  1.00  0.00     0.084 A 
HETATM   20  C   UNL     1       1.350   9.473  -1.713  1.00  0.00     0.076 A 
HETATM   21  C   UNL     1       0.230  10.378  -2.016  1.00  0.00     0.079 C 
HETATM   22  O   UNL     1       1.546   8.452  -2.583  1.00  0.00    -0.241 OA
HETATM   23  N   UNL     1       2.611   7.690  -2.158  1.00  0.00    -0.245 N 
ATOM     24  HN  UNL     1       2.987   6.859  -2.615  1.00  0.00     0.196 HD
ENDBRANCH   1  18
TORSDOF 6
