REMARK  4 active torsions:
REMARK  status: ('A' for Active; 'I' for Inactive)
REMARK    1  A    between atoms: C_6  and  C_7 
REMARK    2  A    between atoms: C_7  and  C_8 
REMARK    3  A    between atoms: C_8  and  N_9 
REMARK       I    between atoms: N_9  and  C_10 
REMARK    4  A    between atoms: C_10  and  C_12 
ROOT
HETATM    1  N   UNL     1       8.745   0.459  -0.066  1.00  0.00    -0.360 N 
HETATM    2  C   UNL     1       9.682  -0.475   0.319  1.00  0.00     0.222 C 
HETATM    3  O   UNL     1       9.369  -1.556   0.809  1.00  0.00    -0.273 OA
HETATM    4  H   UNL     1       9.053   1.364  -0.402  1.00  0.00     0.162 HD
ENDROOT
BRANCH   1   5
HETATM    5  C   UNL     1       7.320   0.223   0.110  1.00  0.00     0.130 C 
BRANCH   5   6
HETATM    6  C   UNL     1       6.803   0.617   1.494  1.00  0.00     0.106 C 
BRANCH   6   7
HETATM    7  C   UNL     1       6.822   2.086   1.681  1.00  0.00     0.149 A 
HETATM    8  O   UNL     1       7.943   2.620   2.246  1.00  0.00    -0.223 OA
HETATM    9  N   UNL     1       7.736   3.998   2.306  1.00  0.00    -0.248 N 
HETATM   10  C   UNL     1       6.512   4.148   1.784  1.00  0.00     0.100 A 
ATOM     11  HN  UNL     1       8.365   4.718   2.662  1.00  0.00     0.196 HD
HETATM   12  C   UNL     1       5.856   5.463   1.657  1.00  0.00     0.091 C 
HETATM   13  N   UNL     1       5.914   2.985   1.370  1.00  0.00    -0.327 N 
ATOM     14  HN  UNL     1       5.002   2.852   0.934  1.00  0.00     0.169 HD
ENDBRANCH   6   7
ENDBRANCH   5   6
ENDBRANCH   1   5
BRANCH   2  15
HETATM   15  C   UNL     1      11.123  -0.046   0.068  1.00  0.00     0.082 C 
HETATM   16  C   UNL     1      12.174  -1.117   0.435  1.00  0.00     0.019 C 
HETATM   17  C   UNL     1      13.066  -0.391   1.456  1.00  0.00    -0.013 C 
HETATM   18  C   UNL     1      12.274  -0.197   2.761  1.00  0.00     0.005 C 
HETATM   19  C   UNL     1      13.099   1.024   0.881  1.00  0.00     0.010 C 
HETATM   20  C   UNL     1      11.294   0.931   2.406  1.00  0.00     0.006 C 
HETATM   21  C   UNL     1      11.574   1.172   0.912  1.00  0.00    -0.001 C 
ENDBRANCH   2  15
TORSDOF 4
