REMARK  5 active torsions:
REMARK  status: ('A' for Active; 'I' for Inactive)
REMARK    1  A    between atoms: C_9  and  C_10 
REMARK    2  A    between atoms: C_10  and  C_11 
REMARK    3  A    between atoms: C_11  and  N_12 
REMARK       I    between atoms: N_12  and  C_13 
REMARK    4  A    between atoms: C_13  and  C_15 
REMARK    5  A    between atoms: C_15  and  N_16 
ROOT
HETATM    1  N   UNL     1       1.614   4.503   0.196  1.00  0.00    -0.359 N 
HETATM    2  C   UNL     1       0.274   4.874   0.214  1.00  0.00     0.235 C 
HETATM    3  O   UNL     1      -0.613   4.019   0.195  1.00  0.00    -0.272 OA
HETATM    4  H   UNL     1       2.313   5.207  -0.007  1.00  0.00     0.162 HD
ENDROOT
BRANCH   1   5
HETATM    5  C   UNL     1       1.946   3.087   0.073  1.00  0.00     0.127 C 
BRANCH   5   6
HETATM    6  C   UNL     1       3.445   2.768   0.034  1.00  0.00     0.062 C 
BRANCH   6   7
HETATM    7  C   UNL     1       3.710   1.288   0.026  1.00  0.00    -0.009 A 
HETATM    8  C   UNL     1       3.845   0.419  -1.096  1.00  0.00     0.030 A 
HETATM    9  C   UNL     1       3.770   0.740  -2.544  1.00  0.00     0.070 C 
HETATM   10  N   UNL     1       4.068  -0.845  -0.723  1.00  0.00    -0.303 N 
HETATM   11  N   UNL     1       4.069  -0.807   0.618  1.00  0.00    -0.300 N 
ATOM     12  HN  UNL     1       4.207  -1.657  -1.324  1.00  0.00     0.186 HD
HETATM   13  C   UNL     1       4.266  -2.038   1.346  1.00  0.00     0.177 C 
HETATM   14  C   UNL     1       3.868   0.451   1.124  1.00  0.00     0.032 A 
HETATM   15  C   UNL     1       3.833   0.758   2.579  1.00  0.00     0.070 C 
ENDBRANCH   6   7
ENDBRANCH   5   6
ENDBRANCH   1   5
BRANCH   2  16
HETATM   16  C   UNL     1      -0.015   6.385   0.334  1.00  0.00     0.228 C 
BRANCH  16  17
HETATM   17  N   UNL     1      -1.218   6.813  -0.396  1.00  0.00    -0.343 N 
HETATM   18  C   UNL     1      -2.526   6.351   0.061  1.00  0.00     0.126 C 
HETATM   19  C   UNL     1      -3.514   6.261  -1.091  1.00  0.00     0.020 C 
HETATM   20  C   UNL     1      -3.637   7.624  -1.752  1.00  0.00     0.011 C 
HETATM   21  C   UNL     1      -2.275   8.151  -2.174  1.00  0.00     0.103 C 
HETATM   22  C   UNL     1      -1.163   7.979  -1.151  1.00  0.00     0.220 C 
HETATM   23  O   UNL     1      -0.207   8.753  -1.123  1.00  0.00    -0.273 OA
ENDBRANCH  16  17
ENDBRANCH   2  16
TORSDOF 5
