REMARK  2 active torsions:
REMARK  status: ('A' for Active; 'I' for Inactive)
REMARK    1  A    between atoms: C_7  and  N_8 
REMARK       I    between atoms: N_8  and  C_9 
REMARK       I    between atoms: C_9  and  N_11 
REMARK    2  A    between atoms: N_11  and  C_12 
ROOT
HETATM    1  N   UNL     1       6.792   1.299   0.270  1.00  0.00    -0.288 N 
HETATM    2  C   UNL     1       7.928   0.668   0.702  1.00  0.00     0.322 C 
HETATM    3  O   UNL     1       8.014   0.276   1.859  1.00  0.00    -0.247 OA
HETATM    4  N   UNL     1       8.917   0.504  -0.218  1.00  0.00    -0.330 N 
HETATM    5  H   UNL     1       6.022   1.329   0.921  1.00  0.00     0.172 HD
HETATM    6  H   UNL     1       8.740   0.864  -1.150  1.00  0.00     0.165 HD
ENDROOT
BRANCH   1   7
HETATM    7  C   UNL     1       6.631   1.802  -0.990  1.00  0.00     0.169 A 
HETATM    8  N   UNL     1       7.541   1.902  -1.933  1.00  0.00    -0.279 N 
HETATM    9  N   UNL     1       7.024   2.381  -3.107  1.00  0.00    -0.296 N 
ATOM     10  HN  UNL     1       8.521   1.651  -1.805  1.00  0.00     0.189 HD
HETATM   11  C   UNL     1       5.732   2.621  -3.007  1.00  0.00     0.066 A 
ATOM     12  HN  UNL     1       7.571   2.533  -3.954  1.00  0.00     0.187 HD
HETATM   13  C   UNL     1       4.885   3.073  -4.135  1.00  0.00     0.078 C 
HETATM   14  S   UNL     1       5.078   2.332  -1.437  1.00  0.00    -0.038 SA
ENDBRANCH   1   7
BRANCH   4  15
HETATM   15  C   UNL     1      10.145  -0.253  -0.027  1.00  0.00     0.172 C 
HETATM   16  C   UNL     1      11.146   0.253  -1.071  1.00  0.00     0.034 C 
HETATM   17  C   UNL     1      12.567  -0.226  -0.823  1.00  0.00     0.004 C 
HETATM   18  C   UNL     1      12.880  -1.596  -1.411  1.00  0.00     0.015 C 
HETATM   19  C   UNL     1      11.788  -2.652  -1.321  1.00  0.00     0.095 C 
HETATM   20  N   UNL     1      10.966  -2.614  -0.130  1.00  0.00    -0.261 NA
HETATM   21  C   UNL     1       9.869  -1.773  -0.134  1.00  0.00     0.220 C 
HETATM   22  H   UNL     1      10.611  -3.542   0.076  1.00  0.00     0.130 HD
HETATM   23  O   UNL     1       8.749  -2.283  -0.129  1.00  0.00    -0.278 OA
ENDBRANCH   4  15
TORSDOF 2
