REMARK  5 active torsions:
REMARK  status: ('A' for Active; 'I' for Inactive)
REMARK    1  A    between atoms: N_7  and  C_8 
REMARK    2  A    between atoms: C_8  and  C_9 
REMARK    3  A    between atoms: C_9  and  N_10 
REMARK       I    between atoms: N_10  and  C_11 
REMARK    4  A    between atoms: C_11  and  C_13 
REMARK    5  A    between atoms: C_13  and  N_14 
ROOT
HETATM    1  N   UNL     1       2.589  -3.228   2.883  1.00  0.00    -0.358 N 
HETATM    2  C   UNL     1       2.933  -3.129   4.216  1.00  0.00     0.237 C 
HETATM    3  O   UNL     1       3.668  -2.240   4.646  1.00  0.00    -0.272 OA
HETATM    4  H   UNL     1       1.754  -3.770   2.648  1.00  0.00     0.162 HD
ENDROOT
BRANCH   1   5
HETATM    5  C   UNL     1       3.028  -2.221   1.937  1.00  0.00     0.152 C 
BRANCH   5   6
HETATM    6  C   UNL     1       2.518  -2.458   0.503  1.00  0.00     0.292 C 
BRANCH   6   7
HETATM    7  N   UNL     1       1.048  -2.513   0.361  1.00  0.00     0.094 N 
HETATM    8  C   UNL     1       0.633  -2.981  -0.984  1.00  0.00     0.219 C 
HETATM    9  C   UNL     1       1.154  -2.143  -2.164  1.00  0.00     0.043 C 
HETATM   10  C   UNL     1      -0.901  -3.113  -1.052  1.00  0.00     0.035 C 
HETATM   11  C   UNL     1      -1.613  -1.822  -0.665  1.00  0.00     0.004 C 
HETATM   12  C   UNL     1      -1.121  -1.343   0.692  1.00  0.00     0.030 C 
HETATM   13  C   UNL     1       0.405  -1.246   0.740  1.00  0.00     0.273 C 
ENDBRANCH   6   7
ENDBRANCH   5   6
ENDBRANCH   1   5
BRANCH   2  14
HETATM   14  C   UNL     1       2.441  -4.244   5.108  1.00  0.00     0.251 C 
BRANCH  14  15
HETATM   15  N   UNL     1       0.996  -4.335   5.121  1.00  0.00    -0.288 N 
HETATM   16  N   UNL     1       0.386  -5.011   4.123  1.00  0.00    -0.303 N 
HETATM   17  C   UNL     1      -0.915  -4.932   4.417  1.00  0.00     0.024 A 
ATOM     18  HN  UNL     1       0.820  -5.476   3.326  1.00  0.00     0.186 HD
HETATM   19  C   UNL     1      -1.928  -5.564   3.540  1.00  0.00     0.070 C 
HETATM   20  C   UNL     1      -1.134  -4.208   5.609  1.00  0.00     0.052 A 
HETATM   21  C   UNL     1       0.119  -3.841   6.053  1.00  0.00     0.027 A 
HETATM   22  C   UNL     1       0.527  -3.074   7.255  1.00  0.00     0.070 C 
ENDBRANCH  14  15
ENDBRANCH   2  14
TORSDOF 5
