REMARK  3 active torsions:
REMARK  status: ('A' for Active; 'I' for Inactive)
REMARK    1  A    between atoms: O_1  and  C_2 
REMARK    2  A    between atoms: C_2  and  C_4 
REMARK    3  A    between atoms: C_4  and  C_7 
ROOT
HETATM    1  C   UNL     1       4.573  -0.757   0.236  1.00  0.00     0.107 A 
HETATM    2  C   UNL     1       5.147   0.453   0.283  1.00  0.00     0.112 A 
HETATM    3  N   UNL     1       6.501   0.601   0.164  1.00  0.00    -0.318 N 
HETATM    4  C   UNL     1       7.367  -0.444  -0.007  1.00  0.00     0.327 A 
HETATM    5  O   UNL     1       8.572  -0.275  -0.157  1.00  0.00    -0.247 OA
HETATM    6  N   UNL     1       6.793  -1.684  -0.011  1.00  0.00    -0.275 N 
HETATM    7  C   UNL     1       5.452  -1.933   0.083  1.00  0.00     0.263 A 
HETATM    8  O   UNL     1       4.986  -3.066   0.030  1.00  0.00    -0.267 OA
HETATM    9  H   UNL     1       6.923   1.525   0.171  1.00  0.00     0.170 HD
HETATM   10  H   UNL     1       7.412  -2.471  -0.134  1.00  0.00     0.173 HD
ENDROOT
BRANCH   1  11
HETATM   11  C   UNL     1       3.109  -1.034   0.281  1.00  0.00     0.360 C 
HETATM   12  F   UNL     1       2.698  -1.628  -0.888  1.00  0.00    -0.188 F 
HETATM   13  F   UNL     1       2.405   0.142   0.322  1.00  0.00    -0.188 F 
BRANCH  11  14
HETATM   14  C   UNL     1       2.724  -1.925   1.481  1.00  0.00     0.221 C 
HETATM   15  O   UNL     1       2.964  -1.668   2.655  1.00  0.00    -0.645 OA
BRANCH  14  16
HETATM   16  O   UNL     1       2.025  -3.038   1.114  1.00  0.00    -0.772 OA
HETATM   17  H   UNL     1       1.973  -3.124   0.136  1.00  0.00     0.167 HD
ENDBRANCH  14  16
ENDBRANCH  11  14
ENDBRANCH   1  11
TORSDOF 3
