REMARK  6 active torsions:
REMARK  status: ('A' for Active; 'I' for Inactive)
REMARK    1  A    between atoms: S_2  and  C_3 
REMARK    2  A    between atoms: C_6  and  N_7 
REMARK    3  A    between atoms: N_7  and  C_8 
REMARK    4  A    between atoms: C_8  and  C_9 
REMARK    5  A    between atoms: N_11  and  C_12 
REMARK    6  A    between atoms: C_12  and  C_13 
ROOT
HETATM    1  N   UNL     1       5.267   2.729   5.817  1.00  0.00    -0.275 NA
HETATM    2  H   UNL     1       4.935   2.433   6.730  1.00  0.00     0.129 HD
ENDROOT
BRANCH   1   3
HETATM    3  C   UNL     1       5.356   1.650   4.930  1.00  0.00     0.094 A 
HETATM    4  C   UNL     1       6.013   0.500   5.348  1.00  0.00     0.046 A 
HETATM    5  C   UNL     1       6.209  -0.552   4.450  1.00  0.00     0.041 A 
HETATM    6  C   UNL     1       5.750  -0.416   3.153  1.00  0.00     0.084 A 
HETATM    7  N   UNL     1       5.106   0.700   2.768  1.00  0.00    -0.293 N 
HETATM    8  N   UNL     1       4.917   1.732   3.660  1.00  0.00    -0.289 N 
ATOM      9  HN  UNL     1       4.757   0.782   1.813  1.00  0.00     0.187 HD
ATOM     10  HN  UNL     1       4.434   2.576   3.352  1.00  0.00     0.188 HD
BRANCH   6  11
HETATM   11  S   UNL     1       6.020  -1.716   1.968  1.00  0.00    -0.116 SA
HETATM   12  C   UNL     1       5.303  -0.949   0.488  1.00  0.00     0.097 C 
ENDBRANCH   6  11
ENDBRANCH   1   3
BRANCH   1  13
HETATM   13  C   UNL     1       4.580   3.926   5.310  1.00  0.00     0.127 C 
BRANCH  13  14
HETATM   14  C   UNL     1       5.096   5.192   6.038  1.00  0.00     0.163 C 
HETATM   15  C   UNL     1       4.378   6.471   5.550  1.00  0.00     0.305 C 
HETATM   16  N   UNL     1       4.726   6.814   4.149  1.00  0.00     0.093 N 
HETATM   17  C   UNL     1       6.197   6.935   4.055  1.00  0.00     0.298 C 
HETATM   18  C   UNL     1       6.919   5.683   4.584  1.00  0.00     0.198 C 
HETATM   19  O   UNL     1       6.525   5.370   5.925  1.00  0.00    -0.381 OA
BRANCH  16  20
HETATM   20  C   UNL     1       4.035   8.050   3.742  1.00  0.00     0.276 C 
BRANCH  20  21
HETATM   21  C   UNL     1       4.232   8.465   2.265  1.00  0.00     0.006 C 
HETATM   22  C   UNL     1       3.811   7.364   1.288  1.00  0.00     0.011 C 
HETATM   23  C   UNL     1       3.442   9.746   1.981  1.00  0.00     0.011 C 
ENDBRANCH  20  21
ENDBRANCH  16  20
ENDBRANCH  13  14
ENDBRANCH   1  13
TORSDOF 6
