REMARK  3 active torsions:
REMARK  status: ('A' for Active; 'I' for Inactive)
REMARK    1  A    between atoms: C_2  and  C_5 
REMARK    2  A    between atoms: C_9  and  N_10 
REMARK       I    between atoms: N_10  and  C_11 
REMARK       I    between atoms: C_11  and  N_13 
REMARK    3  A    between atoms: N_13  and  C_14 
ROOT
HETATM    1  C   UNL     1       2.855   1.356   0.603  1.00  0.00     0.088 A 
HETATM    2  N   UNL     1       3.735   1.309   1.616  1.00  0.00    -0.353 N 
ATOM      3  HN  UNL     1       4.117   0.422   1.944  1.00  0.00     0.166 HD
HETATM    4  C   UNL     1       4.096   2.479   2.184  1.00  0.00     0.120 A 
HETATM    5  C   UNL     1       3.620   3.714   1.793  1.00  0.00     0.067 A 
HETATM    6  C   UNL     1       2.731   3.652   0.735  1.00  0.00     0.120 A 
HETATM    7  N   UNL     1       2.333   2.506   0.128  1.00  0.00    -0.353 N 
ATOM      8  HN  UNL     1       1.672   2.513  -0.649  1.00  0.00     0.166 HD
ENDROOT
BRANCH   5   9
HETATM    9  N   UNL     1       3.987   4.951   2.375  1.00  0.00    -0.306 N 
HETATM   10  C   UNL     1       4.887   5.099   3.404  1.00  0.00     0.321 C 
HETATM   11  O   UNL     1       5.461   4.190   3.993  1.00  0.00    -0.247 OA
HETATM   12  N   UNL     1       5.150   6.418   3.695  1.00  0.00    -0.338 N 
HETATM   13  H   UNL     1       4.391   7.075   3.584  1.00  0.00     0.164 HD
HETATM   14  H   UNL     1       3.607   5.795   1.969  1.00  0.00     0.171 HD
BRANCH  12  15
HETATM   15  C   UNL     1       6.119   6.728   4.756  1.00  0.00     0.093 C 
HETATM   16  C   UNL     1       5.447   6.755   6.142  1.00  0.00     0.052 C 
HETATM   17  C   UNL     1       5.152   8.213   6.329  1.00  0.00    -0.029 C 
HETATM   18  C   UNL     1       5.844   8.969   5.469  1.00  0.00    -0.029 C 
HETATM   19  C   UNL     1       6.709   8.134   4.577  1.00  0.00     0.052 C 
ENDBRANCH  12  15
ENDBRANCH   5   9
BRANCH   1  20
HETATM   20  C   UNL     1       2.400   0.028   0.000  1.00  0.00     0.007 C 
HETATM   21  C   UNL     1       3.073  -1.166   0.714  1.00  0.00     0.022 C 
HETATM   22  C   UNL     1       2.770  -0.033  -1.490  1.00  0.00     0.022 C 
HETATM   23  C   UNL     1       0.877  -0.107   0.164  1.00  0.00     0.022 C 
ENDBRANCH   1  20
TORSDOF 3
