REMARK  6 active torsions:
REMARK  status: ('A' for Active; 'I' for Inactive)
REMARK    1  A    between atoms: C_6  and  O_8 
REMARK    2  A    between atoms: O_8  and  C_9 
REMARK    3  A    between atoms: C_9  and  C_10 
REMARK       I    between atoms: C_10  and  N_12 
REMARK    4  A    between atoms: N_12  and  C_13 
REMARK    5  A    between atoms: C_13  and  C_14 
REMARK    6  A    between atoms: C_14  and  C_15 
ROOT
HETATM    1  C   UNL     1       3.094  -4.836  -3.723  1.00  0.00     0.241 C 
HETATM    2  O   UNL     1       2.784  -5.794  -3.019  1.00  0.00    -0.271 OA
HETATM    3  N   UNL     1       3.925  -4.947  -4.821  1.00  0.00    -0.359 N 
HETATM    4  H   UNL     1       4.075  -4.141  -5.414  1.00  0.00     0.162 HD
ENDROOT
BRANCH   1   5
HETATM    5  C   UNL     1       2.583  -3.416  -3.472  1.00  0.00     0.270 C 
BRANCH   5   6
HETATM    6  O   UNL     1       3.164  -2.835  -2.313  1.00  0.00    -0.377 OA
BRANCH   6   7
HETATM    7  C   UNL     1       2.656  -1.527  -2.016  1.00  0.00     0.122 C 
HETATM    8  C   UNL     1       3.154  -0.511  -3.051  1.00  0.00     0.032 C 
HETATM    9  C   UNL     1       2.821   0.926  -2.679  1.00  0.00     0.003 C 
HETATM   10  C   UNL     1       3.309   1.275  -1.278  1.00  0.00     0.004 C 
HETATM   11  C   UNL     1       2.803   0.294  -0.212  1.00  0.00    -0.016 C 
HETATM   12  C   UNL     1       1.307   0.474   0.057  1.00  0.00     0.010 C 
HETATM   13  C   UNL     1       3.142  -1.151  -0.609  1.00  0.00     0.036 C 
ENDBRANCH   6   7
ENDBRANCH   5   6
ENDBRANCH   1   5
BRANCH   3  14
HETATM   14  C   UNL     1       4.405  -6.240  -5.271  1.00  0.00     0.127 C 
BRANCH  14  15
HETATM   15  C   UNL     1       5.208  -6.153  -6.572  1.00  0.00     0.061 C 
BRANCH  15  16
HETATM   16  C   UNL     1       4.400  -5.670  -7.732  1.00  0.00    -0.023 A 
HETATM   17  C   UNL     1       4.606  -4.507  -8.510  1.00  0.00     0.115 A 
HETATM   18  N   UNL     1       3.685  -4.357  -9.465  1.00  0.00    -0.310 N 
HETATM   19  N   UNL     1       2.901  -5.439  -9.324  1.00  0.00    -0.308 N 
ATOM     20  HN  UNL     1       3.597  -3.599 -10.142  1.00  0.00     0.186 HD
HETATM   21  C   UNL     1       1.784  -5.651 -10.211  1.00  0.00     0.177 C 
HETATM   22  C   UNL     1       3.283  -6.251  -8.296  1.00  0.00     0.118 A 
ENDBRANCH  15  16
ENDBRANCH  14  15
ENDBRANCH   3  14
TORSDOF 6
