REMARK  9 active torsions:
REMARK  status: ('A' for Active; 'I' for Inactive)
REMARK    1  A    between atoms: N_5  and  C_6 
REMARK    2  A    between atoms: C_6  and  C_7 
REMARK    3  A    between atoms: C_7  and  O_8 
REMARK    4  A    between atoms: C_7  and  C_9 
REMARK    5  A    between atoms: C_9  and  O_10 
REMARK    6  A    between atoms: O_10  and  C_11 
REMARK    7  A    between atoms: C_11  and  C_12 
REMARK    8  A    between atoms: C_19  and  C_20 
REMARK    9  A    between atoms: C_20  and  N_21 
ROOT
HETATM    1  C   UNL     1       1.223  -0.102   1.363  1.00  0.00     0.070 C 
HETATM    2  C   UNL     1       2.595  -0.087   0.722  1.00  0.00     0.029 A 
HETATM    3  N   UNL     1       3.269  -1.194   0.750  1.00  0.00    -0.300 N 
ATOM      4  HN  UNL     1       2.897  -2.018   1.223  1.00  0.00     0.187 HD
HETATM    5  N   UNL     1       4.498  -1.235   0.128  1.00  0.00    -0.254 N 
HETATM    6  C   UNL     1       5.103  -0.130  -0.465  1.00  0.00     0.282 A 
HETATM    7  O   UNL     1       6.221  -0.141  -0.971  1.00  0.00    -0.265 OA
HETATM    8  C   UNL     1       4.294   1.102  -0.460  1.00  0.00     0.103 A 
HETATM    9  C   UNL     1       3.073   1.167   0.099  1.00  0.00    -0.013 A 
HETATM   10  C   UNL     1       2.196   2.387   0.162  1.00  0.00     0.052 C 
ENDROOT
BRANCH   5  11
HETATM   11  C   UNL     1       5.222  -2.512   0.166  1.00  0.00     0.186 C 
BRANCH  11  12
HETATM   12  C   UNL     1       4.310  -3.747   0.030  1.00  0.00     0.162 C 
BRANCH  12  13
HETATM   13  O   UNL     1       3.434  -3.859   1.157  1.00  0.00    -0.392 OA
HETATM   14  H   UNL     1       3.118  -2.943   1.318  1.00  0.00     0.210 HD
ENDBRANCH  12  13
BRANCH  12  15
HETATM   15  C   UNL     1       3.494  -3.724  -1.267  1.00  0.00     0.201 C 
BRANCH  15  16
HETATM   16  O   UNL     1       4.387  -3.647  -2.371  1.00  0.00    -0.384 OA
BRANCH  16  17
HETATM   17  C   UNL     1       3.708  -3.513  -3.615  1.00  0.00     0.213 C 
BRANCH  17  18
HETATM   18  C   UNL     1       4.768  -3.409  -4.665  1.00  0.00     0.006 A 
HETATM   19  C   UNL     1       6.024  -2.839  -4.572  1.00  0.00     0.017 A 
HETATM   20  C   UNL     1       6.764  -2.948  -5.783  1.00  0.00     0.008 A 
HETATM   21  C   UNL     1       6.041  -3.579  -6.770  1.00  0.00     0.050 A 
HETATM   22  S   UNL     1       4.482  -4.035  -6.235  1.00  0.00    -0.104 SA
ENDBRANCH  17  18
ENDBRANCH  16  17
ENDBRANCH  15  16
ENDBRANCH  12  15
ENDBRANCH  11  12
ENDBRANCH   5  11
BRANCH   8  23
HETATM   23  C   UNL     1       4.870   2.366  -1.078  1.00  0.00    -0.031 C 
BRANCH  23  24
HETATM   24  N   UNL     1       5.348   3.414  -1.591  1.00  0.00    -0.365 N 
ATOM     25  HN2 UNL     1       4.973   2.552  -1.194  1.00  0.00     0.165 HD
ATOM     26  HN1 UNL     1       5.734   4.262  -2.006  1.00  0.00     0.165 HD
ENDBRANCH  23  24
ENDBRANCH   8  23
TORSDOF 9
