REMARK  5 active torsions:
REMARK  status: ('A' for Active; 'I' for Inactive)
REMARK    1  A    between atoms: O_1  and  C_2 
REMARK    2  A    between atoms: C_2  and  CA_4 
REMARK    3  A    between atoms: C_7  and  O_8 
REMARK    4  A    between atoms: O_8  and  C_9 
REMARK    5  A    between atoms: C_9  and  C_10 
ROOT
HETATM    1  CA  UNL     1       3.279   0.437   1.011  1.00  0.00     0.130 A 
HETATM    2  N   UNL     1       3.250   1.704   1.559  1.00  0.00    -0.330 N 
ATOM      3  HN  UNL     1       2.657   2.442   1.181  1.00  0.00     0.168 HD
HETATM    4  C   UNL     1       4.053   1.908   2.625  1.00  0.00     0.142 A 
HETATM    5  C   UNL     1       4.874   0.934   3.169  1.00  0.00     0.058 A 
HETATM    6  C   UNL     1       4.874  -0.338   2.603  1.00  0.00     0.031 A 
HETATM    7  C   UNL     1       4.061  -0.607   1.503  1.00  0.00     0.067 A 
HETATM    8 CL   UNL     1       4.104  -2.205   0.866  1.00  0.00    -0.082 Cl
ENDROOT
BRANCH   4   9
HETATM    9  O   UNL     1       4.113   3.137   3.245  1.00  0.00    -0.333 OA
BRANCH   9  10
HETATM   10  C   UNL     1       3.218   4.125   2.736  1.00  0.00     0.209 C 
BRANCH  10  11
HETATM   11  C   UNL     1       3.431   5.416   3.532  1.00  0.00     0.145 C 
HETATM   12  C   UNL     1       3.159   5.280   5.025  1.00  0.00     0.036 C 
HETATM   13  C   UNL     1       2.549   6.609   5.425  1.00  0.00     0.029 C 
HETATM   14  C   UNL     1       2.492   7.412   4.142  1.00  0.00     0.168 C 
HETATM   15  O   UNL     1       2.557   6.457   3.077  1.00  0.00    -0.384 OA
ENDBRANCH  10  11
ENDBRANCH   9  10
ENDBRANCH   4   9
BRANCH   1  16
HETATM   16  C   UNL     1       2.383   0.288  -0.186  1.00  0.00     0.195 C 
HETATM   17  OXT UNL     1       2.237  -0.700  -0.879  1.00  0.00    -0.645 OA
BRANCH  16  18
HETATM   18  O   UNL     1       1.726   1.455  -0.417  1.00  0.00    -0.772 OA
HETATM   19  H   UNL     1       2.004   2.122   0.253  1.00  0.00     0.167 HD
ENDBRANCH  16  18
ENDBRANCH   1  16
TORSDOF 5
