REMARK  5 active torsions:
REMARK  status: ('A' for Active; 'I' for Inactive)
REMARK    1  A    between atoms: C_2  and  C_3 
REMARK    2  A    between atoms: C_2  and  N_21 
REMARK    3  A    between atoms: C_3  and  N_4 
REMARK       I    between atoms: N_4  and  C_5 
REMARK       I    between atoms: C_5  and  N_7 
REMARK    4  A    between atoms: N_7  and  C_8 
REMARK    5  A    between atoms: C_11  and  N_15 
ROOT
HETATM    1  N   UNL     1       2.631   1.939   1.838  1.00  0.00    -0.341 N 
HETATM    2  C   UNL     1       3.048   2.372   3.077  1.00  0.00     0.320 C 
HETATM    3  O   UNL     1       3.846   1.753   3.776  1.00  0.00    -0.247 OA
HETATM    4  N   UNL     1       2.429   3.484   3.565  1.00  0.00    -0.308 N 
HETATM    5  H   UNL     1       1.660   2.135   1.643  1.00  0.00     0.164 HD
HETATM    6  H   UNL     1       2.460   3.534   4.575  1.00  0.00     0.170 HD
ENDROOT
BRANCH   4   7
HETATM    7  C   UNL     1       1.616   4.383   2.870  1.00  0.00     0.051 A 
HETATM    8  C   UNL     1       0.444   4.815   3.456  1.00  0.00     0.035 A 
HETATM    9  C   UNL     1      -0.423   5.625   2.720  1.00  0.00     0.051 A 
HETATM   10  C   UNL     1      -0.100   6.037   1.425  1.00  0.00     0.103 A 
HETATM   11  N   UNL     1       1.082   5.657   0.888  1.00  0.00    -0.350 N 
HETATM   12  C   UNL     1       1.912   4.864   1.607  1.00  0.00     0.119 A 
ATOM     13  HN  UNL     1       1.345   5.964  -0.048  1.00  0.00     0.166 HD
BRANCH  10  14
HETATM   14  N   UNL     1      -0.933   6.822   0.667  1.00  0.00    -0.363 N 
HETATM   15  C   UNL     1      -2.307   7.198   1.012  1.00  0.00     0.150 C 
HETATM   16  C   UNL     1      -3.268   6.680  -0.068  1.00  0.00     0.187 C 
HETATM   17  O   UNL     1      -2.907   7.171  -1.368  1.00  0.00    -0.388 OA
HETATM   18  C   UNL     1      -1.576   6.746  -1.712  1.00  0.00     0.187 C 
HETATM   19  C   UNL     1      -0.535   7.237  -0.690  1.00  0.00     0.150 C 
ENDBRANCH  10  14
ENDBRANCH   4   7
BRANCH   1  20
HETATM   20  C   UNL     1       3.135   0.671   1.351  1.00  0.00     0.159 C 
BRANCH  20  21
HETATM   21  C   UNL     1       2.641   0.176  -0.049  1.00  0.00     0.236 C 
HETATM   22  C   UNL     1       3.253  -1.240  -0.169  1.00  0.00     0.044 C 
BRANCH  21  23
HETATM   23  N   UNL     1       3.030   1.024  -1.210  1.00  0.00     0.098 N 
HETATM   24  C   UNL     1       2.405   2.369  -1.237  1.00  0.00     0.299 C 
HETATM   25  C   UNL     1       0.913   2.378  -1.617  1.00  0.00     0.198 C 
HETATM   26  O   UNL     1       0.693   1.745  -2.884  1.00  0.00    -0.388 OA
HETATM   27  C   UNL     1       1.233   0.418  -2.893  1.00  0.00     0.198 C 
HETATM   28  C   UNL     1       2.730   0.423  -2.537  1.00  0.00     0.299 C 
ENDBRANCH  21  23
ENDBRANCH  20  21
ENDBRANCH   1  20
TORSDOF 5
