REMARK  3 active torsions:
REMARK  status: ('A' for Active; 'I' for Inactive)
REMARK    1  A    between atoms: C_7  and  N_8 
REMARK    2  A    between atoms: N_8  and  C_9 
REMARK    3  A    between atoms: C_9  and  C_10 
ROOT
HETATM    1  C   UNL     1       1.181  -0.342   0.353  1.00  0.00     0.070 C 
HETATM    2  C   UNL     1       2.651  -0.110   0.175  1.00  0.00     0.029 A 
HETATM    3  N   UNL     1       3.464  -0.858   0.947  1.00  0.00    -0.303 N 
ATOM      4  HN  UNL     1       3.064  -1.487   1.644  1.00  0.00     0.186 HD
HETATM    5  N   UNL     1       4.823  -0.779   0.802  1.00  0.00    -0.284 N 
ATOM      6  HN  UNL     1       5.421  -1.374   1.375  1.00  0.00     0.188 HD
HETATM    7  C   UNL     1       5.388   0.067  -0.081  1.00  0.00     0.137 A 
HETATM    8  C   UNL     1       4.568   0.893  -0.856  1.00  0.00     0.097 A 
HETATM    9  C   UNL     1       5.175   1.793  -1.796  1.00  0.00     0.104 C 
HETATM   10  N   UNL     1       5.630   2.545  -2.552  1.00  0.00    -0.191 NA
HETATM   11  C   UNL     1       3.164   0.791  -0.758  1.00  0.00    -0.014 A 
HETATM   12  C   UNL     1       2.229   1.565  -1.649  1.00  0.00     0.052 C 
ENDROOT
BRANCH   7  13
HETATM   13  N   UNL     1       6.770   0.063  -0.262  1.00  0.00    -0.372 N 
HETATM   14  H   UNL     1       7.233   0.942  -0.037  1.00  0.00     0.161 HD
BRANCH  13  15
HETATM   15  C   UNL     1       7.524  -1.120   0.160  1.00  0.00     0.153 C 
BRANCH  15  16
HETATM   16  C   UNL     1       8.521  -0.833   1.286  1.00  0.00     0.139 C 
HETATM   17  C   UNL     1       7.923  -0.385   2.611  1.00  0.00     0.035 C 
HETATM   18  C   UNL     1       8.929   0.611   3.160  1.00  0.00     0.029 C 
HETATM   19  C   UNL     1      10.040   0.648   2.133  1.00  0.00     0.168 C 
HETATM   20  O   UNL     1       9.441   0.209   0.911  1.00  0.00    -0.384 OA
ENDBRANCH  15  16
ENDBRANCH  13  15
ENDBRANCH   7  13
TORSDOF 3
