REMARK  5 active torsions:
REMARK  status: ('A' for Active; 'I' for Inactive)
REMARK    1  A    between atoms: N_4  and  C_9 
REMARK    2  A    between atoms: C_12  and  N_13 
REMARK       I    between atoms: N_13  and  C_14 
REMARK       I    between atoms: C_14  and  N_16 
REMARK    3  A    between atoms: N_16  and  C_17 
REMARK    4  A    between atoms: C_17  and  C_18 
REMARK    5  A    between atoms: C_17  and  C_21 
ROOT
HETATM    1  C   UNL     1       1.941   1.398  -3.458  1.00  0.00     0.103 A 
HETATM    2  C   UNL     1       1.197   0.912  -4.529  1.00  0.00     0.051 A 
HETATM    3  C   UNL     1       0.681   1.778  -5.491  1.00  0.00     0.035 A 
HETATM    4  C   UNL     1       0.899   3.144  -5.400  1.00  0.00     0.051 A 
HETATM    5  C   UNL     1       1.565   3.570  -4.260  1.00  0.00     0.119 A 
HETATM    6  N   UNL     1       2.086   2.738  -3.311  1.00  0.00    -0.350 N 
ATOM      7  HN  UNL     1       2.578   3.119  -2.503  1.00  0.00     0.166 HD
ENDROOT
BRANCH   4   8
HETATM    8  N   UNL     1       0.473   4.054  -6.398  1.00  0.00    -0.308 N 
HETATM    9  C   UNL     1       0.244   3.681  -7.707  1.00  0.00     0.321 C 
HETATM   10  O   UNL     1       0.445   2.556  -8.162  1.00  0.00    -0.247 OA
HETATM   11  N   UNL     1      -0.264   4.686  -8.489  1.00  0.00    -0.338 N 
HETATM   12  H   UNL     1      -0.326   5.630  -8.153  1.00  0.00     0.164 HD
HETATM   13  H   UNL     1       0.579   5.038  -6.212  1.00  0.00     0.170 HD
BRANCH  11  14
HETATM   14  C   UNL     1      -0.633   4.403  -9.865  1.00  0.00     0.094 C 
BRANCH  14  15
HETATM   15  C   UNL     1      -2.049   4.852 -10.123  1.00  0.00     0.009 A 
HETATM   16  C   UNL     1      -3.233   4.232  -9.417  1.00  0.00     0.007 A 
HETATM   17  C   UNL     1      -2.966   3.894 -10.855  1.00  0.00     0.007 A 
ENDBRANCH  14  15
BRANCH  14  18
HETATM   18  C   UNL     1       0.415   4.936 -10.811  1.00  0.00     0.009 A 
HETATM   19  C   UNL     1       0.833   6.385 -10.882  1.00  0.00     0.007 A 
HETATM   20  C   UNL     1       0.078   5.771 -12.028  1.00  0.00     0.007 A 
ENDBRANCH  14  18
ENDBRANCH  11  14
ENDBRANCH   4   8
BRANCH   1  21
HETATM   21  N   UNL     1       2.479   0.551  -2.519  1.00  0.00    -0.362 N 
HETATM   22  C   UNL     1       3.215   1.081  -1.366  1.00  0.00     0.156 C 
HETATM   23  C   UNL     1       2.866   0.232  -0.117  1.00  0.00     0.136 C 
HETATM   24  C   UNL     1       1.459   0.539   0.398  1.00  0.00     0.041 C 
HETATM   25  O   UNL     1       3.042  -1.186  -0.341  1.00  0.00    -0.378 OA
HETATM   26  C   UNL     1       2.341  -1.661  -1.508  1.00  0.00     0.136 C 
HETATM   27  C   UNL     1       2.761  -0.868  -2.761  1.00  0.00     0.156 C 
HETATM   28  C   UNL     1       2.643  -3.143  -1.678  1.00  0.00     0.041 C 
ENDBRANCH   1  21
TORSDOF 5
