REMARK  6 active torsions:
REMARK  status: ('A' for Active; 'I' for Inactive)
REMARK    1  A    between atoms: O_2  and  C_3 
REMARK    2  A    between atoms: C_3  and  C_4 
REMARK    3  A    between atoms: C_4  and  N_5 
REMARK    4  A    between atoms: C_6  and  S_7 
REMARK    5  A    between atoms: S_7  and  C_8 
REMARK    6  A    between atoms: C_8  and  C_10 
REMARK       I    between atoms: C_10  and  N_12 
ROOT
HETATM    1  N   UNL     1       5.004   2.599  -0.237  1.00  0.00    -0.324 N 
HETATM    2  C   UNL     1       4.226   3.702   0.059  1.00  0.00     0.148 A 
HETATM    3  N   UNL     1       4.936   4.807   0.037  1.00  0.00    -0.335 N 
ATOM      4  HN  UNL     1       4.606   5.753   0.229  1.00  0.00     0.168 HD
HETATM    5  C   UNL     1       6.208   4.431  -0.296  1.00  0.00     0.061 A 
HETATM    6  C   UNL     1       7.343   5.227  -0.506  1.00  0.00     0.032 A 
HETATM    7  C   UNL     1       8.561   4.607  -0.804  1.00  0.00     0.002 A 
HETATM    8  C   UNL     1       8.647   3.217  -0.886  1.00  0.00     0.002 A 
HETATM    9  C   UNL     1       7.519   2.407  -0.705  1.00  0.00     0.032 A 
HETATM   10  C   UNL     1       6.302   3.048  -0.425  1.00  0.00     0.063 A 
ENDROOT
BRANCH   2  11
HETATM   11  S   UNL     1       2.513   3.673   0.369  1.00  0.00    -0.080 SA
BRANCH  11  12
HETATM   12  C   UNL     1       2.156   5.449   0.763  1.00  0.00     0.143 C 
HETATM   13  C   UNL     1       2.305   6.361  -0.455  1.00  0.00     0.031 C 
BRANCH  12  14
HETATM   14  C   UNL     1       0.720   5.608   1.301  1.00  0.00     0.229 C 
HETATM   15  O   UNL     1      -0.060   6.487   0.936  1.00  0.00    -0.272 OA
HETATM   16  N   UNL     1       0.334   4.776   2.313  1.00  0.00    -0.369 N 
HETATM   17  H   UNL     1       0.851   3.939   2.540  1.00  0.00     0.159 HD
HETATM   18  H   UNL     1      -0.625   4.856   2.627  1.00  0.00     0.159 HD
ENDBRANCH  12  14
ENDBRANCH  11  12
ENDBRANCH   2  11
BRANCH   1  19
HETATM   19  C   UNL     1       4.600   1.214  -0.369  1.00  0.00     0.157 C 
BRANCH  19  20
HETATM   20  C   UNL     1       3.676   0.952  -1.552  1.00  0.00     0.187 C 
BRANCH  20  21
HETATM   21  O   UNL     1       3.639  -0.453  -1.834  1.00  0.00    -0.394 OA
HETATM   22  C   UNL     1       2.752  -0.739  -2.912  1.00  0.00     0.201 C 
ENDBRANCH  20  21
ENDBRANCH  19  20
ENDBRANCH   1  19
TORSDOF 6
