REMARK  6 active torsions:
REMARK  status: ('A' for Active; 'I' for Inactive)
REMARK    1  A    between atoms: C_7  and  O_8 
REMARK    2  A    between atoms: O_8  and  C_9 
REMARK    3  A    between atoms: C_9  and  C_10 
REMARK    4  A    between atoms: C_10  and  N_11 
REMARK       I    between atoms: N_11  and  C_12 
REMARK    5  A    between atoms: C_12  and  C_14 
REMARK    6  A    between atoms: C_14  and  C_15 
ROOT
HETATM    1  N   UNL     1       2.894  -3.038   4.120  1.00  0.00    -0.359 N 
HETATM    2  C   UNL     1       2.204  -2.238   5.008  1.00  0.00     0.222 C 
HETATM    3  O   UNL     1       1.178  -1.629   4.713  1.00  0.00    -0.273 OA
HETATM    4  H   UNL     1       3.780  -3.440   4.396  1.00  0.00     0.162 HD
ENDROOT
BRANCH   1   5
HETATM    5  C   UNL     1       2.474  -3.189   2.738  1.00  0.00     0.148 C 
BRANCH   5   6
HETATM    6  C   UNL     1       3.045  -2.087   1.846  1.00  0.00     0.187 C 
BRANCH   6   7
HETATM    7  O   UNL     1       2.525  -2.213   0.521  1.00  0.00    -0.384 OA
BRANCH   7   8
HETATM    8  C   UNL     1       3.048  -1.244  -0.398  1.00  0.00     0.125 C 
HETATM    9  C   UNL     1       2.704   0.211  -0.006  1.00  0.00     0.010 C 
HETATM   10  C   UNL     1       1.210   0.407   0.287  1.00  0.00     0.012 C 
HETATM   11  C   UNL     1       3.205   1.187  -1.078  1.00  0.00     0.007 C 
HETATM   12  C   UNL     1       2.683   0.854  -2.472  1.00  0.00     0.001 C 
HETATM   13  C   UNL     1       2.976  -0.593  -2.856  1.00  0.00     0.002 C 
HETATM   14  C   UNL     1       2.507  -1.586  -1.795  1.00  0.00     0.032 C 
ENDBRANCH   7   8
ENDBRANCH   6   7
ENDBRANCH   5   6
ENDBRANCH   1   5
BRANCH   2  15
HETATM   15  C   UNL     1       2.815  -2.164   6.396  1.00  0.00     0.146 C 
BRANCH  15  16
HETATM   16  C   UNL     1       2.297  -3.241   7.282  1.00  0.00     0.006 A 
HETATM   17  C   UNL     1       1.157  -3.218   8.134  1.00  0.00     0.038 A 
HETATM   18  C   UNL     1       0.175  -2.132   8.363  1.00  0.00     0.071 C 
HETATM   19  N   UNL     1       1.018  -4.374   8.793  1.00  0.00    -0.265 N 
HETATM   20  O   UNL     1       2.055  -5.179   8.371  1.00  0.00    -0.242 OA
ATOM     21  HN  UNL     1       0.293  -4.611   9.470  1.00  0.00     0.194 HD
HETATM   22  C   UNL     1       2.815  -4.505   7.471  1.00  0.00     0.081 A 
HETATM   23  C   UNL     1       3.968  -5.239   6.917  1.00  0.00     0.079 C 
ENDBRANCH  15  16
ENDBRANCH   2  15
TORSDOF 6
