REMARK  4 active torsions:
REMARK  status: ('A' for Active; 'I' for Inactive)
REMARK    1  A    between atoms: C_2  and  C_3 
REMARK    2  A    between atoms: C_3  and  N_4 
REMARK       I    between atoms: N_4  and  C_5 
REMARK    3  A    between atoms: C_5  and  C_7 
REMARK    4  A    between atoms: C_13  and  N_14 
ROOT
HETATM    1  C   UNL     1       6.521  -2.501  -0.319  1.00  0.00     0.075 A 
HETATM    2  C   UNL     1       7.305  -1.328  -0.322  1.00  0.00     0.022 A 
HETATM    3  C   UNL     1       8.689  -1.409  -0.339  1.00  0.00     0.018 A 
HETATM    4  C   UNL     1       9.248  -2.664  -0.328  1.00  0.00     0.089 A 
HETATM    5  N   UNL     1       8.523  -3.799  -0.379  1.00  0.00    -0.352 N 
ATOM      6  HN  UNL     1       9.000  -4.700  -0.399  1.00  0.00     0.166 HD
HETATM    7  C   UNL     1       7.158  -3.758  -0.404  1.00  0.00     0.119 A 
ENDROOT
BRANCH   1   8
HETATM    8  C   UNL     1       5.075  -2.319  -0.019  1.00  0.00     0.255 C 
HETATM    9  N   UNL     1       4.413  -1.255  -0.620  1.00  0.00    -0.357 N 
HETATM   10  H   UNL     1       4.887  -0.666  -1.291  1.00  0.00     0.162 HD
HETATM   11  O   UNL     1       4.508  -3.055   0.779  1.00  0.00    -0.268 OA
BRANCH   9  12
HETATM   12  C   UNL     1       2.990  -1.088  -0.389  1.00  0.00     0.122 C 
BRANCH  12  13
HETATM   13  C   UNL     1       2.390   0.162  -1.025  1.00  0.00     0.015 C 
HETATM   14  C   UNL     1       2.469   0.157  -2.545  1.00  0.00     0.006 C 
ENDBRANCH  12  13
ENDBRANCH   9  12
ENDBRANCH   1   8
BRANCH   7  15
HETATM   15  N   UNL     1       6.575  -4.991  -0.637  1.00  0.00    -0.362 N 
HETATM   16  C   UNL     1       7.254  -6.177  -0.071  1.00  0.00     0.150 C 
HETATM   17  C   UNL     1       6.963  -7.422  -0.927  1.00  0.00     0.187 C 
HETATM   18  O   UNL     1       5.554  -7.635  -1.110  1.00  0.00    -0.388 OA
HETATM   19  C   UNL     1       4.969  -6.491  -1.747  1.00  0.00     0.187 C 
HETATM   20  C   UNL     1       5.150  -5.215  -0.906  1.00  0.00     0.150 C 
ENDBRANCH   7  15
TORSDOF 4
