REMARK  4 active torsions:
REMARK  status: ('A' for Active; 'I' for Inactive)
REMARK    1  A    between atoms: C_2  and  N_3 
REMARK    2  A    between atoms: C_2  and  C_12 
REMARK    3  A    between atoms: N_3  and  C_4 
REMARK    4  A    between atoms: C_10  and  N_11 
ROOT
HETATM    1  C   UNL     1       3.298  -0.125  -2.279  1.00  0.00     0.032 C 
HETATM    2  C   UNL     1       3.671  -1.469  -2.202  1.00  0.00     0.042 C 
HETATM    3  C   UNL     1       4.006  -2.151  -3.364  1.00  0.00     0.089 C 
HETATM    4  N   UNL     1       4.013  -1.591  -4.589  1.00  0.00    -0.373 N 
ATOM      5  HN  UNL     1       4.237  -2.128  -5.427  1.00  0.00     0.164 HD
HETATM    6  C   UNL     1       3.706  -0.276  -4.643  1.00  0.00     0.112 C 
HETATM    7  C   UNL     1       3.420   0.519  -3.531  1.00  0.00     0.043 C 
ENDROOT
BRANCH   1   8
HETATM    8  N   UNL     1       2.951   0.652  -1.151  1.00  0.00    -0.285 NA
HETATM    9  H   UNL     1       2.382   1.435  -1.477  1.00  0.00     0.128 HD
BRANCH   8  10
HETATM   10  C   UNL     1       2.336   0.014   0.030  1.00  0.00     0.085 C 
HETATM   11  C   UNL     1       0.811   0.053  -0.117  1.00  0.00     0.029 C 
BRANCH  10  12
HETATM   12  C   UNL     1       2.786   0.747   1.314  1.00  0.00     0.139 C 
HETATM   13  C   UNL     1       4.296   0.706   1.550  1.00  0.00     0.035 C 
HETATM   14  C   UNL     1       4.455   0.400   3.025  1.00  0.00     0.029 C 
HETATM   15  C   UNL     1       3.052   0.476   3.580  1.00  0.00     0.168 C 
HETATM   16  O   UNL     1       2.194   0.151   2.484  1.00  0.00    -0.384 OA
ENDBRANCH  10  12
ENDBRANCH   8  10
ENDBRANCH   1   8
BRANCH   7  17
HETATM   17  N   UNL     1       3.053   1.879  -3.679  1.00  0.00    -0.300 NA
HETATM   18  H   UNL     1       3.428   2.289  -4.532  1.00  0.00     0.124 HD
HETATM   19  H   UNL     1       3.348   2.413  -2.865  1.00  0.00     0.124 HD
ENDBRANCH   7  17
TORSDOF 4
