REMARK  6 active torsions:
REMARK  status: ('A' for Active; 'I' for Inactive)
REMARK    1  A    between atoms: C_1  and  C_11 
REMARK    2  A    between atoms: N_4  and  C_7 
REMARK    3  A    between atoms: N_5  and  C_19 
REMARK    4  A    between atoms: C_19  and  C_20 
REMARK    5  A    between atoms: C_20  and  C_26 
REMARK    6  A    between atoms: C_26  and  O_27 
ROOT
HETATM    1  C   UNL     1      -2.992   1.318  -1.315  1.00  0.00     0.117 A 
HETATM    2  N   UNL     1      -4.327   2.342  -2.754  1.00  0.00    -0.326 N 
HETATM    3  C   UNL     1      -3.821   1.106  -2.418  1.00  0.00     0.140 A 
HETATM    4  C   UNL     1      -2.383   0.170  -0.718  1.00  0.00     0.114 A 
HETATM    5  N   UNL     1      -2.963   2.670  -1.013  1.00  0.00    -0.346 N 
ATOM      6  HN  UNL     1      -2.432   3.125  -0.270  1.00  0.00     0.167 HD
HETATM    7  C   UNL     1      -3.765   3.245  -1.886  1.00  0.00     0.185 A 
HETATM    8  N   UNL     1      -4.098  -0.062  -3.020  1.00  0.00    -0.336 N 
ATOM      9  HN  UNL     1      -4.708  -0.168  -3.831  1.00  0.00     0.168 HD
HETATM   10  N   UNL     1      -2.647  -1.023  -1.327  1.00  0.00    -0.341 N 
ATOM     11  HN  UNL     1      -2.229  -1.880  -0.966  1.00  0.00     0.167 HD
HETATM   12  C   UNL     1      -3.457  -1.075  -2.403  1.00  0.00     0.183 A 
ENDROOT
BRANCH   2  13
HETATM   13  C   UNL     1      -5.452   2.603  -3.645  1.00  0.00     0.143 C 
BRANCH  13  14
HETATM   14  C   UNL     1      -5.157   2.975  -5.136  1.00  0.00     0.001 C 
HETATM   15  C   UNL     1      -4.391   4.311  -5.270  1.00  0.00     0.039 C 
HETATM   16  C   UNL     1      -5.262   5.519  -4.941  1.00  0.00     0.168 C 
HETATM   17  O   UNL     1      -6.393   5.561  -5.804  1.00  0.00    -0.391 OA
HETATM   18  C   UNL     1      -7.246   4.431  -5.658  1.00  0.00     0.168 C 
HETATM   19  C   UNL     1      -6.501   3.125  -5.918  1.00  0.00     0.039 C 
BRANCH  14  20
HETATM   20  C   UNL     1      -4.346   1.852  -5.822  1.00  0.00     0.175 C 
BRANCH  20  21
HETATM   21  O   UNL     1      -5.032   0.608  -5.746  1.00  0.00    -0.400 OA
HETATM   22  H   UNL     1      -4.765   0.179  -4.907  1.00  0.00     0.209 HD
ENDBRANCH  20  21
ENDBRANCH  14  20
ENDBRANCH  13  14
ENDBRANCH   2  13
BRANCH   4  23
HETATM   23  N   UNL     1      -1.546   0.187   0.424  1.00  0.00    -0.266 NA
HETATM   24  C   UNL     1      -1.038  -1.142   0.859  1.00  0.00     0.116 C 
HETATM   25  C   UNL     1      -1.958  -1.558   1.974  1.00  0.00     0.075 A 
HETATM   26  C   UNL     1      -2.676  -0.306   2.423  1.00  0.00     0.018 A 
HETATM   27  C   UNL     1      -1.776  -1.020   3.391  1.00  0.00     0.027 A 
HETATM   28  C   UNL     1      -2.169   0.845   1.587  1.00  0.00     0.102 C 
BRANCH  25  29
HETATM   29  C   UNL     1      -2.612  -2.889   1.824  1.00  0.00     0.397 C 
HETATM   30  F   UNL     1      -3.898  -2.859   2.252  1.00  0.00    -0.170 F 
HETATM   31  F   UNL     1      -2.613  -3.352   0.556  1.00  0.00    -0.170 F 
HETATM   32  F   UNL     1      -1.960  -3.806   2.583  1.00  0.00    -0.170 F 
ENDBRANCH  25  29
ENDBRANCH   4  23
TORSDOF 6
