REMARK  3 active torsions:
REMARK  status: ('A' for Active; 'I' for Inactive)
REMARK    1  A    between atoms: C_8  and  N_9 
REMARK    2  A    between atoms: N_9  and  C_10 
REMARK    3  A    between atoms: C_10  and  C_11 
ROOT
HETATM    1  C   UNL     1       1.983  -2.319   0.175  1.00  0.00     0.126 C 
ENDROOT
BRANCH   1   2
HETATM    2  N   UNL     1       3.432  -2.558   0.203  1.00  0.00    -0.289 NA
HETATM    3  H   UNL     1       3.732  -2.958  -0.691  1.00  0.00     0.127 HD
BRANCH   2   4
HETATM    4  C   UNL     1       4.100  -1.296   0.446  1.00  0.00     0.033 C 
HETATM    5  C   UNL     1       3.753  -0.356   1.449  1.00  0.00     0.070 C 
HETATM    6 CL   UNL     1       2.648  -0.613   2.758  1.00  0.00    -0.081 Cl
HETATM    7  C   UNL     1       4.376   0.887   1.448  1.00  0.00     0.113 C 
HETATM    8  N   UNL     1       5.380   1.236   0.618  1.00  0.00    -0.373 N 
HETATM    9  C   UNL     1       5.794   0.283  -0.241  1.00  0.00     0.089 C 
ATOM     10  HN  UNL     1       5.801   2.165   0.639  1.00  0.00     0.164 HD
HETATM   11  C   UNL     1       5.199  -0.969  -0.362  1.00  0.00     0.042 C 
ENDBRANCH   2   4
ENDBRANCH   1   2
BRANCH   1  12
HETATM   12  C   UNL     1       0.987  -3.428  -0.257  1.00  0.00     0.152 C 
HETATM   13  C   UNL     1      -0.423  -2.842   0.047  1.00  0.00     0.150 C 
HETATM   14  N   UNL     1      -0.463  -1.579  -0.682  1.00  0.00    -0.404 N 
HETATM   15  C   UNL     1      -1.196  -0.468  -0.124  1.00  0.00     0.117 C 
HETATM   16  C   UNL     1      -0.418  -1.757  -2.130  1.00  0.00     0.103 C 
HETATM   17  C   UNL     1      -0.716   0.830  -0.779  1.00  0.00     0.019 C 
HETATM   18  C   UNL     1      -0.879   0.758  -2.294  1.00  0.00     0.004 C 
HETATM   19  C   UNL     1      -0.104  -0.430  -2.850  1.00  0.00     0.027 C 
HETATM   20  C   UNL     1       0.675  -2.793  -2.565  1.00  0.00     0.193 C 
HETATM   21  O   UNL     1       1.016  -3.829  -1.635  1.00  0.00    -0.381 OA
ENDBRANCH   1  12
TORSDOF 3
