REMARK  5 active torsions:
REMARK  status: ('A' for Active; 'I' for Inactive)
REMARK    1  A    between atoms: O_2  and  C_3 
REMARK    2  A    between atoms: C_6  and  N_7 
REMARK       I    between atoms: N_7  and  C_8 
REMARK       I    between atoms: C_8  and  N_10 
REMARK    3  A    between atoms: N_10  and  C_11 
REMARK    4  A    between atoms: C_11  and  C_12 
REMARK    5  A    between atoms: C_12  and  N_15 
ROOT
HETATM    1  N   UNL     1       5.786   6.085   1.252  1.00  0.00    -0.308 N 
HETATM    2  C   UNL     1       7.071   6.122   0.758  1.00  0.00     0.320 C 
HETATM    3  O   UNL     1       8.089   6.201   1.432  1.00  0.00    -0.247 OA
HETATM    4  N   UNL     1       7.107   6.104  -0.616  1.00  0.00    -0.341 N 
HETATM    5  H   UNL     1       5.064   5.753   0.632  1.00  0.00     0.170 HD
HETATM    6  H   UNL     1       6.329   5.705  -1.117  1.00  0.00     0.164 HD
ENDROOT
BRANCH   1   7
HETATM    7  C   UNL     1       5.458   6.241   2.616  1.00  0.00     0.051 A 
HETATM    8  C   UNL     1       6.302   6.861   3.537  1.00  0.00     0.035 A 
HETATM    9  C   UNL     1       5.934   6.942   4.876  1.00  0.00     0.058 A 
HETATM   10  C   UNL     1       4.727   6.384   5.257  1.00  0.00     0.141 A 
HETATM   11  N   UNL     1       3.855   5.817   4.395  1.00  0.00    -0.345 N 
HETATM   12  C   UNL     1       4.237   5.771   3.095  1.00  0.00     0.119 A 
ATOM     13  HN  UNL     1       2.958   5.444   4.705  1.00  0.00     0.167 HD
BRANCH  10  14
HETATM   14  O   UNL     1       4.424   6.460   6.600  1.00  0.00    -0.341 OA
HETATM   15  C   UNL     1       3.480   5.472   6.993  1.00  0.00     0.211 C 
ENDBRANCH  10  14
ENDBRANCH   1   7
BRANCH   4  16
HETATM   16  C   UNL     1       8.384   6.206  -1.312  1.00  0.00     0.154 C 
BRANCH  16  17
HETATM   17  C   UNL     1       8.843   7.667  -1.700  1.00  0.00     0.036 C 
HETATM   18  C   UNL     1       7.796   8.236  -2.680  1.00  0.00     0.039 C 
HETATM   19  C   UNL     1       8.799   8.562  -0.433  1.00  0.00     0.039 C 
BRANCH  17  20
HETATM   20  N   UNL     1      10.252   7.655  -2.206  1.00  0.00    -0.400 N 
HETATM   21  C   UNL     1      10.846   8.935  -2.638  1.00  0.00     0.147 C 
HETATM   22  C   UNL     1      10.613   9.322  -4.121  1.00  0.00     0.291 C 
HETATM   23  N   UNL     1      10.854   8.261  -5.118  1.00  0.00     0.087 N 
HETATM   24  C   UNL     1      12.273   8.162  -5.448  1.00  0.00     0.310 C 
HETATM   25  C   UNL     1      10.323   6.967  -4.651  1.00  0.00     0.291 C 
HETATM   26  C   UNL     1      10.638   6.620  -3.180  1.00  0.00     0.147 C 
ENDBRANCH  17  20
ENDBRANCH  16  17
ENDBRANCH   4  16
TORSDOF 5
