REMARK  8 active torsions:
REMARK  status: ('A' for Active; 'I' for Inactive)
REMARK    1  A    between atoms: C_2  and  C_3 
REMARK    2  A    between atoms: C_3  and  N_4 
REMARK    3  A    between atoms: C_5  and  N_6 
REMARK    4  A    between atoms: C_7  and  N_8 
REMARK    5  A    between atoms: N_8  and  C_9 
REMARK       I    between atoms: N_8  and  C_13 
REMARK    6  A    between atoms: C_9  and  C_10 
REMARK    7  A    between atoms: C_10  and  O_11 
REMARK    8  A    between atoms: C_13  and  C_15 
ROOT
HETATM    1  N   UNL     1       5.148  -0.360   1.956  1.00  0.00    -0.288 N 
HETATM    2  C   UNL     1       5.921  -1.505   2.184  1.00  0.00     0.117 C 
HETATM    3  C   UNL     1       6.401  -2.215   1.131  1.00  0.00     0.144 C 
HETATM    4  C   UNL     1       6.109  -1.700  -0.240  1.00  0.00     0.279 C 
HETATM    5  O   UNL     1       6.777  -2.033  -1.218  1.00  0.00    -0.265 OA
HETATM    6  N   UNL     1       5.074  -0.821  -0.334  1.00  0.00    -0.273 N 
HETATM    7  C   UNL     1       4.744   0.023   0.683  1.00  0.00     0.330 C 
HETATM    8  O   UNL     1       4.147   1.073   0.423  1.00  0.00    -0.246 OA
HETATM    9  H   UNL     1       4.872  -0.461  -1.253  1.00  0.00     0.173 HD
ENDROOT
BRANCH   3  10
HETATM   10  N   UNL     1       7.234  -3.331   1.298  1.00  0.00    -0.308 N 
HETATM   11  C   UNL     1       6.750  -4.650   1.098  1.00  0.00     0.228 C 
HETATM   12  O   UNL     1       7.549  -5.589   0.929  1.00  0.00    -0.273 OA
BRANCH  10  13
HETATM   13  C   UNL     1       8.676  -3.221   1.024  1.00  0.00     0.158 C 
BRANCH  13  14
HETATM   14  C   UNL     1       9.426  -1.974   1.487  1.00  0.00     0.187 C 
BRANCH  14  15
HETATM   15  O   UNL     1       9.307  -1.798   2.902  1.00  0.00    -0.394 OA
HETATM   16  C   UNL     1      10.204  -0.789   3.358  1.00  0.00     0.201 C 
ENDBRANCH  14  15
ENDBRANCH  13  14
ENDBRANCH  10  13
BRANCH  11  17
HETATM   17  C   UNL     1       5.225  -4.930   1.135  1.00  0.00     0.078 C 
HETATM   18  C   UNL     1       4.819  -6.436   1.287  1.00  0.00     0.014 C 
HETATM   19  C   UNL     1       3.652  -6.157   0.328  1.00  0.00     0.002 C 
HETATM   20  C   UNL     1       4.480  -4.982  -0.229  1.00  0.00     0.014 C 
ENDBRANCH  11  17
ENDBRANCH   3  10
BRANCH   2  21
HETATM   21  N   UNL     1       6.224  -1.915   3.477  1.00  0.00    -0.286 NA
HETATM   22  H   UNL     1       6.487  -1.134   4.067  1.00  0.00     0.125 HD
HETATM   23  H   UNL     1       7.000  -2.585   3.460  1.00  0.00     0.125 HD
ENDBRANCH   2  21
BRANCH   1  24
HETATM   24  C   UNL     1       4.725   0.505   3.065  1.00  0.00     0.135 C 
BRANCH  24  25
HETATM   25  C   UNL     1       5.752   1.601   3.379  1.00  0.00     0.016 C 
HETATM   26  C   UNL     1       5.278   2.503   4.510  1.00  0.00     0.006 C 
ENDBRANCH  24  25
ENDBRANCH   1  24
TORSDOF 8
