REMARK  6 active torsions:
REMARK  status: ('A' for Active; 'I' for Inactive)
REMARK    1  A    between atoms: C_2  and  N_3 
REMARK    2  A    between atoms: C_2  and  C_14 
REMARK    3  A    between atoms: N_3  and  C_4 
REMARK    4  A    between atoms: C_4  and  C_5 
REMARK    5  A    between atoms: C_5  and  C_6 
REMARK       I    between atoms: C_6  and  N_8 
REMARK    6  A    between atoms: C_14  and  N_16 
ROOT
HETATM    1  N   UNL     1       2.954  -1.378   0.211  1.00  0.00     0.090 N 
HETATM    2  H   UNL     1       3.961  -1.427   0.066  1.00  0.00     0.316 HD
ENDROOT
BRANCH   1   3
HETATM    3  C   UNL     1       2.506   0.028   0.063  1.00  0.00     0.240 C 
HETATM    4  C   UNL     1       3.236   0.914   1.085  1.00  0.00     0.045 C 
BRANCH   3   5
HETATM    5  C   UNL     1       0.958   0.226   0.089  1.00  0.00     0.136 C 
HETATM    6  C   UNL     1       0.527   1.685  -0.104  1.00  0.00     0.036 C 
BRANCH   5   7
HETATM    7  N   UNL     1       0.284  -0.624  -0.895  1.00  0.00    -0.297 N 
HETATM    8  C   UNL     1      -0.641  -1.597  -0.628  1.00  0.00     0.118 A 
HETATM    9  C   UNL     1      -0.993  -2.149  -1.842  1.00  0.00    -0.028 A 
HETATM   10  C   UNL     1      -1.939  -3.254  -2.108  1.00  0.00     0.051 C 
HETATM   11  C   UNL     1      -0.237  -1.413  -2.782  1.00  0.00     0.115 A 
HETATM   12  N   UNL     1       0.507  -0.460  -2.217  1.00  0.00    -0.309 N 
ATOM     13  HN  UNL     1       1.103   0.229  -2.675  1.00  0.00     0.186 HD
ENDBRANCH   5   7
ENDBRANCH   3   5
ENDBRANCH   1   3
BRANCH   1  14
HETATM   14  C   UNL     1       2.595  -2.006   1.483  1.00  0.00     0.279 C 
BRANCH  14  15
HETATM   15  C   UNL     1       3.016  -3.471   1.483  1.00  0.00     0.133 C 
BRANCH  15  16
HETATM   16  C   UNL     1       2.638  -4.131   2.798  1.00  0.00     0.221 C 
HETATM   17  O   UNL     1       2.101  -3.490   3.701  1.00  0.00    -0.273 OA
HETATM   18  N   UNL     1       2.928  -5.483   2.925  1.00  0.00    -0.352 N 
HETATM   19  C   UNL     1       3.593  -6.306   1.916  1.00  0.00     0.125 C 
HETATM   20  C   UNL     1       2.557  -6.181   4.152  1.00  0.00     0.125 C 
HETATM   21  C   UNL     1       2.716  -7.499   1.546  1.00  0.00     0.020 C 
HETATM   22  C   UNL     1       2.326  -8.295   2.791  1.00  0.00     0.003 C 
HETATM   23  C   UNL     1       1.678  -7.389   3.840  1.00  0.00     0.020 C 
ENDBRANCH  15  16
ENDBRANCH  14  15
ENDBRANCH   1  14
TORSDOF 6
