REMARK  6 active torsions:
REMARK  status: ('A' for Active; 'I' for Inactive)
REMARK    1  A    between atoms: O_1  and  C_2 
REMARK    2  A    between atoms: C_2  and  C_3 
REMARK    3  A    between atoms: C_2  and  C_19 
REMARK    4  A    between atoms: C_3  and  N_4 
REMARK    5  A    between atoms: C_7  and  C_16 
REMARK    6  A    between atoms: C_9  and  C_12 
ROOT
HETATM    1  N   UNL     1       2.497   0.737   2.277  1.00  0.00    -0.254 N 
HETATM    2  N   UNL     1       2.950   2.014   2.060  1.00  0.00    -0.299 N 
ATOM      3  HN  UNL     1       3.512   2.247   1.241  1.00  0.00     0.187 HD
HETATM    4  C   UNL     1       2.635   2.907   2.936  1.00  0.00     0.031 A 
HETATM    5  C   UNL     1       1.850   2.664   4.151  1.00  0.00     0.049 A 
HETATM    6  C   UNL     1       1.479   1.397   4.393  1.00  0.00     0.119 A 
HETATM    7  C   UNL     1       1.813   0.331   3.425  1.00  0.00     0.277 A 
HETATM    8  O   UNL     1       1.518  -0.842   3.633  1.00  0.00    -0.266 OA
ENDROOT
BRANCH   1   9
HETATM    9  C   UNL     1       2.968  -0.277   1.322  1.00  0.00     0.189 C 
BRANCH   9  10
HETATM   10  C   UNL     1       4.307  -0.865   1.804  1.00  0.00     0.171 C 
BRANCH  10  11
HETATM   11  O   UNL     1       5.283   0.178   1.942  1.00  0.00    -0.389 OA
HETATM   12  H   UNL     1       4.779   0.976   2.199  1.00  0.00     0.210 HD
ENDBRANCH  10  11
BRANCH  10  13
HETATM   13  C   UNL     1       4.886  -1.910   0.878  1.00  0.00    -0.028 A 
HETATM   14  C   UNL     1       5.061  -3.228   1.331  1.00  0.00     0.013 A 
HETATM   15  C   UNL     1       5.671  -4.183   0.517  1.00  0.00     0.043 A 
HETATM   16  C   UNL     1       6.100  -3.827  -0.755  1.00  0.00     0.116 A 
HETATM   17  F   UNL     1       6.708  -4.738  -1.526  1.00  0.00    -0.206 F 
HETATM   18  C   UNL     1       5.918  -2.536  -1.235  1.00  0.00     0.043 A 
HETATM   19  C   UNL     1       5.312  -1.578  -0.420  1.00  0.00     0.013 A 
ENDBRANCH  10  13
ENDBRANCH   9  10
ENDBRANCH   1   9
BRANCH   4  20
HETATM   20  C   UNL     1       3.108   4.287   2.685  1.00  0.00     0.037 A 
HETATM   21  C   UNL     1       4.601   4.528   2.592  1.00  0.00     0.011 A 
HETATM   22  C   UNL     1       3.822   5.112   3.730  1.00  0.00     0.011 A 
ENDBRANCH   4  20
BRANCH   6  23
HETATM   23  C   UNL     1       0.755   1.018   5.629  1.00  0.00     0.422 C 
HETATM   24  F   UNL     1       0.555  -0.303   5.840  1.00  0.00    -0.166 F 
HETATM   25  F   UNL     1       1.424   1.475   6.726  1.00  0.00    -0.166 F 
HETATM   26  F   UNL     1      -0.470   1.609   5.674  1.00  0.00    -0.166 F 
ENDBRANCH   6  23
TORSDOF 6
