REMARK  5 active torsions:
REMARK  status: ('A' for Active; 'I' for Inactive)
REMARK    1  A    between atoms: N_2  and  C_16 
REMARK    2  A    between atoms: C_6  and  N_7 
REMARK    3  A    between atoms: C_13  and  O_22 
REMARK    4  A    between atoms: C_16  and  C_20 
REMARK    5  A    between atoms: C_20  and  O_25 
ROOT
HETATM    1  C   UNL     1       0.359  -0.780  -0.037  1.00  0.00     0.117 A 
HETATM    2  N   UNL     1       1.439   1.123  -0.092  1.00  0.00    -0.324 N 
HETATM    3  C   UNL     1       0.179   0.594  -0.123  1.00  0.00     0.140 A 
HETATM    4  N   UNL     1       1.712  -1.076  -0.012  1.00  0.00    -0.346 N 
ATOM      5  HN  UNL     1       2.141  -2.001   0.012  1.00  0.00     0.167 HD
HETATM    6  C   UNL     1      -0.813  -1.579   0.009  1.00  0.00     0.114 A 
HETATM    7  C   UNL     1       2.326   0.086  -0.025  1.00  0.00     0.185 A 
HETATM    8  N   UNL     1      -0.976   1.272  -0.191  1.00  0.00    -0.336 N 
ATOM      9  HN  UNL     1      -1.050   2.288  -0.248  1.00  0.00     0.168 HD
HETATM   10  N   UNL     1      -2.007  -0.916  -0.088  1.00  0.00    -0.341 N 
ATOM     11  HN  UNL     1      -2.883  -1.438  -0.095  1.00  0.00     0.167 HD
HETATM   12  C   UNL     1      -2.021   0.430  -0.174  1.00  0.00     0.183 A 
ENDROOT
BRANCH   6  13
HETATM   13  N   UNL     1      -0.797  -2.983   0.129  1.00  0.00    -0.267 NA
HETATM   14  C   UNL     1      -2.126  -3.606   0.051  1.00  0.00     0.104 C 
HETATM   15  C   UNL     1      -1.947  -5.120  -0.104  1.00  0.00     0.034 C 
HETATM   16  C   UNL     1      -1.121  -5.699   1.063  1.00  0.00     0.064 C 
HETATM   17  C   UNL     1      -3.291  -5.841  -0.260  1.00  0.00     0.009 C 
HETATM   18  C   UNL     1      -0.900  -7.207   0.851  1.00  0.00     0.038 C 
HETATM   19  C   UNL     1       0.223  -4.964   1.160  1.00  0.00     0.053 C 
HETATM   20  C   UNL     1      -2.217  -7.962   0.644  1.00  0.00     0.003 C 
HETATM   21  C   UNL     1      -3.075  -7.343  -0.456  1.00  0.00     0.001 C 
HETATM   22  C   UNL     1       0.016  -3.452   1.264  1.00  0.00     0.100 C 
BRANCH  16  23
HETATM   23  O   UNL     1      -1.786  -5.506   2.320  1.00  0.00    -0.389 OA
HETATM   24  H   UNL     1      -2.634  -5.978   2.310  1.00  0.00     0.210 HD
ENDBRANCH  16  23
ENDBRANCH   6  13
BRANCH   2  25
HETATM   25  C   UNL     1       1.754   2.530   0.038  1.00  0.00     0.169 C 
BRANCH  25  26
HETATM   26  C   UNL     1       2.127   3.263  -1.271  1.00  0.00     0.078 C 
HETATM   27  C   UNL     1       2.476   4.724  -0.932  1.00  0.00     0.066 C 
HETATM   28  C   UNL     1       1.234   5.573  -0.724  1.00  0.00     0.170 C 
HETATM   29  O   UNL     1       0.436   5.543  -1.900  1.00  0.00    -0.391 OA
HETATM   30  C   UNL     1      -0.066   4.240  -2.186  1.00  0.00     0.170 C 
HETATM   31  C   UNL     1       1.061   3.237  -2.384  1.00  0.00     0.066 C 
BRANCH  26  32
HETATM   32  O   UNL     1       3.340   2.667  -1.770  1.00  0.00    -0.388 OA
HETATM   33  H   UNL     1       3.138   1.772  -2.098  1.00  0.00     0.210 HD
ENDBRANCH  26  32
ENDBRANCH  25  26
ENDBRANCH   2  25
TORSDOF 5
