REMARK  3 active torsions:
REMARK  status: ('A' for Active; 'I' for Inactive)
REMARK    1  A    between atoms: C_8  and  N_9 
REMARK       I    between atoms: N_9  and  C_10 
REMARK       I    between atoms: C_10  and  N_12 
REMARK    2  A    between atoms: N_12  and  C_13 
REMARK    3  A    between atoms: C_13  and  C_14 
ROOT
HETATM    1  N   UNL     1       2.208  -2.441   0.346  1.00  0.00    -0.294 N 
HETATM    2  C   UNL     1       0.849  -2.484   0.479  1.00  0.00     0.321 C 
HETATM    3  O   UNL     1       0.223  -1.422   0.472  1.00  0.00    -0.247 OA
HETATM    4  N   UNL     1       0.253  -3.696   0.639  1.00  0.00    -0.340 N 
HETATM    5  H   UNL     1       2.555  -1.499   0.254  1.00  0.00     0.172 HD
HETATM    6  H   UNL     1       0.813  -4.491   0.327  1.00  0.00     0.164 HD
ENDROOT
BRANCH   1   7
HETATM    7  C   UNL     1       3.134  -3.492   0.379  1.00  0.00     0.114 A 
HETATM    8  C   UNL     1       4.511  -3.217   0.313  1.00  0.00    -0.018 A 
HETATM    9  C   UNL     1       5.093  -1.840   0.169  1.00  0.00     0.052 C 
HETATM   10  C   UNL     1       5.392  -4.304   0.421  1.00  0.00     0.012 A 
HETATM   11  C   UNL     1       4.899  -5.593   0.573  1.00  0.00     0.018 A 
HETATM   12  C   UNL     1       3.533  -5.765   0.600  1.00  0.00     0.089 A 
HETATM   13  N   UNL     1       2.653  -4.749   0.501  1.00  0.00    -0.352 N 
ATOM     14  HN  UNL     1       1.648  -4.925   0.518  1.00  0.00     0.166 HD
ENDBRANCH   1   7
BRANCH   4  15
HETATM   15  C   UNL     1      -1.190  -3.814   0.695  1.00  0.00     0.156 C 
BRANCH  15  16
HETATM   16  C   UNL     1      -1.761  -5.224   0.888  1.00  0.00     0.139 C 
HETATM   17  C   UNL     1      -1.299  -6.004   2.108  1.00  0.00     0.035 C 
HETATM   18  C   UNL     1      -1.465  -7.459   1.695  1.00  0.00     0.029 C 
HETATM   19  C   UNL     1      -1.855  -7.405   0.231  1.00  0.00     0.168 C 
HETATM   20  O   UNL     1      -1.486  -6.096  -0.221  1.00  0.00    -0.384 OA
ENDBRANCH  15  16
ENDBRANCH   4  15
TORSDOF 3
