REMARK  9 active torsions:
REMARK  status: ('A' for Active; 'I' for Inactive)
REMARK    1  A    between atoms: N_1  and  C_4 
REMARK    2  A    between atoms: C_6  and  N_11 
REMARK    3  A    between atoms: C_9  and  O_18 
REMARK       I    between atoms: N_11  and  C_14 
REMARK    4  A    between atoms: C_12  and  O_19 
REMARK    5  A    between atoms: C_14  and  O_20 
REMARK    6  A    between atoms: O_20  and  C_22 
REMARK    7  A    between atoms: C_22  and  C_23 
REMARK    8  A    between atoms: C_23  and  C_25 
REMARK    9  A    between atoms: C_24  and  C_25 
ROOT
HETATM    1  N   UNL     1      -2.294   2.341  -1.437  1.00  0.00    -0.277 N 
HETATM    2  N   UNL     1      -3.730   3.059  -3.196  1.00  0.00    -0.292 N 
ATOM      3  HN  UNL     1      -4.141   3.797  -3.767  1.00  0.00     0.172 HD
HETATM    4  C   UNL     1      -2.863   3.379  -2.191  1.00  0.00     0.330 A 
HETATM    5  C   UNL     1      -4.029   1.832  -3.425  1.00  0.00     0.154 A 
HETATM    6  C   UNL     1      -2.654   1.013  -1.675  1.00  0.00     0.144 A 
HETATM    7  C   UNL     1      -3.493   0.700  -2.657  1.00  0.00     0.176 A 
HETATM    8  O   UNL     1      -2.615   4.554  -1.963  1.00  0.00    -0.246 OA
HETATM    9  F   UNL     1      -3.894  -0.549  -2.946  1.00  0.00    -0.201 F 
ENDROOT
BRANCH   1  10
HETATM   10  C   UNL     1      -1.397   2.640  -0.311  1.00  0.00     0.263 C 
HETATM   11  C   UNL     1      -0.557   3.935  -0.316  1.00  0.00     0.198 C 
HETATM   12  C   UNL     1      -1.362   4.906   0.555  1.00  0.00     0.179 C 
HETATM   13  C   UNL     1      -2.360   4.023   1.313  1.00  0.00     0.151 C 
HETATM   14  O   UNL     1      -2.158   2.653   0.911  1.00  0.00    -0.356 OA
HETATM   15  C   UNL     1      -3.819   4.388   1.053  1.00  0.00     0.042 C 
BRANCH  11  16
HETATM   16  O   UNL     1       0.736   3.709   0.279  1.00  0.00    -0.388 OA
HETATM   17  H   UNL     1       0.622   3.128   1.050  1.00  0.00     0.210 HD
ENDBRANCH  11  16
BRANCH  12  18
HETATM   18  O   UNL     1      -0.549   5.639   1.482  1.00  0.00    -0.390 OA
HETATM   19  H   UNL     1       0.159   5.046   1.788  1.00  0.00     0.210 HD
ENDBRANCH  12  18
ENDBRANCH   1  10
BRANCH   5  20
HETATM   20  N   UNL     1      -4.921   1.500  -4.418  1.00  0.00    -0.286 N 
HETATM   21  C   UNL     1      -5.752   2.411  -5.038  1.00  0.00     0.366 C 
HETATM   22  O   UNL     1      -5.685   3.630  -5.027  1.00  0.00    -0.238 OA
HETATM   23  H   UNL     1      -5.199   0.541  -4.534  1.00  0.00     0.172 HD
BRANCH  21  24
HETATM   24  O   UNL     1      -6.765   1.730  -5.638  1.00  0.00    -0.304 OA
BRANCH  24  25
HETATM   25  C   UNL     1      -8.032   2.374  -5.470  1.00  0.00     0.180 C 
BRANCH  25  26
HETATM   26  C   UNL     1      -8.509   3.159  -6.690  1.00  0.00     0.027 C 
BRANCH  26  27
HETATM   27  C   UNL     1      -9.916   3.695  -6.398  1.00  0.00     0.002 C 
BRANCH  27  28
HETATM   28  C   UNL     1     -10.525   4.469  -7.562  1.00  0.00    -0.004 C 
HETATM   29  C   UNL     1     -11.926   4.956  -7.212  1.00  0.00     0.005 C 
ENDBRANCH  27  28
ENDBRANCH  26  27
ENDBRANCH  25  26
ENDBRANCH  24  25
ENDBRANCH  21  24
ENDBRANCH   5  20
TORSDOF 9
