REMARK  6 active torsions:
REMARK  status: ('A' for Active; 'I' for Inactive)
REMARK    1  A    between atoms: C_2  and  C_3 
REMARK    2  A    between atoms: C_3  and  N_4 
REMARK    3  A    between atoms: C_3  and  C_10 
REMARK       I    between atoms: C_10  and  N_12 
REMARK    4  A    between atoms: N_12  and  C_13 
REMARK    5  A    between atoms: C_13  and  C_15 
REMARK    6  A    between atoms: C_15  and  N_17 
ROOT
HETATM    1  C   UNL     1       4.686  -1.316   0.349  1.00  0.00     0.241 C 
HETATM    2  O   UNL     1       5.300  -0.377  -0.151  1.00  0.00    -0.271 OA
HETATM    3  N   UNL     1       5.336  -2.434   0.842  1.00  0.00    -0.353 N 
HETATM    4  H   UNL     1       4.767  -3.273   0.997  1.00  0.00     0.163 HD
ENDROOT
BRANCH   3   5
HETATM    5  C   UNL     1       6.798  -2.575   0.806  1.00  0.00     0.105 C 
HETATM    6  C   UNL     1       7.226  -3.409   2.025  1.00  0.00     0.034 C 
BRANCH   5   7
HETATM    7  C   UNL     1       7.309  -3.195  -0.525  1.00  0.00     0.127 C 
HETATM    8  C   UNL     1       6.930  -2.397  -1.777  1.00  0.00     0.036 C 
BRANCH   7   9
HETATM    9  N   UNL     1       8.755  -3.389  -0.504  1.00  0.00    -0.281 N 
HETATM   10  C   UNL     1       9.733  -2.451  -0.363  1.00  0.00     0.201 A 
HETATM   11  N   UNL     1      10.907  -3.038  -0.361  1.00  0.00    -0.346 N 
HETATM   12  C   UNL     1      10.591  -4.357  -0.518  1.00  0.00     0.198 A 
ATOM     13  HN  UNL     1      11.829  -2.613  -0.266  1.00  0.00     0.167 HD
HETATM   14  N   UNL     1       9.285  -4.623  -0.611  1.00  0.00    -0.293 N 
ATOM     15  HN  UNL     1       8.815  -5.520  -0.731  1.00  0.00     0.188 HD
ENDBRANCH   7   9
ENDBRANCH   5   7
ENDBRANCH   3   5
BRANCH   1  16
HETATM   16  C   UNL     1       3.142  -1.408   0.383  1.00  0.00     0.178 C 
BRANCH  16  17
HETATM   17  C   UNL     1       2.518  -0.004   0.437  1.00  0.00     0.030 C 
HETATM   18  C   UNL     1       2.931   0.786   1.674  1.00  0.00     0.007 C 
ENDBRANCH  16  17
BRANCH  16  19
HETATM   19  N   UNL     1       2.729  -2.176  -0.807  1.00  0.00    -0.339 N 
HETATM   20  C   UNL     1       2.460  -1.561  -2.083  1.00  0.00     0.127 C 
HETATM   21  C   UNL     1       2.394  -2.700  -3.083  1.00  0.00     0.029 C 
HETATM   22  C   UNL     1       2.910  -3.933  -2.357  1.00  0.00     0.104 C 
HETATM   23  C   UNL     1       2.975  -3.534  -0.909  1.00  0.00     0.220 C 
HETATM   24  O   UNL     1       3.319  -4.263   0.010  1.00  0.00    -0.273 OA
ENDBRANCH  16  19
ENDBRANCH   1  16
TORSDOF 6
