REMARK  7 active torsions:
REMARK  status: ('A' for Active; 'I' for Inactive)
REMARK    1  A    between atoms: O_1  and  C_2 
REMARK    2  A    between atoms: C_2  and  C_3 
REMARK    3  A    between atoms: C_3  and  N_4 
REMARK    4  A    between atoms: N_4  and  C_5 
REMARK    5  A    between atoms: C_5  and  C_6 
REMARK    6  A    between atoms: C_5  and  C_14 
REMARK    7  A    between atoms: C_6  and  C_7 
ROOT
HETATM    1  C   UNL     1       4.694   0.354  -2.952  1.00  0.00     0.331 C 
ENDROOT
BRANCH   1   2
HETATM    2  N   UNL     1       4.297   0.251  -1.504  1.00  0.00     0.100 N 
HETATM    3  H   UNL     1       4.713  -0.610  -1.138  1.00  0.00     0.316 HD
BRANCH   2   4
HETATM    4  C   UNL     1       2.836   0.188  -1.298  1.00  0.00     0.308 C 
BRANCH   4   5
HETATM    5  C   UNL     1       2.467  -0.016   0.197  1.00  0.00     0.093 C 
HETATM    6  C   UNL     1       2.887   1.137   1.122  1.00  0.00     0.050 C 
HETATM    7  C   UNL     1       1.875   2.267   1.021  1.00  0.00     0.077 C 
HETATM    8  S   UNL     1       0.289   1.504   0.595  1.00  0.00    -0.166 SA
HETATM    9  C   UNL     1       0.953  -0.170   0.387  1.00  0.00     0.113 C 
BRANCH   5  10
HETATM   10  O   UNL     1       3.106  -1.225   0.643  1.00  0.00    -0.387 OA
HETATM   11  H   UNL     1       4.038  -1.006   0.814  1.00  0.00     0.210 HD
ENDBRANCH   5  10
ENDBRANCH   4   5
ENDBRANCH   2   4
ENDBRANCH   1   2
BRANCH   1  12
HETATM   12  C   UNL     1       4.120   1.595  -3.683  1.00  0.00     0.083 C 
BRANCH  12  13
HETATM   13  C   UNL     1       4.543   2.977  -3.227  1.00  0.00    -0.053 A 
HETATM   14  C   UNL     1       5.365   3.216  -2.124  1.00  0.00     0.024 A 
HETATM   15  C   UNL     1       5.754   4.520  -1.847  1.00  0.00     0.088 A 
HETATM   16  N   UNL     1       5.365   5.591  -2.568  1.00  0.00    -0.375 N 
HETATM   17  C   UNL     1       4.549   5.346  -3.616  1.00  0.00     0.088 A 
ATOM     18  HN  UNL     1       5.671   6.536  -2.334  1.00  0.00     0.164 HD
HETATM   19  C   UNL     1       4.115   4.078  -3.976  1.00  0.00     0.024 A 
ENDBRANCH  12  13
ENDBRANCH   1  12
BRANCH   1  20
HETATM   20  C   UNL     1       6.230   0.214  -3.232  1.00  0.00     0.418 C 
HETATM   21  F   UNL     1       6.932   0.102  -2.077  1.00  0.00    -0.169 F 
HETATM   22  F   UNL     1       6.473  -0.917  -3.943  1.00  0.00    -0.169 F 
HETATM   23  F   UNL     1       6.756   1.237  -3.929  1.00  0.00    -0.169 F 
ENDBRANCH   1  20
TORSDOF 7
