REMARK  4 active torsions:
REMARK  status: ('A' for Active; 'I' for Inactive)
REMARK    1  A    between atoms: C_2  and  C_3 
REMARK    2  A    between atoms: C_2  and  N_10 
REMARK    3  A    between atoms: C_3  and  N_4 
REMARK       I    between atoms: N_10  and  C_11 
REMARK    4  A    between atoms: C_11  and  C_13 
ROOT
HETATM    1  C   UNL     1       1.061  -0.158  -0.050  1.00  0.00     0.034 C 
HETATM    2  C   UNL     1       2.586  -0.137   0.049  1.00  0.00     0.098 C 
ENDROOT
BRANCH   2   3
HETATM    3  C   UNL     1       3.085  -0.520   1.457  1.00  0.00     0.153 C 
BRANCH   3   4
HETATM    4  N   UNL     1       2.637   0.367   2.512  1.00  0.00    -0.350 N 
HETATM    5  C   UNL     1       1.843   0.029   3.574  1.00  0.00     0.108 A 
HETATM    6  C   UNL     1       1.707   1.192   4.297  1.00  0.00     0.106 A 
HETATM    7  N   UNL     1       2.402   2.216   3.709  1.00  0.00    -0.361 N 
HETATM    8  C   UNL     1       2.966   1.686   2.645  1.00  0.00     0.182 A 
ATOM      9  HN  UNL     1       2.468   3.183   4.028  1.00  0.00     0.166 HD
ENDBRANCH   3   4
ENDBRANCH   2   3
BRANCH   2  10
HETATM   10  N   UNL     1       3.153  -1.021  -0.969  1.00  0.00    -0.353 N 
HETATM   11  C   UNL     1       4.421  -0.836  -1.485  1.00  0.00     0.247 C 
HETATM   12  O   UNL     1       5.181   0.038  -1.081  1.00  0.00    -0.271 OA
HETATM   13  H   UNL     1       2.588  -1.745  -1.407  1.00  0.00     0.163 HD
BRANCH  11  14
HETATM   14  C   UNL     1       4.816  -1.883  -2.541  1.00  0.00     0.213 C 
HETATM   15  C   UNL     1       5.747  -1.323  -3.605  1.00  0.00     0.043 C 
HETATM   16  C   UNL     1       5.318  -1.992  -4.893  1.00  0.00     0.029 C 
HETATM   17  C   UNL     1       4.195  -2.922  -4.491  1.00  0.00     0.168 C 
HETATM   18  O   UNL     1       3.694  -2.437  -3.240  1.00  0.00    -0.376 OA
ENDBRANCH  11  14
ENDBRANCH   2  10
TORSDOF 4
