REMARK  5 active torsions:
REMARK  status: ('A' for Active; 'I' for Inactive)
REMARK    1  A    between atoms: C_2  and  C_3 
REMARK    2  A    between atoms: C_2  and  N_11 
REMARK    3  A    between atoms: C_3  and  C_4 
REMARK       I    between atoms: N_11  and  C_12 
REMARK    4  A    between atoms: C_12  and  C_14 
REMARK    5  A    between atoms: C_14  and  N_16 
ROOT
HETATM    1  N   UNL     1       4.145   0.618   1.080  1.00  0.00    -0.355 N 
HETATM    2  C   UNL     1       4.348  -0.718   1.350  1.00  0.00     0.240 C 
HETATM    3  O   UNL     1       4.000  -1.594   0.561  1.00  0.00    -0.271 OA
HETATM    4  H   UNL     1       4.479   1.306   1.744  1.00  0.00     0.162 HD
ENDROOT
BRANCH   1   5
HETATM    5  C   UNL     1       3.683   1.080  -0.233  1.00  0.00     0.086 C 
HETATM    6  C   UNL     1       2.858   2.347  -0.043  1.00  0.00     0.032 C 
BRANCH   5   7
HETATM    7  C   UNL     1       4.879   1.268  -1.193  1.00  0.00     0.083 C 
BRANCH   7   8
HETATM    8  C   UNL     1       4.464   1.620  -2.582  1.00  0.00     0.029 A 
HETATM    9  C   UNL     1       4.125   0.742  -3.639  1.00  0.00     0.052 A 
HETATM   10  C   UNL     1       3.760   1.563  -4.683  1.00  0.00     0.024 A 
HETATM   11  C   UNL     1       3.271   1.273  -6.049  1.00  0.00     0.070 C 
HETATM   12  N   UNL     1       3.922   2.839  -4.222  1.00  0.00    -0.305 N 
HETATM   13  N   UNL     1       4.359   2.902  -2.954  1.00  0.00    -0.305 N 
HETATM   14  H   UNL     1       3.745   3.709  -4.712  1.00  0.00     0.186 HD
ATOM     15  HN  UNL     1       4.564   3.735  -2.401  1.00  0.00     0.186 HD
ENDBRANCH   7   8
ENDBRANCH   5   7
ENDBRANCH   1   5
BRANCH   2  16
HETATM   16  C   UNL     1       5.018  -1.014   2.715  1.00  0.00     0.168 C 
HETATM   17  C   UNL     1       4.581  -2.408   3.190  1.00  0.00     0.042 C 
BRANCH  16  18
HETATM   18  N   UNL     1       6.490  -0.859   2.715  1.00  0.00    -0.392 N 
HETATM   19  C   UNL     1       7.055   0.476   2.486  1.00  0.00     0.076 C 
HETATM   20  C   UNL     1       7.045   1.329   3.753  1.00  0.00     0.032 C 
HETATM   21  C   UNL     1       8.489   0.235   2.004  1.00  0.00     0.026 C 
HETATM   22  C   UNL     1       8.717  -1.254   2.181  1.00  0.00     0.026 C 
HETATM   23  C   UNL     1       7.322  -1.860   2.035  1.00  0.00     0.076 C 
HETATM   24  C   UNL     1       7.013  -2.126   0.562  1.00  0.00     0.032 C 
ENDBRANCH  16  18
ENDBRANCH   2  16
TORSDOF 5
