REMARK  3 active torsions:
REMARK  status: ('A' for Active; 'I' for Inactive)
REMARK    1  A    between atoms: O_3  and  C_4 
REMARK    2  A    between atoms: C_4  and  C_6 
REMARK    3  A    between atoms: C_6  and  C_9 
ROOT
HETATM    1  C   UNL     2       3.553  -0.681   1.158  1.00  0.00     0.074 A 
HETATM    2  C   UNL     2       4.759  -1.580   0.866  1.00  0.00     0.027 A 
HETATM    3  C   UNL     2       3.371  -2.186   0.891  1.00  0.00     0.027 A 
ENDROOT
BRANCH   1   4
HETATM    4  C   UNL     2       2.897   0.111   0.037  1.00  0.00     0.153 C 
HETATM    5  O   UNL     2       3.257  -0.051  -1.120  1.00  0.00    -0.649 OA
BRANCH   4   6
HETATM    6  O   UNL     2       1.944   1.036   0.289  1.00  0.00    -0.776 OA
HETATM    7  H   UNL     2       1.654   1.267   1.182  1.00  0.00     0.167 HD
ENDBRANCH   4   6
ENDBRANCH   1   4
BRANCH   1   8
HETATM    8  C   UNL     2       3.097  -0.422   2.577  1.00  0.00    -0.024 A 
HETATM    9  C   UNL     2       3.960   0.179   3.504  1.00  0.00     0.011 A 
HETATM   10  C   UNL     2       3.519   0.428   4.806  1.00  0.00     0.018 A 
HETATM   11  C   UNL     2       2.218   0.072   5.173  1.00  0.00     0.087 A 
HETATM   12  N   UNL     2       1.392  -0.509   4.264  1.00  0.00    -0.375 N 
HETATM   13  C   UNL     2       1.795  -0.759   2.991  1.00  0.00     0.096 A 
ATOM     14  HN  UNL     2       0.445  -0.764   4.545  1.00  0.00     0.164 HD
ENDBRANCH   1   8
TORSDOF 3
