REMARK  6 active torsions:
REMARK  status: ('A' for Active; 'I' for Inactive)
REMARK    1  A    between atoms: C_2  and  N_3 
REMARK    2  A    between atoms: C_2  and  C_12 
REMARK    3  A    between atoms: N_3  and  C_4 
REMARK    4  A    between atoms: C_4  and  C_5 
REMARK    5  A    between atoms: C_5  and  O_6 
REMARK    6  A    between atoms: C_12  and  N_14 
ROOT
HETATM    1  N   UNL     1       3.153   0.628  -0.975  1.00  0.00     0.092 N 
HETATM    2  H   UNL     1       4.163   0.487  -0.994  1.00  0.00     0.316 HD
ENDROOT
BRANCH   1   3
HETATM    3  C   UNL     1       2.564  -0.290   0.033  1.00  0.00     0.240 C 
HETATM    4  C   UNL     1       3.113   0.160   1.396  1.00  0.00     0.045 C 
BRANCH   3   5
HETATM    5  C   UNL     1       2.809  -1.807  -0.247  1.00  0.00     0.136 C 
HETATM    6  C   UNL     1       4.292  -2.189  -0.356  1.00  0.00     0.036 C 
BRANCH   5   7
HETATM    7  N   UNL     1       2.079  -2.663   0.687  1.00  0.00    -0.297 N 
HETATM    8  C   UNL     1       0.808  -3.140   0.520  1.00  0.00     0.112 A 
HETATM    9  C   UNL     1       0.548  -3.926   1.617  1.00  0.00     0.037 A 
HETATM   10  C   UNL     1       1.721  -3.859   2.390  1.00  0.00     0.108 A 
HETATM   11  N   UNL     1       2.655  -3.091   1.829  1.00  0.00    -0.310 N 
ATOM     12  HN  UNL     1       3.588  -2.877   2.181  1.00  0.00     0.186 HD
ENDBRANCH   5   7
ENDBRANCH   3   5
ENDBRANCH   1   3
BRANCH   1  13
HETATM   13  C   UNL     1       2.610   0.435  -2.331  1.00  0.00     0.307 C 
BRANCH  13  14
HETATM   14  C   UNL     1       3.278   1.365  -3.385  1.00  0.00     0.084 C 
HETATM   15  C   UNL     1       3.079   2.863  -3.096  1.00  0.00     0.039 C 
HETATM   16  C   UNL     1       1.635   3.312  -3.294  1.00  0.00     0.003 C 
HETATM   17  C   UNL     1       1.126   2.965  -4.691  1.00  0.00     0.000 C 
HETATM   18  C   UNL     1       1.321   1.490  -5.030  1.00  0.00     0.003 C 
HETATM   19  C   UNL     1       2.763   1.041  -4.800  1.00  0.00     0.039 C 
BRANCH  14  20
HETATM   20  O   UNL     1       4.688   1.082  -3.381  1.00  0.00    -0.388 OA
HETATM   21  H   UNL     1       5.048   1.467  -2.563  1.00  0.00     0.210 HD
ENDBRANCH  14  20
ENDBRANCH  13  14
ENDBRANCH   1  13
TORSDOF 6
