REMARK  4 active torsions:
REMARK  status: ('A' for Active; 'I' for Inactive)
REMARK    1  A    between atoms: C_2  and  S_3 
REMARK    2  A    between atoms: S_3  and  C_4 
REMARK    3  A    between atoms: C_8  and  N_10 
REMARK       I    between atoms: N_10  and  C_11 
REMARK       I    between atoms: C_11  and  N_13 
REMARK    4  A    between atoms: N_13  and  C_14 
ROOT
HETATM    1  N   UNL     1       5.418  -1.353  -2.928  1.00  0.00    -0.338 N 
HETATM    2  C   UNL     1       5.123  -1.953  -4.117  1.00  0.00     0.322 C 
HETATM    3  O   UNL     1       4.438  -1.436  -4.996  1.00  0.00    -0.247 OA
HETATM    4  N   UNL     1       5.704  -3.173  -4.334  1.00  0.00    -0.294 N 
HETATM    5  H   UNL     1       5.818  -1.985  -2.236  1.00  0.00     0.164 HD
HETATM    6  H   UNL     1       5.588  -3.531  -5.269  1.00  0.00     0.172 HD
ENDROOT
BRANCH   1   7
HETATM    7  C   UNL     1       4.931  -0.052  -2.517  1.00  0.00     0.087 C 
HETATM    8  C   UNL     1       5.531   1.054  -3.394  1.00  0.00     0.025 C 
HETATM    9  C   UNL     1       5.071   2.436  -2.948  1.00  0.00     0.003 C 
HETATM   10  C   UNL     1       5.375   2.679  -1.467  1.00  0.00     0.015 C 
HETATM   11  C   UNL     1       4.822   1.577  -0.546  1.00  0.00     0.049 C 
HETATM   12  C   UNL     1       5.291   0.203  -1.044  1.00  0.00     0.040 C 
BRANCH  11  13
HETATM   13  S   UNL     1       2.991   1.754  -0.454  1.00  0.00    -0.165 SA
BRANCH  13  14
HETATM   14  C   UNL     1       2.564   0.422   0.708  1.00  0.00     0.070 C 
HETATM   15  C   UNL     1       1.062   0.432   0.937  1.00  0.00     0.016 C 
ENDBRANCH  13  14
ENDBRANCH  11  13
ENDBRANCH   1   7
BRANCH   4  16
HETATM   16  C   UNL     1       6.418  -3.924  -3.429  1.00  0.00     0.125 A 
HETATM   17  C   UNL     1       7.156  -5.088  -3.734  1.00  0.00     0.069 A 
HETATM   18  C   UNL     1       7.717  -5.485  -2.538  1.00  0.00     0.113 A 
HETATM   19  N   UNL     1       7.270  -4.597  -1.610  1.00  0.00    -0.306 N 
HETATM   20  C   UNL     1       7.530  -4.587  -0.192  1.00  0.00     0.177 C 
HETATM   21  N   UNL     1       6.500  -3.629  -2.125  1.00  0.00    -0.284 N 
ATOM     22  HN  UNL     1       6.072  -2.844  -1.634  1.00  0.00     0.188 HD
ENDBRANCH   4  16
TORSDOF 4
