REMARK  5 active torsions:
REMARK  status: ('A' for Active; 'I' for Inactive)
REMARK    1  A    between atoms: N_2  and  C_3 
REMARK    2  A    between atoms: N_2  and  C_16 
REMARK    3  A    between atoms: C_3  and  C_4 
REMARK    4  A    between atoms: C_4  and  N_5 
REMARK       I    between atoms: N_5  and  C_6 
REMARK       I    between atoms: C_6  and  N_8 
REMARK    5  A    between atoms: N_8  and  C_9 
ROOT
HETATM    1  N   UNL     1       3.263  -3.791   0.437  1.00  0.00    -0.341 N 
HETATM    2  C   UNL     1       4.546  -4.164   0.669  1.00  0.00     0.321 C 
HETATM    3  O   UNL     1       5.374  -3.446   1.228  1.00  0.00    -0.247 OA
HETATM    4  N   UNL     1       4.906  -5.413   0.256  1.00  0.00    -0.295 N 
HETATM    5  H   UNL     1       2.694  -4.473  -0.061  1.00  0.00     0.164 HD
HETATM    6  H   UNL     1       5.861  -5.642   0.487  1.00  0.00     0.172 HD
ENDROOT
BRANCH   1   7
HETATM    7  C   UNL     1       2.696  -2.511   0.790  1.00  0.00     0.154 C 
BRANCH   7   8
HETATM    8  C   UNL     1       2.975  -1.426  -0.273  1.00  0.00     0.292 C 
BRANCH   8   9
HETATM    9  N   UNL     1       2.533  -0.058   0.111  1.00  0.00     0.090 N 
HETATM   10  C   UNL     1       1.069  -0.027   0.237  1.00  0.00     0.310 C 
BRANCH   9  11
HETATM   11  C   UNL     1       3.021   0.980  -0.847  1.00  0.00     0.222 C 
HETATM   12  C   UNL     1       4.561   0.987  -1.022  1.00  0.00     0.036 C 
HETATM   13  C   UNL     1       5.277   1.371   0.272  1.00  0.00     0.002 C 
HETATM   14  C   UNL     1       4.880   2.780   0.697  1.00  0.00     0.000 C 
HETATM   15  C   UNL     1       3.364   2.938   0.803  1.00  0.00     0.002 C 
HETATM   16  C   UNL     1       2.633   2.430  -0.443  1.00  0.00     0.036 C 
ENDBRANCH   9  11
ENDBRANCH   8   9
ENDBRANCH   7   8
ENDBRANCH   1   7
BRANCH   4  17
HETATM   17  C   UNL     1       4.142  -6.357  -0.440  1.00  0.00     0.108 A 
HETATM   18  C   UNL     1       4.736  -7.573  -0.757  1.00  0.00     0.049 A 
HETATM   19  C   UNL     1       3.997  -8.517  -1.469  1.00  0.00     0.005 A 
HETATM   20  C   UNL     1       2.692  -8.222  -1.845  1.00  0.00     0.017 A 
HETATM   21  C   UNL     1       2.177  -6.992  -1.487  1.00  0.00     0.089 A 
HETATM   22  N   UNL     1       2.870  -6.060  -0.797  1.00  0.00    -0.352 N 
ATOM     23  HN  UNL     1       2.449  -5.163  -0.553  1.00  0.00     0.166 HD
ENDBRANCH   4  17
TORSDOF 5
