REMARK  6 active torsions:
REMARK  status: ('A' for Active; 'I' for Inactive)
REMARK    1  A    between atoms: C_2  and  C_4 
REMARK    2  A    between atoms: C_4  and  O_5 
REMARK    3  A    between atoms: O_5  and  C_6 
REMARK    4  A    between atoms: C_6  and  C_8 
REMARK       I    between atoms: C_8  and  N_10 
REMARK    5  A    between atoms: N_10  and  C_11 
REMARK    6  A    between atoms: C_13  and  C_18 
ROOT
HETATM    1  C   UNL     1       8.448  -0.137   1.085  1.00  0.00     0.104 A 
HETATM    2  C   UNL     1       9.409  -0.824   1.729  1.00  0.00     0.052 A 
HETATM    3  C   UNL     1      10.806  -0.772   1.333  1.00  0.00     0.065 A 
HETATM    4  C   UNL     1      11.144  -0.033   0.262  1.00  0.00     0.107 A 
HETATM    5  N   UNL     1      10.190   0.661  -0.441  1.00  0.00    -0.331 N 
HETATM    6  C   UNL     1       8.851   0.677  -0.120  1.00  0.00     0.272 A 
HETATM    7  O   UNL     1       8.028   1.324  -0.761  1.00  0.00    -0.266 OA
HETATM    8  H   UNL     1      10.457   1.226  -1.239  1.00  0.00     0.168 HD
ENDROOT
BRANCH   1   9
HETATM    9  N   UNL     1       7.111  -0.131   1.426  1.00  0.00    -0.320 N 
HETATM   10  C   UNL     1       6.563  -0.541   2.624  1.00  0.00     0.251 C 
HETATM   11  O   UNL     1       7.219  -0.845   3.620  1.00  0.00    -0.270 OA
HETATM   12  H   UNL     1       6.471   0.288   0.751  1.00  0.00     0.169 HD
BRANCH  10  13
HETATM   13  C   UNL     1       5.022  -0.533   2.658  1.00  0.00     0.209 C 
HETATM   14  C   UNL     1       4.566  -1.810   3.365  1.00  0.00     0.050 C 
BRANCH  13  15
HETATM   15  O   UNL     1       4.471  -0.429   1.342  1.00  0.00    -0.377 OA
BRANCH  15  16
HETATM   16  C   UNL     1       3.053  -0.244   1.336  1.00  0.00     0.172 C 
BRANCH  16  17
HETATM   17  C   UNL     1       2.565  -0.039  -0.102  1.00  0.00     0.001 C 
HETATM   18  C   UNL     1       1.039   0.027  -0.134  1.00  0.00     0.011 C 
HETATM   19  C   UNL     1       3.169   1.221  -0.721  1.00  0.00     0.011 C 
ENDBRANCH  16  17
ENDBRANCH  15  16
ENDBRANCH  13  15
ENDBRANCH  10  13
ENDBRANCH   1   9
BRANCH   3  20
HETATM   20  C   UNL     1      11.825  -1.526   2.143  1.00  0.00     0.418 C 
HETATM   21  F   UNL     1      11.294  -2.190   3.201  1.00  0.00    -0.166 F 
HETATM   22  F   UNL     1      12.475  -2.451   1.390  1.00  0.00    -0.166 F 
HETATM   23  F   UNL     1      12.776  -0.694   2.641  1.00  0.00    -0.166 F 
ENDBRANCH   3  20
TORSDOF 6
