REMARK  4 active torsions:
REMARK  status: ('A' for Active; 'I' for Inactive)
REMARK    1  A    between atoms: C_2  and  C_3 
REMARK       I    between atoms: C_2  and  N_15 
REMARK    2  A    between atoms: C_3  and  C_4 
REMARK    3  A    between atoms: C_4  and  N_5 
REMARK       I    between atoms: N_5  and  C_6 
REMARK       I    between atoms: C_6  and  N_8 
REMARK    4  A    between atoms: N_8  and  C_9 
ROOT
HETATM    1  N   UNL     1       0.988  -1.308   2.467  1.00  0.00    -0.342 N 
HETATM    2  C   UNL     1       1.132  -2.655   2.724  1.00  0.00     0.323 C 
HETATM    3  O   UNL     1       2.215  -3.141   3.022  1.00  0.00    -0.247 OA
HETATM    4  N   UNL     1      -0.071  -3.305   2.650  1.00  0.00    -0.274 N 
HETATM    5  H   UNL     1       0.288  -1.043   1.783  1.00  0.00     0.164 HD
HETATM    6  H   UNL     1      -0.921  -2.771   2.692  1.00  0.00     0.174 HD
ENDROOT
BRANCH   1   7
HETATM    7  C   UNL     1       2.117  -0.399   2.582  1.00  0.00     0.133 C 
BRANCH   7   8
HETATM    8  C   UNL     1       3.026  -0.399   1.354  1.00  0.00     0.122 C 
BRANCH   8   9
HETATM    9  C   UNL     1       2.343   0.221   0.147  1.00  0.00     0.221 C 
HETATM   10  O   UNL     1       1.164   0.579   0.210  1.00  0.00    -0.273 OA
HETATM   11  N   UNL     1       3.104   0.378  -1.012  1.00  0.00    -0.352 N 
HETATM   12  C   UNL     1       2.506   1.104  -2.136  1.00  0.00     0.125 C 
HETATM   13  C   UNL     1       4.438  -0.187  -1.215  1.00  0.00     0.125 C 
HETATM   14  C   UNL     1       3.091   2.508  -2.255  1.00  0.00     0.020 C 
HETATM   15  C   UNL     1       4.377   2.594  -3.077  1.00  0.00     0.002 C 
HETATM   16  C   UNL     1       5.350   1.422  -2.971  1.00  0.00     0.002 C 
HETATM   17  C   UNL     1       5.512   0.844  -1.567  1.00  0.00     0.020 C 
ENDBRANCH   8   9
ENDBRANCH   7   8
ENDBRANCH   1   7
BRANCH   4  18
HETATM   18  C   UNL     1      -0.202  -4.634   2.916  1.00  0.00     0.231 A 
HETATM   19  N   UNL     1      -1.336  -5.254   3.166  1.00  0.00    -0.330 N 
HETATM   20  C   UNL     1      -0.955  -6.554   3.396  1.00  0.00     0.116 A 
ATOM     21  HN  UNL     1      -2.277  -4.861   3.185  1.00  0.00     0.168 HD
HETATM   22  C   UNL     1       0.401  -6.676   3.233  1.00  0.00     0.162 A 
HETATM   23  O   UNL     1       0.894  -5.448   2.921  1.00  0.00    -0.290 OA
ENDBRANCH   4  18
TORSDOF 4
