REMARK  3 active torsions:
REMARK  status: ('A' for Active; 'I' for Inactive)
REMARK    1  A    between atoms: O_1  and  C_2 
REMARK    2  A    between atoms: C_2  and  C_4 
REMARK    3  A    between atoms: C_4  and  N_5 
ROOT
HETATM    1  N   UNL     1       4.664   0.393  -0.871  1.00  0.00    -0.300 N 
HETATM    2  C   UNL     1       5.416   1.543  -0.744  1.00  0.00     0.102 C 
HETATM    3  C   UNL     1       6.745   1.502  -0.637  1.00  0.00     0.092 C 
HETATM    4  C   UNL     1       7.419   0.192  -0.638  1.00  0.00     0.250 C 
HETATM    5  O   UNL     1       8.640   0.110  -0.606  1.00  0.00    -0.268 OA
HETATM    6  N   UNL     1       6.600  -0.898  -0.698  1.00  0.00    -0.275 N 
HETATM    7  C   UNL     1       5.255  -0.858  -0.923  1.00  0.00     0.329 C 
HETATM    8  O   UNL     1       4.616  -1.864  -1.232  1.00  0.00    -0.246 OA
HETATM    9  H   UNL     1       7.053  -1.797  -0.762  1.00  0.00     0.173 HD
ENDROOT
BRANCH   1  10
HETATM   10  C   UNL     1       3.212   0.492  -1.036  1.00  0.00     0.242 C 
BRANCH  10  11
HETATM   11  C   UNL     1       2.813   0.501  -2.505  1.00  0.00     0.158 C 
HETATM   12  O   UNL     1       2.152   1.395  -3.016  1.00  0.00    -0.649 OA
BRANCH  11  13
HETATM   13  O   UNL     1       3.192  -0.602  -3.194  1.00  0.00    -0.775 OA
HETATM   14  H   UNL     1       3.640  -1.281  -2.636  1.00  0.00     0.167 HD
ENDBRANCH  11  13
ENDBRANCH  10  11
ENDBRANCH   1  10
TORSDOF 3
