REMARK  4 active torsions:
REMARK  status: ('A' for Active; 'I' for Inactive)
REMARK    1  A    between atoms: C_2  and  N_3 
REMARK    2  A    between atoms: C_2  and  C_15 
REMARK       I    between atoms: N_3  and  C_4 
REMARK    3  A    between atoms: C_4  and  C_6 
REMARK    4  A    between atoms: C_6  and  C_7 
ROOT
HETATM    1  N   UNL     1       2.752   0.389  -1.586  1.00  0.00    -0.356 N 
HETATM    2  C   UNL     1       2.134   1.201  -2.512  1.00  0.00     0.222 C 
HETATM    3  O   UNL     1       1.136   1.882  -2.290  1.00  0.00    -0.273 OA
HETATM    4  H   UNL     1       3.590  -0.100  -1.877  1.00  0.00     0.162 HD
ENDROOT
BRANCH   1   5
HETATM    5  C   UNL     1       2.327   0.147  -0.201  1.00  0.00     0.084 C 
HETATM    6  C   UNL     1       0.807   0.159  -0.012  1.00  0.00     0.032 C 
BRANCH   5   7
HETATM    7  C   UNL     1       3.030   1.070   0.821  1.00  0.00     0.012 C 
HETATM    8  C   UNL     1       4.578   1.022   0.777  1.00  0.00     0.011 C 
HETATM    9  C   UNL     1       4.965   0.656   2.222  1.00  0.00    -0.014 C 
HETATM   10  C   UNL     1       4.574  -0.810   2.481  1.00  0.00     0.005 C 
HETATM   11  C   UNL     1       3.918   1.424   3.026  1.00  0.00     0.010 C 
HETATM   12  C   UNL     1       3.050  -0.734   2.648  1.00  0.00     0.005 C 
HETATM   13  C   UNL     1       2.744   0.739   2.320  1.00  0.00    -0.008 C 
ENDBRANCH   5   7
ENDBRANCH   1   5
BRANCH   2  14
HETATM   14  C   UNL     1       2.768   1.167  -3.896  1.00  0.00     0.147 C 
BRANCH  14  15
HETATM   15  C   UNL     1       2.192   0.087  -4.747  1.00  0.00     0.022 A 
HETATM   16  C   UNL     1       1.048   0.138  -5.596  1.00  0.00     0.039 A 
HETATM   17  C   UNL     1       0.115   1.262  -5.855  1.00  0.00     0.071 C 
HETATM   18  N   UNL     1       0.854  -1.024  -6.230  1.00  0.00    -0.264 N 
HETATM   19  O   UNL     1       1.861  -1.861  -5.795  1.00  0.00    -0.225 OA
ATOM     20  HN  UNL     1       0.115  -1.245  -6.897  1.00  0.00     0.194 HD
HETATM   21  C   UNL     1       2.656  -1.202  -4.912  1.00  0.00     0.176 A 
HETATM   22 CL   UNL     1       4.025  -1.929  -4.164  1.00  0.00    -0.054 Cl
ENDBRANCH  14  15
ENDBRANCH   2  14
TORSDOF 4
