REMARK  5 active torsions:
REMARK  status: ('A' for Active; 'I' for Inactive)
REMARK    1  A    between atoms: C_8  and  N_9 
REMARK       I    between atoms: N_9  and  C_10 
REMARK       I    between atoms: C_10  and  N_12 
REMARK    2  A    between atoms: N_12  and  C_13 
REMARK    3  A    between atoms: C_13  and  C_14 
REMARK    4  A    between atoms: C_14  and  C_15 
REMARK    5  A    between atoms: C_15  and  N_16 
ROOT
HETATM    1  N   UNL     1       2.134  -2.355  -0.439  1.00  0.00    -0.307 N 
HETATM    2  C   UNL     1       0.765  -2.536  -0.372  1.00  0.00     0.320 C 
HETATM    3  O   UNL     1      -0.070  -1.643  -0.302  1.00  0.00    -0.247 OA
HETATM    4  N   UNL     1       0.368  -3.858  -0.413  1.00  0.00    -0.343 N 
HETATM    5  H   UNL     1       2.700  -3.172  -0.601  1.00  0.00     0.170 HD
HETATM    6  H   UNL     1       1.013  -4.544  -0.052  1.00  0.00     0.164 HD
ENDROOT
BRANCH   1   7
HETATM    7  C   UNL     1       2.790  -1.087  -0.384  1.00  0.00     0.057 A 
HETATM    8  C   UNL     1       4.192  -0.981  -0.481  1.00  0.00    -0.033 A 
HETATM    9  C   UNL     1       5.113  -2.156  -0.641  1.00  0.00     0.050 C 
HETATM   10  C   UNL     1       4.778   0.300  -0.410  1.00  0.00     0.026 A 
HETATM   11  C   UNL     1       3.978   1.420  -0.255  1.00  0.00     0.088 A 
HETATM   12  N   UNL     1       2.645   1.359  -0.169  1.00  0.00    -0.373 N 
HETATM   13  C   UNL     1       2.092   0.120  -0.236  1.00  0.00     0.117 A 
ATOM     14  HN  UNL     1       2.074   2.197  -0.059  1.00  0.00     0.164 HD
ENDBRANCH   1   7
BRANCH   4  15
HETATM   15  C   UNL     1      -1.063  -4.087  -0.252  1.00  0.00     0.126 C 
BRANCH  15  16
HETATM   16  C   UNL     1      -1.526  -5.531  -0.340  1.00  0.00     0.039 C 
BRANCH  16  17
HETATM   17  C   UNL     1      -1.052  -6.383   0.840  1.00  0.00     0.127 C 
BRANCH  17  18
HETATM   18  N   UNL     1      -1.596  -7.729   0.773  1.00  0.00    -0.352 N 
HETATM   19  C   UNL     1      -2.878  -8.064   1.336  1.00  0.00     0.126 C 
HETATM   20  C   UNL     1      -3.170  -9.468   0.839  1.00  0.00     0.029 C 
HETATM   21  C   UNL     1      -2.218  -9.702  -0.326  1.00  0.00     0.104 C 
HETATM   22  C   UNL     1      -1.162  -8.641  -0.176  1.00  0.00     0.219 C 
HETATM   23  O   UNL     1      -0.146  -8.557  -0.845  1.00  0.00    -0.273 OA
ENDBRANCH  17  18
ENDBRANCH  16  17
ENDBRANCH  15  16
ENDBRANCH   4  15
TORSDOF 5
