REMARK  5 active torsions:
REMARK  status: ('A' for Active; 'I' for Inactive)
REMARK    1  A    between atoms: C_2  and  C_3 
REMARK       I    between atoms: C_2  and  N_10 
REMARK    2  A    between atoms: C_3  and  C_4 
REMARK    3  A    between atoms: N_10  and  C_11 
REMARK    4  A    between atoms: C_11  and  C_12 
REMARK    5  A    between atoms: C_12  and  C_17 
ROOT
HETATM    1  C   UNL     1       4.947  -0.956   2.515  1.00  0.00     0.003 C 
HETATM    2  C   UNL     1       4.590  -2.457   2.711  1.00  0.00     0.016 C 
HETATM    3  C   UNL     1       4.349  -2.674   4.207  1.00  0.00     0.001 C 
HETATM    4  C   UNL     1       4.410  -1.300   4.859  1.00  0.00     0.001 C 
HETATM    5  C   UNL     1       4.201  -0.317   3.714  1.00  0.00     0.016 C 
ENDROOT
BRANCH   1   6
HETATM    6  C   UNL     1       4.414  -0.456   1.137  1.00  0.00     0.137 C 
BRANCH   6   7
HETATM    7  N   UNL     1       2.971  -0.557   0.975  1.00  0.00    -0.360 N 
HETATM    8  C   UNL     1       2.382  -1.375   0.035  1.00  0.00     0.221 C 
HETATM    9  O   UNL     1       3.013  -2.101  -0.727  1.00  0.00    -0.273 OA
HETATM   10  H   UNL     1       2.385   0.125   1.439  1.00  0.00     0.162 HD
BRANCH   8  11
HETATM   11  C   UNL     1       0.858  -1.300   0.018  1.00  0.00     0.136 C 
BRANCH  11  12
HETATM   12  C   UNL     1       0.357  -0.136  -0.806  1.00  0.00    -0.075 A 
HETATM   13  C   UNL     1      -0.393   0.836  -0.263  1.00  0.00    -0.023 A 
HETATM   14  C   UNL     1      -0.959   1.994  -1.011  1.00  0.00     0.027 A 
HETATM   15  C   UNL     1      -0.661   2.073  -2.504  1.00  0.00     0.004 A 
HETATM   16  C   UNL     1       0.191   0.980  -3.141  1.00  0.00     0.005 A 
HETATM   17  C   UNL     1       0.705  -0.162  -2.266  1.00  0.00     0.034 A 
ENDBRANCH  11  12
ENDBRANCH   8  11
ENDBRANCH   6   7
ENDBRANCH   1   6
BRANCH   1  18
HETATM   18  C   UNL     1       6.453  -0.614   2.604  1.00  0.00    -0.045 A 
HETATM   19  C   UNL     1       6.871   0.727   2.518  1.00  0.00     0.025 A 
HETATM   20  C   UNL     1       8.225   1.036   2.557  1.00  0.00     0.088 A 
HETATM   21  N   UNL     1       9.198   0.115   2.682  1.00  0.00    -0.375 N 
HETATM   22  C   UNL     1       8.795  -1.167   2.775  1.00  0.00     0.088 A 
ATOM     23  HN  UNL     1      10.185   0.373   2.705  1.00  0.00     0.164 HD
HETATM   24  C   UNL     1       7.462  -1.571   2.744  1.00  0.00     0.025 A 
ENDBRANCH   1  18
TORSDOF 5
