REMARK  8 active torsions:
REMARK  status: ('A' for Active; 'I' for Inactive)
REMARK    1  A    between atoms: C_2  and  C_3 
REMARK    2  A    between atoms: C_2  and  N_11 
REMARK    3  A    between atoms: C_3  and  N_4 
REMARK    4  A    between atoms: N_11  and  C_12 
REMARK    5  A    between atoms: C_12  and  C_13 
REMARK    6  A    between atoms: C_13  and  C_14 
REMARK    7  A    between atoms: C_14  and  S_15 
REMARK    8  A    between atoms: S_15  and  N_18 
ROOT
HETATM    1  N   UNL     1       2.951   1.366   0.400  1.00  0.00     0.089 N 
HETATM    2  H   UNL     1       2.583   2.085  -0.224  1.00  0.00     0.316 HD
ENDROOT
BRANCH   1   3
HETATM    3  C   UNL     1       2.390   0.046   0.019  1.00  0.00     0.236 C 
HETATM    4  C   UNL     1       0.856   0.060   0.061  1.00  0.00     0.044 C 
BRANCH   3   5
HETATM    5  C   UNL     1       2.909  -0.344  -1.384  1.00  0.00     0.183 C 
BRANCH   5   6
HETATM    6  N   UNL     1       2.458  -1.658  -1.811  1.00  0.00    -0.301 N 
HETATM    7  C   UNL     1       1.653  -1.939  -2.878  1.00  0.00     0.118 A 
HETATM    8  C   UNL     1       1.417  -3.297  -2.842  1.00  0.00    -0.028 A 
HETATM    9  C   UNL     1       0.591  -4.110  -3.760  1.00  0.00     0.051 C 
HETATM   10  C   UNL     1       2.147  -3.741  -1.717  1.00  0.00     0.115 A 
HETATM   11  N   UNL     1       2.788  -2.750  -1.095  1.00  0.00    -0.310 N 
ATOM     12  HN  UNL     1       3.387  -2.806  -0.271  1.00  0.00     0.186 HD
ENDBRANCH   5   6
ENDBRANCH   3   5
ENDBRANCH   1   3
BRANCH   1  13
HETATM   13  C   UNL     1       2.688   1.774   1.785  1.00  0.00     0.271 C 
BRANCH  13  14
HETATM   14  C   UNL     1       3.260   0.832   2.843  1.00  0.00     0.046 C 
BRANCH  14  15
HETATM   15  C   UNL     1       4.775   0.718   2.737  1.00  0.00     0.159 C 
BRANCH  15  16
HETATM   16  S   UNL     1       5.411  -0.580   3.782  1.00  0.00     0.207 S 
HETATM   17  O   UNL     1       6.845  -0.665   3.617  1.00  0.00    -0.212 OA
HETATM   18  O   UNL     1       4.791  -0.513   5.083  1.00  0.00    -0.212 OA
BRANCH  16  19
HETATM   19  N   UNL     1       4.781  -1.929   3.024  1.00  0.00    -0.229 NA
HETATM   20  H   UNL     1       5.500  -2.498   2.579  1.00  0.00     0.136 HD
HETATM   21  H   UNL     1       4.110  -2.430   3.603  1.00  0.00     0.136 HD
ENDBRANCH  16  19
ENDBRANCH  15  16
ENDBRANCH  14  15
ENDBRANCH  13  14
ENDBRANCH   1  13
TORSDOF 8
