REMARK  3 active torsions:
REMARK  status: ('A' for Active; 'I' for Inactive)
REMARK       I    between atoms: C_2  and  N_3 
REMARK    1  A    between atoms: C_2  and  C_7 
REMARK    2  A    between atoms: N_3  and  C_4 
REMARK    3  A    between atoms: C_13  and  N_14 
ROOT
HETATM    1  C   UNL     1       0.288  -0.931  -1.293  1.00  0.00     0.216 C 
HETATM    2  C   UNL     1      -1.086  -0.486  -1.769  1.00  0.00    -0.098 C 
HETATM    3  C   UNL     1      -2.264  -0.105  -2.177  1.00  0.00     0.014 C 
ENDROOT
BRANCH   1   4
HETATM    4  N   UNL     1       0.977   0.156  -0.649  1.00  0.00    -0.346 N 
HETATM    5  C   UNL     1       2.281  -0.043  -0.228  1.00  0.00     0.256 C 
HETATM    6  O   UNL     1       2.905  -1.050  -0.538  1.00  0.00    -0.268 OA
HETATM    7  H   UNL     1       0.433   0.932  -0.299  1.00  0.00     0.163 HD
BRANCH   5   8
HETATM    8  C   UNL     1       2.863   1.018   0.638  1.00  0.00     0.075 A 
HETATM    9  C   UNL     1       2.614   2.359   0.300  1.00  0.00     0.022 A 
HETATM   10  C   UNL     1       3.226   3.374   1.026  1.00  0.00     0.018 A 
HETATM   11  C   UNL     1       4.074   3.009   2.050  1.00  0.00     0.089 A 
HETATM   12  N   UNL     1       4.340   1.726   2.390  1.00  0.00    -0.352 N 
HETATM   13  C   UNL     1       3.738   0.724   1.700  1.00  0.00     0.119 A 
ATOM     14  HN  UNL     1       4.983   1.515   3.153  1.00  0.00     0.166 HD
BRANCH  13  15
HETATM   15  N   UNL     1       4.070  -0.564   2.067  1.00  0.00    -0.362 N 
HETATM   16  C   UNL     1       5.380  -0.842   2.657  1.00  0.00     0.150 C 
HETATM   17  C   UNL     1       5.780  -2.260   2.210  1.00  0.00     0.187 C 
HETATM   18  O   UNL     1       4.808  -3.239   2.630  1.00  0.00    -0.388 OA
HETATM   19  C   UNL     1       3.515  -2.931   2.068  1.00  0.00     0.187 C 
HETATM   20  C   UNL     1       3.044  -1.526   2.480  1.00  0.00     0.150 C 
ENDBRANCH  13  15
ENDBRANCH   5   8
ENDBRANCH   1   4
TORSDOF 3
