REMARK  5 active torsions:
REMARK  status: ('A' for Active; 'I' for Inactive)
REMARK    1  A    between atoms: C_2  and  O_3 
REMARK    2  A    between atoms: O_3  and  C_4 
REMARK    3  A    between atoms: C_6  and  N_7 
REMARK       I    between atoms: N_7  and  C_8 
REMARK    4  A    between atoms: C_8  and  C_10 
REMARK    5  A    between atoms: C_10  and  N_11 
ROOT
HETATM    1  C   UNL     1       4.515  -0.615   1.513  1.00  0.00     0.133 C 
HETATM    2  C   UNL     1       5.552  -0.033   2.529  1.00  0.00     0.059 C 
HETATM    3  C   UNL     1       6.133  -1.458   2.583  1.00  0.00     0.098 C 
HETATM    4  C   UNL     1       4.673  -1.966   2.312  1.00  0.00     0.006 C 
HETATM    5  C   UNL     1       4.657  -3.321   1.611  1.00  0.00     0.014 C 
HETATM    6  C   UNL     1       4.293  -4.331   2.711  1.00  0.00     0.001 C 
HETATM    7  C   UNL     1       3.886  -3.536   3.948  1.00  0.00     0.001 C 
HETATM    8  C   UNL     1       3.663  -2.119   3.457  1.00  0.00     0.014 C 
ENDROOT
BRANCH   3   9
HETATM    9  N   UNL     1       6.744  -1.909   3.844  1.00  0.00    -0.354 N 
HETATM   10  C   UNL     1       7.773  -2.835   3.833  1.00  0.00     0.237 C 
HETATM   11  O   UNL     1       8.282  -3.259   2.794  1.00  0.00    -0.272 OA
HETATM   12  H   UNL     1       6.313  -1.667   4.729  1.00  0.00     0.162 HD
BRANCH  10  13
HETATM   13  C   UNL     1       8.250  -3.312   5.180  1.00  0.00     0.249 C 
BRANCH  13  14
HETATM   14  N   UNL     1       9.625  -2.948   5.396  1.00  0.00    -0.264 N 
HETATM   15  C   UNL     1      10.742  -3.407   4.775  1.00  0.00     0.213 A 
HETATM   16  N   UNL     1      11.789  -2.846   5.337  1.00  0.00    -0.281 N 
HETATM   17  N   UNL     1      11.290  -2.028   6.322  1.00  0.00    -0.008 NA
ATOM     18  HN  UNL     1      12.769  -2.988   5.093  1.00  0.00     0.184 HD
HETATM   19  N   UNL     1       9.965  -2.088   6.368  1.00  0.00    -0.005 NA
ENDBRANCH  13  14
ENDBRANCH  10  13
ENDBRANCH   3   9
BRANCH   1  20
HETATM   20  O   UNL     1       3.190  -0.047   1.505  1.00  0.00    -0.385 OA
BRANCH  20  21
HETATM   21  C   UNL     1       3.088   1.339   1.198  1.00  0.00     0.163 C 
HETATM   22  C   UNL     1       1.619   1.708   1.141  1.00  0.00     0.033 C 
ENDBRANCH  20  21
ENDBRANCH   1  20
TORSDOF 5
