REMARK  4 active torsions:
REMARK  status: ('A' for Active; 'I' for Inactive)
REMARK    1  A    between atoms: N_2  and  C_4 
REMARK    2  A    between atoms: C_7  and  N_8 
REMARK       I    between atoms: N_8  and  C_9 
REMARK       I    between atoms: C_9  and  N_11 
REMARK    3  A    between atoms: N_11  and  C_12 
REMARK    4  A    between atoms: C_12  and  C_13 
ROOT
HETATM    1  N   UNL     1       5.306   4.746  -0.632  1.00  0.00    -0.308 N 
HETATM    2  C   UNL     1       6.658   4.830  -0.892  1.00  0.00     0.320 C 
HETATM    3  O   UNL     1       7.441   3.890  -0.932  1.00  0.00    -0.247 OA
HETATM    4  N   UNL     1       7.095   6.125  -1.118  1.00  0.00    -0.342 N 
HETATM    5  H   UNL     1       4.755   5.587  -0.735  1.00  0.00     0.170 HD
HETATM    6  H   UNL     1       6.427   6.764  -1.523  1.00  0.00     0.164 HD
ENDROOT
BRANCH   1   7
HETATM    7  C   UNL     1       4.620   3.545  -0.311  1.00  0.00     0.051 A 
HETATM    8  C   UNL     1       5.263   2.361   0.014  1.00  0.00     0.035 A 
HETATM    9  C   UNL     1       4.525   1.212   0.307  1.00  0.00     0.050 A 
HETATM   10  C   UNL     1       3.133   1.237   0.291  1.00  0.00     0.102 A 
HETATM   11  N   UNL     1       2.491   2.386  -0.028  1.00  0.00    -0.350 N 
HETATM   12  C   UNL     1       3.232   3.497  -0.305  1.00  0.00     0.119 A 
ATOM     13  HN  UNL     1       1.472   2.420  -0.060  1.00  0.00     0.166 HD
BRANCH  10  14
HETATM   14  N   UNL     1       2.399   0.080   0.568  1.00  0.00    -0.376 N 
HETATM   15  C   UNL     1       2.934  -0.852   1.551  1.00  0.00     0.150 C 
HETATM   16  C   UNL     1       0.953   0.219   0.489  1.00  0.00     0.150 C 
ENDBRANCH  10  14
ENDBRANCH   1   7
BRANCH   4  17
HETATM   17  C   UNL     1       8.492   6.261  -1.506  1.00  0.00     0.131 C 
BRANCH  17  18
HETATM   18  C   UNL     1       8.967   7.693  -1.675  1.00  0.00     0.029 C 
HETATM   19  C   UNL     1       8.322   8.434  -2.831  1.00  0.00     0.034 C 
HETATM   20  C   UNL     1       9.413   9.360  -3.341  1.00  0.00     0.168 C 
HETATM   21  O   UNL     1      10.625   9.029  -2.653  1.00  0.00    -0.391 OA
HETATM   22  C   UNL     1      10.439   7.749  -2.045  1.00  0.00     0.173 C 
ENDBRANCH  17  18
ENDBRANCH   4  17
TORSDOF 4
