REMARK  5 active torsions:
REMARK  status: ('A' for Active; 'I' for Inactive)
REMARK    1  A    between atoms: C_2  and  N_4 
REMARK    2  A    between atoms: C_6  and  C_10 
REMARK       I    between atoms: C_10  and  N_12 
REMARK    3  A    between atoms: N_12  and  C_13 
REMARK    4  A    between atoms: C_13  and  C_15 
REMARK    5  A    between atoms: C_15  and  N_16 
ROOT
HETATM    1  C   UNL     1       2.015   3.916  -2.561  1.00  0.00     0.224 C 
HETATM    2  O   UNL     1       2.207   4.608  -3.558  1.00  0.00    -0.273 OA
HETATM    3  N   UNL     1       0.758   3.569  -2.125  1.00  0.00    -0.355 N 
HETATM    4  H   UNL     1       0.651   3.058  -1.253  1.00  0.00     0.162 HD
ENDROOT
BRANCH   1   5
HETATM    5  C   UNL     1       3.174   3.351  -1.763  1.00  0.00     0.104 A 
HETATM    6  C   UNL     1       3.135   1.832  -1.789  1.00  0.00     0.140 A 
HETATM    7  N   UNL     1       3.081   1.420  -0.409  1.00  0.00    -0.347 N 
HETATM    8  C   UNL     1       3.148   2.482   0.478  1.00  0.00     0.221 A 
HETATM    9  C   UNL     1       3.163   3.770  -0.296  1.00  0.00     0.118 A 
HETATM   10  O   UNL     1       3.142   2.405   1.697  1.00  0.00    -0.273 OA
BRANCH   7  11
HETATM   11  C   UNL     1       2.653   0.088   0.020  1.00  0.00     0.079 C 
HETATM   12  C   UNL     1       1.157   0.117   0.350  1.00  0.00     0.032 C 
HETATM   13  C   UNL     1       2.946  -1.011  -1.001  1.00  0.00     0.032 C 
ENDBRANCH   7  11
ENDBRANCH   1   5
BRANCH   3  14
HETATM   14  C   UNL     1      -0.453   4.041  -2.796  1.00  0.00     0.100 C 
HETATM   15  C   UNL     1      -0.868   3.032  -3.868  1.00  0.00     0.034 C 
BRANCH  14  16
HETATM   16  C   UNL     1      -1.610   4.270  -1.815  1.00  0.00     0.172 C 
BRANCH  16  17
HETATM   17  N   UNL     1      -1.297   5.266  -0.809  1.00  0.00    -0.302 N 
HETATM   18  C   UNL     1      -1.514   6.611  -0.889  1.00  0.00     0.111 A 
HETATM   19  C   UNL     1      -1.086   7.133   0.313  1.00  0.00     0.037 A 
HETATM   20  C   UNL     1      -0.636   6.020   1.047  1.00  0.00     0.108 A 
HETATM   21  N   UNL     1      -0.762   4.876   0.366  1.00  0.00    -0.310 N 
ATOM     22  HN  UNL     1      -0.513   3.933   0.664  1.00  0.00     0.186 HD
ENDBRANCH  16  17
ENDBRANCH  14  16
ENDBRANCH   3  14
TORSDOF 5
