REMARK  6 active torsions:
REMARK  status: ('A' for Active; 'I' for Inactive)
REMARK    1  A    between atoms: N_6  and  C_7 
REMARK    2  A    between atoms: C_7  and  C_8 
REMARK    3  A    between atoms: C_8  and  N_9 
REMARK    4  A    between atoms: N_9  and  C_10 
REMARK    5  A    between atoms: C_10  and  C_11 
REMARK    6  A    between atoms: C_11  and  C_12 
REMARK       I    between atoms: C_12  and  N_14 
ROOT
HETATM    1  N   UNL     1       6.373  -4.059  -0.029  1.00  0.00     0.085 N 
HETATM    2  H   UNL     1       6.959  -3.898   0.792  1.00  0.00     0.315 HD
ENDROOT
BRANCH   1   3
HETATM    3  C   UNL     1       5.208  -3.159   0.037  1.00  0.00     0.291 C 
BRANCH   3   4
HETATM    4  C   UNL     1       5.628  -1.688   0.009  1.00  0.00     0.178 C 
BRANCH   4   5
HETATM    5  N   UNL     1       4.471  -0.813   0.078  1.00  0.00    -0.302 N 
HETATM    6  N   UNL     1       3.991  -0.428   1.275  1.00  0.00    -0.310 N 
HETATM    7  C   UNL     1       2.934   0.325   0.962  1.00  0.00     0.115 A 
ATOM      8  HN  UNL     1       4.350  -0.657   2.202  1.00  0.00     0.186 HD
HETATM    9  C   UNL     1       2.729   0.425  -0.432  1.00  0.00    -0.028 A 
HETATM   10  C   UNL     1       1.661   1.157  -1.147  1.00  0.00     0.051 C 
HETATM   11  C   UNL     1       3.754  -0.322  -0.975  1.00  0.00     0.118 A 
ENDBRANCH   4   5
ENDBRANCH   3   4
ENDBRANCH   1   3
BRANCH   1  12
HETATM   12  C   UNL     1       5.922  -5.461  -0.023  1.00  0.00     0.278 C 
BRANCH  12  13
HETATM   13  C   UNL     1       7.119  -6.408  -0.089  1.00  0.00     0.133 C 
BRANCH  13  14
HETATM   14  C   UNL     1       6.680  -7.863  -0.019  1.00  0.00     0.221 C 
HETATM   15  O   UNL     1       5.489  -8.162   0.077  1.00  0.00    -0.273 OA
HETATM   16  N   UNL     1       7.684  -8.826  -0.059  1.00  0.00    -0.352 N 
HETATM   17  C   UNL     1       9.119  -8.544  -0.108  1.00  0.00     0.125 C 
HETATM   18  C   UNL     1       7.327 -10.224   0.188  1.00  0.00     0.125 C 
HETATM   19  C   UNL     1       9.817  -9.445  -1.123  1.00  0.00     0.020 C 
HETATM   20  C   UNL     1       9.520 -10.917  -0.849  1.00  0.00     0.003 C 
HETATM   21  C   UNL     1       8.014 -11.163  -0.799  1.00  0.00     0.020 C 
ENDBRANCH  13  14
ENDBRANCH  12  13
ENDBRANCH   1  12
TORSDOF 6
