REMARK  4 active torsions:
REMARK  status: ('A' for Active; 'I' for Inactive)
REMARK    1  A    between atoms: C_4  and  C_5 
REMARK    2  A    between atoms: C_5  and  C_6 
REMARK       I    between atoms: C_6  and  N_8 
REMARK    3  A    between atoms: N_8  and  C_9 
REMARK    4  A    between atoms: C_9  and  C_10 
ROOT
HETATM    1  C   UNL     1       3.871   6.571   0.538  1.00  0.00     0.223 C 
HETATM    2  O   UNL     1       3.369   5.756  -0.233  1.00  0.00    -0.273 OA
HETATM    3  N   UNL     1       5.228   6.595   0.821  1.00  0.00    -0.360 N 
HETATM    4  H   UNL     1       5.545   7.120   1.625  1.00  0.00     0.162 HD
ENDROOT
BRANCH   1   5
HETATM    5  C   UNL     1       3.053   7.608   1.285  1.00  0.00     0.161 C 
BRANCH   5   6
HETATM    6  C   UNL     1       2.280   8.489   0.364  1.00  0.00     0.036 A 
HETATM    7  C   UNL     1       1.268   8.120  -0.553  1.00  0.00     0.053 A 
HETATM    8  C   UNL     1       0.831   9.300  -1.108  1.00  0.00     0.024 A 
HETATM    9  C   UNL     1      -0.217   9.590  -2.110  1.00  0.00     0.070 C 
HETATM   10  N   UNL     1       1.587  10.280  -0.529  1.00  0.00    -0.305 N 
HETATM   11  N   UNL     1       2.462   9.819   0.385  1.00  0.00    -0.304 N 
HETATM   12  H   UNL     1       1.549  11.279  -0.689  1.00  0.00     0.186 HD
ATOM     13  HN  UNL     1       3.112  10.356   0.960  1.00  0.00     0.186 HD
ENDBRANCH   5   6
ENDBRANCH   1   5
BRANCH   3  14
HETATM   14  C   UNL     1       6.111   5.597   0.259  1.00  0.00     0.127 C 
BRANCH  14  15
HETATM   15  C   UNL     1       7.569   6.074   0.129  1.00  0.00     0.003 C 
HETATM   16  C   UNL     1       7.743   7.269  -0.822  1.00  0.00     0.007 C 
HETATM   17  C   UNL     1       7.513   6.919  -2.295  1.00  0.00     0.009 C 
HETATM   18  C   UNL     1       8.258   5.654  -2.791  1.00  0.00    -0.048 C 
HETATM   19  C   UNL     1       7.633   5.217  -4.133  1.00  0.00     0.015 C 
HETATM   20  C   UNL     1       9.749   5.956  -3.038  1.00  0.00     0.015 C 
HETATM   21  C   UNL     1       8.134   4.495  -1.776  1.00  0.00     0.009 C 
HETATM   22  C   UNL     1       8.465   4.922  -0.344  1.00  0.00     0.007 C 
ENDBRANCH  14  15
ENDBRANCH   3  14
TORSDOF 4
