REMARK  3 active torsions:
REMARK  status: ('A' for Active; 'I' for Inactive)
REMARK    1  A    between atoms: N_1  and  C_11 
REMARK    2  A    between atoms: N_2  and  C_12 
REMARK    3  A    between atoms: C_7  and  C_11 
ROOT
HETATM    1  N   UNL     1      -0.678   1.068  -0.018  1.00  0.00    -0.257 N 
HETATM    2  N   UNL     1      -0.556  -1.286  -0.008  1.00  0.00    -0.279 N 
HETATM    3  C   UNL     1      -1.322  -0.143  -0.242  1.00  0.00     0.334 C 
HETATM    4  C   UNL     1       0.690   1.204   0.127  1.00  0.00     0.292 C 
HETATM    5  C   UNL     1       1.449  -0.056   0.241  1.00  0.00     0.200 C 
HETATM    6  C   UNL     1       0.811  -1.225   0.192  1.00  0.00     0.146 C 
HETATM    7  O   UNL     1      -2.483  -0.219  -0.643  1.00  0.00    -0.246 OA
HETATM    8  O   UNL     1       1.278   2.287   0.127  1.00  0.00    -0.264 OA
HETATM    9  F   UNL     1       2.783   0.024   0.418  1.00  0.00    -0.199 F 
ENDROOT
BRANCH   1  10
HETATM   10  C   UNL     1      -1.478   2.285  -0.106  1.00  0.00     0.202 C 
BRANCH  10  11
HETATM   11  C   UNL     1      -1.592   2.980   1.229  1.00  0.00     0.070 A 
HETATM   12  N   UNL     1      -1.862   2.422   2.392  1.00  0.00    -0.351 N 
HETATM   13  C   UNL     1      -1.783   3.375   3.409  1.00  0.00     0.050 A 
ATOM     14  HN  UNL     1      -2.095   1.438   2.529  1.00  0.00     0.166 HD
HETATM   15  C   UNL     1      -1.951   3.159   4.795  1.00  0.00     0.031 A 
HETATM   16  C   UNL     1      -1.474   4.668   2.980  1.00  0.00     0.033 A 
HETATM   17  C   UNL     1      -1.742   4.211   5.699  1.00  0.00     0.002 A 
HETATM   18  C   UNL     1      -1.390   5.477   5.242  1.00  0.00     0.002 A 
HETATM   19  C   UNL     1      -1.274   5.732   3.876  1.00  0.00     0.021 A 
HETATM   20  S   UNL     1      -1.386   4.690   1.268  1.00  0.00    -0.073 SA
ENDBRANCH  10  11
ENDBRANCH   1  10
BRANCH   2  21
HETATM   21  C   UNL     1      -1.281  -2.542   0.086  1.00  0.00     0.232 C 
HETATM   22  O   UNL     1      -0.678  -3.408   1.063  1.00  0.00    -0.366 OA
HETATM   23  C   UNL     1      -1.013  -4.759   0.705  1.00  0.00     0.170 C 
HETATM   24  C   UNL     1      -1.781  -4.703  -0.604  1.00  0.00     0.031 C 
HETATM   25  C   UNL     1      -1.349  -3.377  -1.185  1.00  0.00     0.056 C 
ENDBRANCH   2  21
TORSDOF 3
