REMARK  4 active torsions:
REMARK  status: ('A' for Active; 'I' for Inactive)
REMARK    1  A    between atoms: C_2  and  C_3 
REMARK    2  A    between atoms: C_6  and  C_7 
REMARK    3  A    between atoms: C_7  and  C_8 
REMARK    4  A    between atoms: C_8  and  N_9 
REMARK       I    between atoms: N_9  and  C_10 
REMARK       I    between atoms: C_10  and  N_12 
ROOT
HETATM    1  C   UNL     1       5.591   3.691  -1.777  1.00  0.00     0.084 C 
ENDROOT
BRANCH   1   2
HETATM    2  C   UNL     1       4.378   3.146  -1.085  1.00  0.00     0.053 A 
HETATM    3  N   UNL     1       4.092   1.871  -0.927  1.00  0.00    -0.356 N 
HETATM    4  C   UNL     1       2.903   1.725  -0.225  1.00  0.00     0.022 A 
ATOM      5  HN  UNL     1       4.663   1.099  -1.272  1.00  0.00     0.166 HD
HETATM    6  C   UNL     1       2.286   2.916   0.123  1.00  0.00     0.003 A 
HETATM    7  S   UNL     1       3.224   4.238  -0.430  1.00  0.00    -0.080 SA
HETATM    8  C   UNL     1       1.011   3.142   0.857  1.00  0.00     0.058 C 
BRANCH   4   9
HETATM    9  C   UNL     1       2.418   0.339   0.063  1.00  0.00     0.054 C 
HETATM   10  C   UNL     1       2.940  -0.203   1.384  1.00  0.00     0.011 C 
ENDBRANCH   4   9
ENDBRANCH   1   2
BRANCH   1  11
HETATM   11  C   UNL     1       6.507   2.591  -2.311  1.00  0.00     0.131 C 
BRANCH  11  12
HETATM   12  N   UNL     1       7.698   3.134  -2.950  1.00  0.00    -0.343 N 
HETATM   13  C   UNL     1       8.807   3.471  -2.223  1.00  0.00     0.318 C 
HETATM   14  O   UNL     1       8.842   3.408  -0.998  1.00  0.00    -0.247 OA
HETATM   15  N   UNL     1       9.868   3.886  -2.960  1.00  0.00    -0.334 N 
HETATM   16  C   UNL     1      11.195   4.274  -2.523  1.00  0.00     0.129 C 
HETATM   17  C   UNL     1      10.136   4.120  -4.360  1.00  0.00     0.129 C 
HETATM   18  C   UNL     1      11.622   4.033  -3.977  1.00  0.00     0.040 C 
HETATM   19  H   UNL     1       7.796   3.050  -3.950  1.00  0.00     0.164 HD
ENDBRANCH  11  12
ENDBRANCH   1  11
TORSDOF 4
