REMARK  4 active torsions:
REMARK  status: ('A' for Active; 'I' for Inactive)
REMARK    1  A    between atoms: O_2  and  C_3 
REMARK    2  A    between atoms: C_3  and  C_4 
REMARK    3  A    between atoms: C_4  and  N_5 
REMARK    4  A    between atoms: C_6  and  N_18 
ROOT
HETATM    1  N   UNL     1       4.809   2.405   1.245  1.00  0.00    -0.172 N 
HETATM    2  C   UNL     1       4.378   3.649   0.793  1.00  0.00     0.684 A 
HETATM    3  N   UNL     1       4.878   4.606   1.564  1.00  0.00    -0.174 N 
ATOM      4  HN  UNL     1       4.690   5.606   1.500  1.00  0.00     0.186 HD
HETATM    5  C   UNL     1       5.693   3.981   2.457  1.00  0.00     0.160 A 
HETATM    6  N   UNL     1       6.428   4.568   3.471  1.00  0.00    -0.287 N 
HETATM    7  C   UNL     1       6.423   5.991   3.723  1.00  0.00     0.163 C 
HETATM    8  C   UNL     1       7.183   3.755   4.312  1.00  0.00     0.330 A 
HETATM    9  O   UNL     1       7.849   4.177   5.258  1.00  0.00    -0.246 OA
HETATM   10  N   UNL     1       7.176   2.401   4.054  1.00  0.00    -0.273 N 
HETATM   11  C   UNL     1       6.509   1.757   3.041  1.00  0.00     0.280 A 
HETATM   12  O   UNL     1       6.620   0.547   2.859  1.00  0.00    -0.265 OA
HETATM   13  C   UNL     1       5.715   2.634   2.254  1.00  0.00     0.164 A 
HETATM   14  H   UNL     1       7.738   1.829   4.665  1.00  0.00     0.173 HD
ENDROOT
BRANCH   2  15
HETATM   15  N   UNL     1       3.512   3.841  -0.240  1.00  0.00    -0.217 N 
HETATM   16  C   UNL     1       2.870   5.143  -0.412  1.00  0.00     0.141 C 
HETATM   17  C   UNL     1       2.396   5.173  -1.867  1.00  0.00     0.022 C 
HETATM   18  C   UNL     1       3.225   4.111  -2.566  1.00  0.00     0.022 C 
HETATM   19  C   UNL     1       3.476   3.078  -1.477  1.00  0.00     0.141 C 
ENDBRANCH   2  15
BRANCH   1  20
HETATM   20  C   UNL     1       4.344   1.087   0.853  1.00  0.00     0.174 C 
BRANCH  20  21
HETATM   21  C   UNL     1       3.599   0.331   1.952  1.00  0.00     0.187 C 
BRANCH  21  22
HETATM   22  O   UNL     1       2.406   1.029   2.311  1.00  0.00    -0.394 OA
HETATM   23  C   UNL     1       1.792   0.449   3.454  1.00  0.00     0.201 C 
ENDBRANCH  21  22
ENDBRANCH  20  21
ENDBRANCH   1  20
TORSDOF 4
