REMARK  8 active torsions:
REMARK  status: ('A' for Active; 'I' for Inactive)
REMARK    1  A    between atoms: C_2  and  C_3 
REMARK    2  A    between atoms: C_2  and  N_11 
REMARK    3  A    between atoms: C_3  and  N_4 
REMARK    4  A    between atoms: N_11  and  C_12 
REMARK    5  A    between atoms: C_12  and  C_13 
REMARK    6  A    between atoms: C_13  and  O_14 
REMARK    7  A    between atoms: C_13  and  C_15 
REMARK    8  A    between atoms: C_15  and  N_16 
ROOT
HETATM    1  N   UNL     1       3.137  -0.222  -1.066  1.00  0.00     0.091 N 
HETATM    2  H   UNL     1       2.753   0.522  -1.659  1.00  0.00     0.316 HD
ENDROOT
BRANCH   1   3
HETATM    3  C   UNL     1       2.576  -0.145   0.290  1.00  0.00     0.236 C 
HETATM    4  C   UNL     1       1.050  -0.184   0.125  1.00  0.00     0.044 C 
BRANCH   3   5
HETATM    5  C   UNL     1       3.077  -1.309   1.166  1.00  0.00     0.183 C 
BRANCH   5   6
HETATM    6  N   UNL     1       2.498  -1.344   2.491  1.00  0.00    -0.301 N 
HETATM    7  C   UNL     1       1.776  -2.365   3.034  1.00  0.00     0.118 A 
HETATM    8  C   UNL     1       1.503  -2.001   4.332  1.00  0.00    -0.028 A 
HETATM    9  C   UNL     1       0.750  -2.756   5.353  1.00  0.00     0.051 C 
HETATM   10  C   UNL     1       2.123  -0.736   4.471  1.00  0.00     0.115 A 
HETATM   11  N   UNL     1       2.744  -0.343   3.354  1.00  0.00    -0.310 N 
ATOM     12  HN  UNL     1       3.277   0.512   3.195  1.00  0.00     0.186 HD
ENDBRANCH   5   6
ENDBRANCH   3   5
ENDBRANCH   1   3
BRANCH   1  13
HETATM   13  C   UNL     1       4.600  -0.125  -1.138  1.00  0.00     0.303 C 
BRANCH  13  14
HETATM   14  C   UNL     1       4.999  -0.182  -2.623  1.00  0.00     0.174 C 
BRANCH  14  15
HETATM   15  O   UNL     1       4.467   0.985  -3.272  1.00  0.00    -0.392 OA
HETATM   16  H   UNL     1       5.172   1.654  -3.284  1.00  0.00     0.210 HD
ENDBRANCH  14  15
BRANCH  14  17
HETATM   17  C   UNL     1       6.536  -0.284  -2.789  1.00  0.00     0.305 C 
BRANCH  17  18
HETATM   18  N   UNL     1       6.982  -0.296  -4.196  1.00  0.00     0.091 N 
HETATM   19  C   UNL     1       6.511  -1.460  -4.966  1.00  0.00     0.273 C 
HETATM   20  C   UNL     1       7.211  -2.778  -4.613  1.00  0.00     0.034 C 
HETATM   21  C   UNL     1       8.741  -2.671  -4.675  1.00  0.00    -0.015 C 
HETATM   22  C   UNL     1       9.248  -2.686  -6.120  1.00  0.00     0.010 C 
HETATM   23  C   UNL     1       9.217  -1.422  -3.922  1.00  0.00     0.034 C 
HETATM   24  C   UNL     1       8.440  -0.162  -4.319  1.00  0.00     0.273 C 
ENDBRANCH  17  18
ENDBRANCH  14  17
ENDBRANCH  13  14
ENDBRANCH   1  13
TORSDOF 8
