REMARK  6 active torsions:
REMARK  status: ('A' for Active; 'I' for Inactive)
REMARK    1  A    between atoms: C_2  and  N_4 
REMARK       I    between atoms: N_4  and  C_5 
REMARK    2  A    between atoms: C_5  and  C_7 
REMARK    3  A    between atoms: C_7  and  C_8 
REMARK    4  A    between atoms: C_8  and  N_9 
REMARK       I    between atoms: N_9  and  C_10 
REMARK    5  A    between atoms: C_10  and  C_12 
REMARK    6  A    between atoms: C_17  and  N_19 
ROOT
HETATM    1  C   UNL     1       8.645  -4.227   4.451  1.00  0.00     0.036 A 
HETATM    2  C   UNL     1       9.497  -3.897   5.494  1.00  0.00     0.034 A 
HETATM    3  C   UNL     1       9.840  -4.907   6.364  1.00  0.00     0.090 A 
HETATM    4  N   UNL     1       9.417  -6.186   6.236  1.00  0.00    -0.352 N 
ATOM      5  HN  UNL     1       9.680  -6.886   6.929  1.00  0.00     0.166 HD
HETATM    6  C   UNL     1       8.643  -6.528   5.182  1.00  0.00     0.104 A 
HETATM    7  C   UNL     1       8.228  -5.550   4.286  1.00  0.00     0.065 A 
ENDROOT
BRANCH   1   8
HETATM    8  C   UNL     1       8.241  -3.177   3.484  1.00  0.00     0.251 C 
HETATM    9  N   UNL     1       6.993  -3.326   2.904  1.00  0.00    -0.356 N 
HETATM   10  H   UNL     1       6.336  -3.965   3.331  1.00  0.00     0.162 HD
HETATM   11  O   UNL     1       8.990  -2.234   3.259  1.00  0.00    -0.268 OA
BRANCH   9  12
HETATM   12  C   UNL     1       6.496  -2.317   1.983  1.00  0.00     0.132 C 
BRANCH  12  13
HETATM   13  C   UNL     1       5.099  -2.632   1.462  1.00  0.00     0.122 C 
BRANCH  13  14
HETATM   14  C   UNL     1       4.640  -1.561   0.494  1.00  0.00     0.219 C 
HETATM   15  N   UNL     1       3.349  -1.734   0.039  1.00  0.00    -0.357 N 
HETATM   16  H   UNL     1       2.880  -2.614   0.214  1.00  0.00     0.162 HD
HETATM   17  O   UNL     1       5.348  -0.619   0.151  1.00  0.00    -0.274 OA
BRANCH  15  18
HETATM   18  C   UNL     1       2.766  -0.820  -0.938  1.00  0.00     0.076 C 
HETATM   19  C   UNL     1       3.124  -1.241  -2.361  1.00  0.00     0.032 C 
HETATM   20  C   UNL     1       1.254  -0.742  -0.759  1.00  0.00     0.032 C 
ENDBRANCH  15  18
ENDBRANCH  13  14
ENDBRANCH  12  13
ENDBRANCH   9  12
ENDBRANCH   1   8
BRANCH   6  21
HETATM   21  N   UNL     1       8.357  -7.861   4.997  1.00  0.00    -0.363 N 
HETATM   22  C   UNL     1       8.277  -8.743   6.171  1.00  0.00     0.150 C 
HETATM   23  C   UNL     1       8.749 -10.159   5.799  1.00  0.00     0.188 C 
HETATM   24  O   UNL     1       8.063 -10.673   4.642  1.00  0.00    -0.383 OA
HETATM   25  C   UNL     1       8.296  -9.812   3.513  1.00  0.00     0.135 C 
HETATM   26  C   UNL     1       7.634 -10.426   2.288  1.00  0.00     0.041 C 
HETATM   27  C   UNL     1       7.739  -8.400   3.783  1.00  0.00     0.155 C 
ENDBRANCH   6  21
TORSDOF 6
