REMARK  4 active torsions:
REMARK  status: ('A' for Active; 'I' for Inactive)
REMARK    1  A    between atoms: C_5  and  C_6 
REMARK    2  A    between atoms: C_6  and  C_7 
REMARK    3  A    between atoms: C_7  and  N_8 
REMARK       I    between atoms: N_8  and  C_9 
REMARK       I    between atoms: C_9  and  N_11 
REMARK    4  A    between atoms: N_11  and  C_12 
ROOT
HETATM    1  N   UNL     1       8.808  -1.566  -1.165  1.00  0.00    -0.343 N 
HETATM    2  C   UNL     1       9.473  -2.772  -1.228  1.00  0.00     0.316 C 
HETATM    3  O   UNL     1       8.939  -3.864  -1.105  1.00  0.00    -0.247 OA
HETATM    4  N   UNL     1      10.813  -2.580  -1.472  1.00  0.00    -0.338 N 
HETATM    5  H   UNL     1       9.382  -0.799  -0.847  1.00  0.00     0.164 HD
HETATM    6  H   UNL     1      11.023  -1.711  -1.936  1.00  0.00     0.164 HD
ENDROOT
BRANCH   1   7
HETATM    7  C   UNL     1       7.403  -1.544  -0.793  1.00  0.00     0.129 C 
BRANCH   7   8
HETATM    8  C   UNL     1       6.799  -0.139  -0.868  1.00  0.00     0.060 C 
BRANCH   8   9
HETATM    9  C   UNL     1       5.355  -0.127  -0.445  1.00  0.00    -0.041 A 
HETATM   10  C   UNL     1       4.323  -0.306  -1.366  1.00  0.00     0.010 A 
HETATM   11  C   UNL     1       3.002  -0.365  -0.924  1.00  0.00     0.025 A 
HETATM   12  C   UNL     1       2.740  -0.240   0.436  1.00  0.00     0.005 A 
HETATM   13  C   UNL     1       1.345  -0.372   0.968  1.00  0.00     0.068 C 
HETATM   14  N   UNL     1       3.722  -0.045   1.347  1.00  0.00    -0.369 N 
HETATM   15  C   UNL     1       4.995   0.007   0.892  1.00  0.00     0.095 A 
ATOM     16  HN  UNL     1       3.510   0.059   2.339  1.00  0.00     0.165 HD
ENDBRANCH   8   9
ENDBRANCH   7   8
ENDBRANCH   1   7
BRANCH   4  17
HETATM   17  C   UNL     1      11.676  -3.702  -1.788  1.00  0.00     0.090 C 
HETATM   18  C   UNL     1      12.082  -4.578  -0.580  1.00  0.00     0.030 C 
HETATM   19  C   UNL     1      13.621  -4.650  -0.703  1.00  0.00    -0.012 C 
HETATM   20  C   UNL     1      14.215  -3.308  -0.250  1.00  0.00     0.005 C 
HETATM   21  C   UNL     1      13.836  -4.581  -2.215  1.00  0.00     0.011 C 
HETATM   22  C   UNL     1      13.798  -2.355  -1.379  1.00  0.00     0.007 C 
HETATM   23  C   UNL     1      13.051  -3.279  -2.360  1.00  0.00     0.009 C 
ENDBRANCH   4  17
TORSDOF 4
