REMARK  4 active torsions:
REMARK  status: ('A' for Active; 'I' for Inactive)
REMARK    1  A    between atoms: C_5  and  C_6 
REMARK    2  A    between atoms: C_6  and  C_7 
REMARK    3  A    between atoms: C_7  and  N_8 
REMARK       I    between atoms: N_8  and  C_9 
REMARK    4  A    between atoms: C_9  and  C_11 
ROOT
HETATM    1  C   UNL     1       7.108   0.977  -0.051  1.00  0.00     0.128 C 
ENDROOT
BRANCH   1   2
HETATM    2  C   UNL     1       5.724   1.636  -0.025  1.00  0.00     0.077 C 
BRANCH   2   3
HETATM    3  C   UNL     1       4.613   0.637  -0.016  1.00  0.00     0.018 A 
HETATM    4  N   UNL     1       4.505  -0.235   1.055  1.00  0.00    -0.357 N 
HETATM    5  C   UNL     1       3.463  -1.023   0.892  1.00  0.00     0.046 A 
ATOM      6  HN  UNL     1       5.140  -0.263   1.853  1.00  0.00     0.166 HD
HETATM    7  C   UNL     1       3.051  -2.081   1.852  1.00  0.00     0.076 C 
HETATM    8  S   UNL     1       2.555  -0.764  -0.543  1.00  0.00    -0.087 SA
HETATM    9  C   UNL     1       3.634   0.491  -0.981  1.00  0.00     0.076 A 
ENDBRANCH   2   3
ENDBRANCH   1   2
BRANCH   1  10
HETATM   10  N   UNL     1       8.195   1.940  -0.125  1.00  0.00    -0.359 N 
HETATM   11  C   UNL     1       8.402   2.686  -1.264  1.00  0.00     0.246 C 
HETATM   12  O   UNL     1       7.632   2.667  -2.224  1.00  0.00    -0.271 OA
HETATM   13  H   UNL     1       9.004   1.823   0.479  1.00  0.00     0.162 HD
BRANCH  11  14
HETATM   14  C   UNL     1       9.610   3.631  -1.196  1.00  0.00     0.213 C 
HETATM   15  C   UNL     1      10.127   3.970  -2.589  1.00  0.00     0.043 C 
HETATM   16  C   UNL     1      11.623   4.102  -2.425  1.00  0.00     0.029 C 
HETATM   17  C   UNL     1      11.864   3.883  -0.948  1.00  0.00     0.168 C 
HETATM   18  O   UNL     1      10.737   3.132  -0.473  1.00  0.00    -0.376 OA
ENDBRANCH  11  14
ENDBRANCH   1  10
TORSDOF 4
