REMARK  6 active torsions:
REMARK  status: ('A' for Active; 'I' for Inactive)
REMARK    1  A    between atoms: C_2  and  C_3 
REMARK    2  A    between atoms: C_3  and  C_5 
REMARK    3  A    between atoms: C_3  and  N_19 
REMARK    4  A    between atoms: C_5  and  N_6 
REMARK       I    between atoms: N_6  and  C_7 
REMARK    5  A    between atoms: C_7  and  C_9 
REMARK    6  A    between atoms: C_9  and  N_10 
ROOT
HETATM    1  N   UNL     1       2.547  -3.449  -1.775  1.00  0.00    -0.357 N 
HETATM    2  C   UNL     1       1.582  -4.435  -1.764  1.00  0.00     0.236 C 
HETATM    3  O   UNL     1       0.396  -4.215  -1.511  1.00  0.00    -0.272 OA
HETATM    4  H   UNL     1       3.473  -3.663  -2.141  1.00  0.00     0.162 HD
ENDROOT
BRANCH   1   5
HETATM    5  C   UNL     1       2.222  -2.054  -1.495  1.00  0.00     0.164 C 
BRANCH   5   6
HETATM    6  C   UNL     1       2.958  -1.413  -0.252  1.00  0.00     0.171 C 
HETATM    7  C   UNL     1       2.591  -2.292   0.977  1.00  0.00     0.051 C 
BRANCH   6   8
HETATM    8  C   UNL     1       2.391   0.022  -0.025  1.00  0.00     0.038 C 
HETATM    9  C   UNL     1       0.887   0.187   0.172  1.00  0.00     0.007 C 
ENDBRANCH   6   8
BRANCH   6  10
HETATM   10  N   UNL     1       4.455  -1.420  -0.412  1.00  0.00     0.103 N 
HETATM   11  C   UNL     1       5.276  -0.970   0.740  1.00  0.00     0.299 C 
HETATM   12  C   UNL     1       5.566   0.543   0.812  1.00  0.00     0.198 C 
HETATM   13  O   UNL     1       6.149   1.025  -0.401  1.00  0.00    -0.388 OA
HETATM   14  C   UNL     1       5.332   0.711  -1.533  1.00  0.00     0.198 C 
HETATM   15  C   UNL     1       5.028  -0.799  -1.626  1.00  0.00     0.299 C 
ENDBRANCH   6  10
ENDBRANCH   5   6
ENDBRANCH   1   5
BRANCH   2  16
HETATM   16  C   UNL     1       2.052  -5.835  -2.160  1.00  0.00     0.235 C 
BRANCH  16  17
HETATM   17  N   UNL     1       1.874  -6.073  -3.595  1.00  0.00    -0.301 N 
HETATM   18  C   UNL     1       0.660  -6.518  -4.065  1.00  0.00     0.102 A 
HETATM   19  C   UNL     1       0.453  -6.748  -5.362  1.00  0.00     0.092 A 
HETATM   20  C   UNL     1       1.552  -6.540  -6.318  1.00  0.00     0.252 A 
HETATM   21  O   UNL     1       1.344  -6.754  -7.510  1.00  0.00    -0.268 OA
HETATM   22  N   UNL     1       2.752  -6.110  -5.783  1.00  0.00    -0.271 N 
HETATM   23  C   UNL     1       3.880  -5.916  -6.671  1.00  0.00     0.164 C 
HETATM   24  C   UNL     1       2.947  -5.804  -4.438  1.00  0.00     0.331 A 
HETATM   25  O   UNL     1       4.000  -5.324  -4.013  1.00  0.00    -0.246 OA
ENDBRANCH  16  17
ENDBRANCH   2  16
TORSDOF 6
