REMARK  6 active torsions:
REMARK  status: ('A' for Active; 'I' for Inactive)
REMARK    1  A    between atoms: N_2  and  C_4 
REMARK    2  A    between atoms: N_8  and  C_9 
REMARK    3  A    between atoms: C_9  and  C_10 
REMARK       I    between atoms: C_10  and  N_12 
REMARK    4  A    between atoms: N_12  and  C_13 
REMARK    5  A    between atoms: C_13  and  C_20 
REMARK    6  A    between atoms: C_20  and  N_21 
ROOT
HETATM    1  C   UNL     1       6.917   1.027   1.787  1.00  0.00     0.237 C 
HETATM    2  O   UNL     1       6.731   0.311   0.807  1.00  0.00    -0.272 OA
HETATM    3  N   UNL     1       7.586   0.621   2.924  1.00  0.00    -0.339 N 
HETATM    4  H   UNL     1       7.967   1.363   3.516  1.00  0.00     0.164 HD
ENDROOT
BRANCH   1   5
HETATM    5  C   UNL     1       6.457   2.480   1.812  1.00  0.00     0.234 C 
BRANCH   5   6
HETATM    6  N   UNL     1       7.473   3.374   1.267  1.00  0.00    -0.314 N 
HETATM    7  C   UNL     1       7.436   3.727  -0.072  1.00  0.00     0.095 C 
HETATM    8  C   UNL     1       8.310   4.605  -0.580  1.00  0.00     0.020 C 
HETATM    9  C   UNL     1       9.260   5.258   0.291  1.00  0.00     0.043 C 
HETATM   10  C   UNL     1       9.336   4.898   1.580  1.00  0.00     0.170 C 
HETATM   11  C   UNL     1       8.482   3.819   2.136  1.00  0.00     0.281 C 
HETATM   12  O   UNL     1       8.642   3.316   3.246  1.00  0.00    -0.265 OA
BRANCH  10  13
HETATM   13  N   UNL     1      10.214   5.639   2.452  1.00  0.00    -0.110 N 
HETATM   14  O   UNL     1      11.252   6.104   1.959  1.00  0.00    -0.532 OA
HETATM   15  O   UNL     1       9.848   5.822   3.619  1.00  0.00    -0.532 OA
ENDBRANCH  10  13
ENDBRANCH   5   6
ENDBRANCH   1   5
BRANCH   3  16
HETATM   16  C   UNL     1       8.120  -0.741   3.107  1.00  0.00     0.104 C 
HETATM   17  C   UNL     1       9.198  -1.052   2.033  1.00  0.00     0.045 C 
HETATM   18  C   UNL     1      10.087  -2.275   2.282  1.00  0.00     0.004 C 
HETATM   19  C   UNL     1       9.503  -3.643   1.939  1.00  0.00     0.000 C 
HETATM   20  C   UNL     1       8.001  -3.858   2.081  1.00  0.00     0.000 C 
HETATM   21  C   UNL     1       7.357  -3.240   3.313  1.00  0.00     0.004 C 
HETATM   22  C   UNL     1       6.956  -1.772   3.100  1.00  0.00     0.045 C 
BRANCH  16  23
HETATM   23  C   UNL     1       8.734  -0.872   4.491  1.00  0.00    -0.046 C 
BRANCH  23  24
HETATM   24  N   UNL     1       9.243  -0.980   5.639  1.00  0.00    -0.367 N 
ATOM     25  HN2 UNL     1       8.822  -0.866   4.717  1.00  0.00     0.165 HD
ATOM     26  HN1 UNL     1       9.655  -1.068   6.568  1.00  0.00     0.165 HD
ENDBRANCH  23  24
ENDBRANCH  16  23
ENDBRANCH   3  16
TORSDOF 6
