REMARK  4 active torsions:
REMARK  status: ('A' for Active; 'I' for Inactive)
REMARK    1  A    between atoms: C_2  and  C_4 
REMARK    2  A    between atoms: C_7  and  C_8 
REMARK    3  A    between atoms: C_8  and  C_9 
REMARK    4  A    between atoms: C_9  and  N_10 
REMARK       I    between atoms: N_10  and  C_11 
REMARK       I    between atoms: C_11  and  N_13 
ROOT
HETATM    1  C   UNL     1       4.182  -1.506   5.698  1.00  0.00     0.130 C 
ENDROOT
BRANCH   1   2
HETATM    2  C   UNL     1       4.134  -0.362   4.678  1.00  0.00     0.077 C 
BRANCH   2   3
HETATM    3  C   UNL     1       3.704  -0.837   3.326  1.00  0.00     0.018 A 
HETATM    4  N   UNL     1       4.522  -1.710   2.623  1.00  0.00    -0.356 N 
HETATM    5  C   UNL     1       3.985  -1.993   1.453  1.00  0.00     0.054 A 
ATOM      6  HN  UNL     1       5.410  -2.079   2.962  1.00  0.00     0.166 HD
HETATM    7  S   UNL     1       2.462  -1.253   1.145  1.00  0.00    -0.086 SA
HETATM    8  C   UNL     1       2.542  -0.484   2.670  1.00  0.00     0.076 A 
BRANCH   5   9
HETATM    9  C   UNL     1       4.619  -2.875   0.407  1.00  0.00     0.035 C 
HETATM   10  C   UNL     1       5.969  -2.303  -0.024  1.00  0.00     0.016 C 
HETATM   11  C   UNL     1       4.778  -4.306   0.923  1.00  0.00     0.016 C 
ENDBRANCH   5   9
ENDBRANCH   2   3
ENDBRANCH   1   2
BRANCH   1  12
HETATM   12  N   UNL     1       4.547  -1.094   7.050  1.00  0.00    -0.343 N 
HETATM   13  C   UNL     1       3.738  -0.255   7.769  1.00  0.00     0.318 C 
HETATM   14  O   UNL     1       2.699   0.198   7.294  1.00  0.00    -0.247 OA
HETATM   15  N   UNL     1       4.181   0.078   9.037  1.00  0.00    -0.333 N 
HETATM   16  C   UNL     1       5.409  -0.391   9.697  1.00  0.00     0.137 C 
HETATM   17  C   UNL     1       3.432   1.093   9.785  1.00  0.00     0.137 C 
HETATM   18  C   UNL     1       5.116  -1.076  11.035  1.00  0.00     0.093 C 
HETATM   19  S   UNL     1       4.281   0.037  12.216  1.00  0.00    -0.166 SA
HETATM   20  C   UNL     1       2.919   0.581  11.129  1.00  0.00     0.093 C 
HETATM   21  H   UNL     1       4.994  -1.816   7.591  1.00  0.00     0.164 HD
ENDBRANCH   1  12
TORSDOF 4
