REMARK  6 active torsions:
REMARK  status: ('A' for Active; 'I' for Inactive)
REMARK    1  A    between atoms: C_6  and  N_7 
REMARK    2  A    between atoms: N_7  and  C_8 
REMARK    3  A    between atoms: C_8  and  C_9 
REMARK    4  A    between atoms: C_9  and  O_10 
REMARK    5  A    between atoms: O_10  and  C_11 
REMARK    6  A    between atoms: C_11  and  C_12 
ROOT
HETATM    1 CL   UNL     1       1.898  -3.696   2.108  1.00  0.00    -0.081 Cl
HETATM    2  C   UNL     1       3.482  -3.122   1.825  1.00  0.00     0.064 A 
HETATM    3  C   UNL     1       3.805  -2.347   0.739  1.00  0.00     0.116 A 
HETATM    4  N   UNL     1       5.043  -1.852   0.513  1.00  0.00    -0.341 N 
ATOM      5  HN  UNL     1       5.243  -1.268  -0.299  1.00  0.00     0.167 HD
HETATM    6  C   UNL     1       5.998  -2.164   1.406  1.00  0.00     0.157 A 
HETATM    7  N   UNL     1       5.786  -2.943   2.478  1.00  0.00    -0.341 N 
ATOM      8  HN  UNL     1       6.543  -3.185   3.118  1.00  0.00     0.167 HD
HETATM    9  C   UNL     1       4.526  -3.394   2.673  1.00  0.00     0.116 A 
ENDROOT
BRANCH   6  10
HETATM   10  N   UNL     1       7.275  -1.659   1.280  1.00  0.00    -0.262 NA
HETATM   11  H   UNL     1       7.919  -2.316   1.702  1.00  0.00     0.130 HD
BRANCH  10  12
HETATM   12  C   UNL     1       7.664  -1.164  -0.033  1.00  0.00     0.121 C 
BRANCH  12  13
HETATM   13  C   UNL     1       9.150  -0.777  -0.033  1.00  0.00     0.182 C 
BRANCH  13  14
HETATM   14  O   UNL     1       9.988  -1.945  -0.020  1.00  0.00    -0.390 OA
BRANCH  14  15
HETATM   15  C   UNL     1      11.367  -1.561   0.007  1.00  0.00     0.172 C 
BRANCH  15  16
HETATM   16  C   UNL     1      12.294  -2.736  -0.070  1.00  0.00     0.009 A 
HETATM   17  C   UNL     1      12.171  -3.747  -1.181  1.00  0.00     0.007 A 
HETATM   18  C   UNL     1      11.884  -4.154   0.239  1.00  0.00     0.007 A 
ENDBRANCH  15  16
ENDBRANCH  14  15
ENDBRANCH  13  14
ENDBRANCH  12  13
ENDBRANCH  10  12
ENDBRANCH   6  10
TORSDOF 6
