REMARK  3 active torsions:
REMARK  status: ('A' for Active; 'I' for Inactive)
REMARK    1  A    between atoms: O_2  and  C_3 
REMARK    2  A    between atoms: C_6  and  N_7 
REMARK    3  A    between atoms: C_10  and  N_13 
ROOT
HETATM    1  C   UNL     1       2.960   1.187   0.714  1.00  0.00     0.239 A 
HETATM    2  N   UNL     1       3.880   0.895   1.619  1.00  0.00    -0.298 N 
ATOM      3  HN  UNL     1       4.200  -0.056   1.803  1.00  0.00     0.172 HD
HETATM    4  C   UNL     1       4.344   1.948   2.259  1.00  0.00     0.172 A 
HETATM    5  N   UNL     1       3.987   3.197   2.024  1.00  0.00    -0.166 N 
ATOM      6  HN  UNL     1       4.380   3.973   2.556  1.00  0.00     0.187 HD
HETATM    7  C   UNL     1       3.091   3.397   1.062  1.00  0.00     0.685 A 
HETATM    8  N   UNL     1       2.541   2.405   0.375  1.00  0.00    -0.154 N 
ATOM      9  HN  UNL     1       1.849   2.563  -0.358  1.00  0.00     0.188 HD
ENDROOT
BRANCH   7  10
HETATM   10  N   UNL     1       2.812   4.702   0.719  1.00  0.00    -0.213 N 
HETATM   11  C   UNL     1       1.856   4.998  -0.347  1.00  0.00     0.167 C 
HETATM   12  C   UNL     1       2.161   6.408  -0.890  1.00  0.00     0.188 C 
HETATM   13  O   UNL     1       2.142   7.398   0.156  1.00  0.00    -0.388 OA
HETATM   14  C   UNL     1       3.111   7.078   1.170  1.00  0.00     0.188 C 
HETATM   15  C   UNL     1       2.836   5.702   1.792  1.00  0.00     0.167 C 
ENDBRANCH   7  10
BRANCH   4  16
HETATM   16  N   UNL     1       5.329   1.745   3.207  1.00  0.00    -0.273 NA
HETATM   17  H   UNL     1       5.825   0.887   3.004  1.00  0.00     0.127 HD
HETATM   18  H   UNL     1       5.887   2.583   3.295  1.00  0.00     0.127 HD
ENDBRANCH   4  16
BRANCH   1  19
HETATM   19  O   UNL     1       2.468   0.098   0.027  1.00  0.00    -0.327 OA
HETATM   20  C   UNL     1       1.122   0.296  -0.384  1.00  0.00     0.213 C 
ENDBRANCH   1  19
TORSDOF 3
