REMARK  4 active torsions:
REMARK  status: ('A' for Active; 'I' for Inactive)
REMARK    1  A    between atoms: C_8  and  N_9 
REMARK       I    between atoms: N_9  and  C_10 
REMARK       I    between atoms: C_10  and  N_12 
REMARK    2  A    between atoms: N_12  and  C_13 
REMARK    3  A    between atoms: C_13  and  C_14 
REMARK    4  A    between atoms: C_14  and  O_15 
ROOT
HETATM    1  N   UNL     1       2.315  -2.437  -0.032  1.00  0.00    -0.308 N 
HETATM    2  C   UNL     1       0.950  -2.590  -0.171  1.00  0.00     0.320 C 
HETATM    3  O   UNL     1       0.149  -1.672  -0.311  1.00  0.00    -0.247 OA
HETATM    4  N   UNL     1       0.488  -3.896  -0.112  1.00  0.00    -0.340 N 
HETATM    5  H   UNL     1       2.889  -3.263  -0.105  1.00  0.00     0.170 HD
HETATM    6  H   UNL     1       1.064  -4.619  -0.522  1.00  0.00     0.164 HD
ENDROOT
BRANCH   1   7
HETATM    7  C   UNL     1       2.966  -1.166   0.052  1.00  0.00     0.044 A 
HETATM    8  C   UNL     1       4.351  -1.030  -0.147  1.00  0.00    -0.020 A 
HETATM    9  C   UNL     1       5.284  -2.166  -0.437  1.00  0.00     0.052 C 
HETATM   10  C   UNL     1       4.889   0.262  -0.079  1.00  0.00     0.096 A 
HETATM   11  N   UNL     1       4.189   1.388   0.167  1.00  0.00    -0.375 N 
HETATM   12  C   UNL     1       2.875   1.226   0.383  1.00  0.00     0.090 A 
ATOM     13  HN  UNL     1       4.632   2.307   0.188  1.00  0.00     0.164 HD
HETATM   14  C   UNL     1       2.241  -0.003   0.347  1.00  0.00     0.047 A 
ENDBRANCH   1   7
BRANCH   4  15
HETATM   15  C   UNL     1      -0.957  -4.018  -0.279  1.00  0.00     0.162 C 
BRANCH  15  16
HETATM   16  C   UNL     1      -1.569  -5.423  -0.330  1.00  0.00     0.074 C 
HETATM   17  C   UNL     1      -3.089  -5.317  -0.585  1.00  0.00     0.039 C 
HETATM   18  C   UNL     1      -3.741  -6.490   0.148  1.00  0.00     0.003 C 
HETATM   19  C   UNL     1      -2.601  -7.264   0.795  1.00  0.00     0.003 C 
HETATM   20  C   UNL     1      -1.484  -6.234   0.959  1.00  0.00     0.039 C 
BRANCH  16  21
HETATM   21  O   UNL     1      -0.956  -6.171  -1.388  1.00  0.00    -0.388 OA
HETATM   22  H   UNL     1      -1.096  -5.679  -2.216  1.00  0.00     0.210 HD
ENDBRANCH  16  21
ENDBRANCH  15  16
ENDBRANCH   4  15
TORSDOF 4
