REMARK  4 active torsions:
REMARK  status: ('A' for Active; 'I' for Inactive)
REMARK    1  A    between atoms: C_8  and  N_9 
REMARK       I    between atoms: N_9  and  C_10 
REMARK       I    between atoms: C_10  and  N_12 
REMARK    2  A    between atoms: N_12  and  C_13 
REMARK    3  A    between atoms: C_13  and  C_14 
REMARK    4  A    between atoms: C_14  and  O_15 
ROOT
HETATM    1  N   UNL     1       2.564  -2.546   0.716  1.00  0.00    -0.294 N 
HETATM    2  C   UNL     1       1.225  -2.610   0.855  1.00  0.00     0.321 C 
HETATM    3  O   UNL     1       0.608  -1.556   1.020  1.00  0.00    -0.247 OA
HETATM    4  N   UNL     1       0.582  -3.813   0.705  1.00  0.00    -0.340 N 
HETATM    5  H   UNL     1       2.825  -1.657   0.316  1.00  0.00     0.172 HD
HETATM    6  H   UNL     1       1.042  -4.491   0.110  1.00  0.00     0.164 HD
ENDROOT
BRANCH   1   7
HETATM    7  C   UNL     1       3.499  -3.539   0.469  1.00  0.00     0.114 A 
HETATM    8  C   UNL     1       3.765  -4.587   1.350  1.00  0.00    -0.018 A 
HETATM    9  C   UNL     1       3.077  -4.760   2.673  1.00  0.00     0.052 C 
HETATM   10  C   UNL     1       4.809  -5.458   1.005  1.00  0.00     0.012 A 
HETATM   11  C   UNL     1       5.542  -5.245  -0.156  1.00  0.00     0.018 A 
HETATM   12  C   UNL     1       5.229  -4.152  -0.934  1.00  0.00     0.089 A 
HETATM   13  N   UNL     1       4.244  -3.286  -0.630  1.00  0.00    -0.352 N 
ATOM     14  HN  UNL     1       4.066  -2.466  -1.210  1.00  0.00     0.166 HD
ENDBRANCH   1   7
BRANCH   4  15
HETATM   15  C   UNL     1      -0.867  -3.730   0.603  1.00  0.00     0.162 C 
BRANCH  15  16
HETATM   16  C   UNL     1      -1.675  -5.048   0.593  1.00  0.00     0.074 C 
HETATM   17  C   UNL     1      -3.184  -4.718   0.681  1.00  0.00     0.039 C 
HETATM   18  C   UNL     1      -3.575  -4.105   2.030  1.00  0.00     0.003 C 
HETATM   19  C   UNL     1      -3.100  -4.950   3.213  1.00  0.00     0.000 C 
HETATM   20  C   UNL     1      -1.646  -5.411   3.104  1.00  0.00     0.003 C 
HETATM   21  C   UNL     1      -1.327  -6.009   1.737  1.00  0.00     0.039 C 
BRANCH  16  22
HETATM   22  O   UNL     1      -1.426  -5.737  -0.641  1.00  0.00    -0.388 OA
HETATM   23  H   UNL     1      -1.770  -5.188  -1.367  1.00  0.00     0.210 HD
ENDBRANCH  16  22
ENDBRANCH  15  16
ENDBRANCH   4  15
TORSDOF 4
