REMARK  4 active torsions:
REMARK  status: ('A' for Active; 'I' for Inactive)
REMARK    1  A    between atoms: C_8  and  N_9 
REMARK       I    between atoms: N_9  and  C_10 
REMARK       I    between atoms: C_10  and  N_12 
REMARK    2  A    between atoms: N_12  and  C_13 
REMARK    3  A    between atoms: C_13  and  C_14 
REMARK    4  A    between atoms: C_14  and  C_15 
ROOT
HETATM    1  N   UNL     1       1.936  -2.293   0.026  1.00  0.00    -0.306 N 
HETATM    2  C   UNL     1       0.566  -2.395  -0.022  1.00  0.00     0.320 C 
HETATM    3  O   UNL     1      -0.217  -1.452   0.005  1.00  0.00    -0.247 OA
HETATM    4  N   UNL     1       0.105  -3.694  -0.083  1.00  0.00    -0.343 N 
HETATM    5  H   UNL     1       2.485  -3.114  -0.187  1.00  0.00     0.171 HD
HETATM    6  H   UNL     1       0.693  -4.384  -0.530  1.00  0.00     0.164 HD
ENDROOT
BRANCH   1   7
HETATM    7  C   UNL     1       2.646  -1.071   0.184  1.00  0.00     0.077 A 
HETATM    8  C   UNL     1       4.013  -1.040  -0.081  1.00  0.00     0.158 A 
HETATM    9  F   UNL     1       4.661  -2.145  -0.481  1.00  0.00    -0.202 F 
HETATM   10  C   UNL     1       4.699   0.158   0.044  1.00  0.00     0.132 A 
HETATM   11  N   UNL     1       4.121   1.322   0.430  1.00  0.00    -0.372 N 
HETATM   12  C   UNL     1       2.801   1.268   0.704  1.00  0.00     0.090 A 
ATOM     13  HN  UNL     1       4.653   2.189   0.509  1.00  0.00     0.164 HD
HETATM   14  C   UNL     1       2.039   0.115   0.603  1.00  0.00     0.050 A 
ENDBRANCH   1   7
BRANCH   4  15
HETATM   15  C   UNL     1      -1.336  -3.853  -0.215  1.00  0.00     0.128 C 
BRANCH  15  16
HETATM   16  C   UNL     1      -1.831  -5.295  -0.271  1.00  0.00     0.053 C 
BRANCH  16  17
HETATM   17  C   UNL     1      -1.356  -6.047  -1.476  1.00  0.00    -0.082 C 
HETATM   18  C   UNL     1      -0.703  -7.214  -1.479  1.00  0.00    -0.024 C 
HETATM   19  C   UNL     1      -0.383  -7.665  -2.865  1.00  0.00     0.027 C 
HETATM   20  C   UNL     1      -1.258  -6.758  -3.729  1.00  0.00     0.008 C 
HETATM   21  C   UNL     1      -1.586  -5.540  -2.868  1.00  0.00     0.034 C 
ENDBRANCH  16  17
ENDBRANCH  15  16
ENDBRANCH   4  15
TORSDOF 4
