REMARK  6 active torsions:
REMARK  status: ('A' for Active; 'I' for Inactive)
REMARK       I    between atoms: N_2  and  C_4 
REMARK    1  A    between atoms: C_4  and  C_6 
REMARK    2  A    between atoms: C_9  and  N_13 
REMARK    3  A    between atoms: C_17  and  O_19 
REMARK    4  A    between atoms: O_19  and  C_20 
REMARK    5  A    between atoms: C_20  and  C_21 
REMARK    6  A    between atoms: C_21  and  O_22 
ROOT
HETATM    1  C   UNL     1       4.848   1.223   0.001  1.00  0.00     0.047 C 
HETATM    2  C   UNL     1       5.442   0.294  -0.835  1.00  0.00     0.022 C 
HETATM    3  C   UNL     1       6.823   0.154  -0.815  1.00  0.00     0.049 C 
HETATM    4  C   UNL     1       7.609   0.995  -0.027  1.00  0.00     0.103 C 
HETATM    5  N   UNL     1       7.053   1.997   0.680  1.00  0.00    -0.351 N 
ATOM      6  HN  UNL     1       7.629   2.666   1.191  1.00  0.00     0.166 HD
HETATM    7  C   UNL     1       5.692   2.086   0.689  1.00  0.00     0.106 C 
ENDROOT
BRANCH   4   8
HETATM    8  N   UNL     1       8.967   0.791   0.008  1.00  0.00    -0.365 N 
HETATM    9  C   UNL     1       9.910   1.886   0.113  1.00  0.00     0.124 C 
HETATM   10  C   UNL     1      10.979   1.649  -0.967  1.00  0.00     0.022 C 
HETATM   11  C   UNL     1      11.585   0.234  -0.900  1.00  0.00     0.035 C 
HETATM   12  C   UNL     1      10.506  -0.868  -0.875  1.00  0.00     0.139 C 
HETATM   13  C   UNL     1       9.498  -0.540   0.243  1.00  0.00     0.156 C 
BRANCH  12  14
HETATM   14  O   UNL     1      11.139  -2.146  -0.687  1.00  0.00    -0.382 OA
BRANCH  14  15
HETATM   15  C   UNL     1      10.212  -3.242  -0.788  1.00  0.00     0.194 C 
BRANCH  15  16
HETATM   16  C   UNL     1      10.959  -4.562  -0.645  1.00  0.00     0.190 C 
BRANCH  16  17
HETATM   17  O   UNL     1      11.634  -4.602   0.610  1.00  0.00    -0.399 OA
HETATM   18  H   UNL     1      12.156  -3.777   0.648  1.00  0.00     0.209 HD
ENDBRANCH  16  17
ENDBRANCH  15  16
ENDBRANCH  14  15
ENDBRANCH  12  14
ENDBRANCH   4   8
BRANCH   1  19
HETATM   19  C   UNL     1       3.381   1.353   0.140  1.00  0.00     0.254 C 
HETATM   20  N   UNL     1       2.569   0.207   0.151  1.00  0.00    -0.357 N 
HETATM   21  C   UNL     1       1.137   0.427   0.250  1.00  0.00     0.152 C 
HETATM   22  C   UNL     1       3.037  -1.171   0.252  1.00  0.00     0.152 C 
HETATM   23  O   UNL     1       2.921   2.486   0.257  1.00  0.00    -0.267 OA
ENDBRANCH   1  19
TORSDOF 6
