REMARK  7 active torsions:
REMARK  status: ('A' for Active; 'I' for Inactive)
REMARK    1  A    between atoms: C_2  and  C_3 
REMARK    2  A    between atoms: C_3  and  N_4 
REMARK    3  A    between atoms: C_7  and  N_10 
REMARK    4  A    between atoms: N_10  and  C_11 
REMARK    5  A    between atoms: C_11  and  C_12 
REMARK    6  A    between atoms: C_12  and  O_13 
REMARK    7  A    between atoms: C_12  and  C_14 
ROOT
HETATM    1  N   UNL     1       6.562  -2.103  -3.235  1.00  0.00     0.090 N 
HETATM    2  H   UNL     1       7.007  -1.774  -2.379  1.00  0.00     0.316 HD
ENDROOT
BRANCH   1   3
HETATM    3  C   UNL     1       5.092  -2.094  -3.119  1.00  0.00     0.224 C 
HETATM    4  C   UNL     1       4.612  -0.674  -2.761  1.00  0.00     0.066 C 
HETATM    5  C   UNL     1       4.875  -0.321  -1.292  1.00  0.00     0.274 C 
HETATM    6  N   UNL     1       4.370  -1.315  -0.325  1.00  0.00     0.088 N 
HETATM    7  C   UNL     1       4.887  -2.649  -0.661  1.00  0.00     0.274 C 
HETATM    8  C   UNL     1       4.526  -3.078  -2.081  1.00  0.00     0.066 C 
BRANCH   6   9
HETATM    9  C   UNL     1       2.901  -1.251  -0.212  1.00  0.00     0.272 C 
BRANCH   9  10
HETATM   10  C   UNL     1       2.314  -2.205   0.837  1.00  0.00     0.026 C 
HETATM   11  C   UNL     1       0.799  -2.089   0.899  1.00  0.00     0.007 C 
ENDBRANCH   9  10
ENDBRANCH   6   9
ENDBRANCH   1   3
BRANCH   1  12
HETATM   12  C   UNL     1       7.095  -3.409  -3.635  1.00  0.00     0.306 C 
BRANCH  12  13
HETATM   13  C   UNL     1       8.643  -3.468  -3.653  1.00  0.00     0.179 C 
BRANCH  13  14
HETATM   14  O   UNL     1       9.195  -3.188  -2.363  1.00  0.00    -0.389 OA
HETATM   15  H   UNL     1       8.495  -3.317  -1.704  1.00  0.00     0.210 HD
ENDBRANCH  13  14
BRANCH  13  16
HETATM   16  C   UNL     1       9.056  -4.857  -4.091  1.00  0.00    -0.025 A 
HETATM   17  C   UNL     1       9.218  -5.139  -5.452  1.00  0.00     0.027 A 
HETATM   18  C   UNL     1       9.441  -6.450  -5.838  1.00  0.00     0.088 A 
HETATM   19  N   UNL     1       9.515  -7.486  -4.976  1.00  0.00    -0.375 N 
HETATM   20  C   UNL     1       9.377  -7.195  -3.666  1.00  0.00     0.088 A 
ATOM     21  HN  UNL     1       9.668  -8.441  -5.299  1.00  0.00     0.164 HD
HETATM   22  C   UNL     1       9.151  -5.918  -3.181  1.00  0.00     0.027 A 
ENDBRANCH  13  16
ENDBRANCH  12  13
ENDBRANCH   1  12
TORSDOF 7
