REMARK  5 active torsions:
REMARK  status: ('A' for Active; 'I' for Inactive)
REMARK    1  A    between atoms: S_2  and  N_4 
REMARK    2  A    between atoms: S_2  and  N_14 
REMARK    3  A    between atoms: N_4  and  C_5 
REMARK    4  A    between atoms: C_5  and  C_6 
REMARK    5  A    between atoms: C_6  and  C_7 
ROOT
HETATM    1  N   UNL     1       3.153  -1.529  -0.068  1.00  0.00    -0.206 NA
HETATM    2  H   UNL     1       4.169  -1.435  -0.028  1.00  0.00     0.140 HD
ENDROOT
BRANCH   1   3
HETATM    3  S   UNL     1       2.505   0.016   0.128  1.00  0.00     0.280 S 
HETATM    4  O   UNL     1       1.067  -0.091   0.092  1.00  0.00    -0.194 OA
HETATM    5  O   UNL     1       3.193   0.602   1.253  1.00  0.00    -0.194 OA
BRANCH   3   6
HETATM    6  N   UNL     1       3.004   0.839  -1.286  1.00  0.00    -0.198 NA
HETATM    7  C   UNL     1       2.452   2.242  -1.228  1.00  0.00     0.108 C 
HETATM    8  C   UNL     1       3.202   3.207  -2.135  1.00  0.00     0.015 C 
HETATM    9  C   UNL     1       2.597   3.324  -3.530  1.00  0.00     0.001 C 
HETATM   10  C   UNL     1       2.197   2.005  -4.183  1.00  0.00     0.001 C 
HETATM   11  C   UNL     1       3.109   0.835  -3.824  1.00  0.00     0.015 C 
HETATM   12  C   UNL     1       2.673   0.112  -2.547  1.00  0.00     0.108 C 
ENDBRANCH   3   6
ENDBRANCH   1   3
BRANCH   1  13
HETATM   13  C   UNL     1       2.652  -2.453   0.998  1.00  0.00     0.110 C 
BRANCH  13  14
HETATM   14  C   UNL     1       3.163  -3.880   0.795  1.00  0.00     0.055 C 
BRANCH  14  15
HETATM   15  C   UNL     1       2.651  -4.797   1.879  1.00  0.00    -0.042 A 
HETATM   16  C   UNL     1       1.430  -5.466   1.755  1.00  0.00     0.010 A 
HETATM   17  C   UNL     1       0.971  -6.270   2.796  1.00  0.00     0.018 A 
HETATM   18  C   UNL     1       1.749  -6.377   3.936  1.00  0.00     0.087 A 
HETATM   19  N   UNL     1       2.929  -5.743   4.097  1.00  0.00    -0.375 N 
HETATM   20  C   UNL     1       3.351  -4.969   3.071  1.00  0.00     0.094 A 
ATOM     21  HN  UNL     1       3.477  -5.843   4.952  1.00  0.00     0.164 HD
ENDBRANCH  14  15
ENDBRANCH  13  14
ENDBRANCH   1  13
TORSDOF 5
