REMARK  1 active torsions:
REMARK  status: ('A' for Active; 'I' for Inactive)
REMARK    1  A    between atoms: N_10  and  C_13 
ROOT
HETATM    1  C   UNL     3       1.332   0.557   0.616  1.00  0.00     0.070 C 
HETATM    2  C   UNL     3       2.811   0.456   0.445  1.00  0.00     0.024 A 
HETATM    3  C   UNL     3       3.677   1.521   0.326  1.00  0.00     0.052 A 
HETATM    4  C   UNL     3       4.917   0.942   0.180  1.00  0.00     0.027 A 
HETATM    5  C   UNL     3       6.206   1.674  -0.008  1.00  0.00     0.070 C 
HETATM    6  N   UNL     3       4.776  -0.399   0.215  1.00  0.00    -0.288 N 
HETATM    7  N   UNL     3       3.496  -0.706   0.371  1.00  0.00    -0.302 N 
ATOM      8  HN  UNL     3       3.102  -1.645   0.425  1.00  0.00     0.186 HD
ENDROOT
BRANCH   6   9
HETATM    9  C   UNL     3       5.873  -1.365   0.083  1.00  0.00     0.164 C 
HETATM   10  C   UNL     3       5.558  -2.843   0.229  1.00  0.00     0.298 C 
HETATM   11  N   UNL     3       6.660  -3.032   1.183  1.00  0.00     0.087 N 
HETATM   12  C   UNL     3       6.695  -1.574   1.339  1.00  0.00     0.298 C 
HETATM   13  H   UNL     3       7.511  -3.300   0.630  1.00  0.00     0.316 HD
ENDBRANCH   6   9
TORSDOF 1
