REMARK  7 active torsions:
REMARK  status: ('A' for Active; 'I' for Inactive)
REMARK    1  A    between atoms: O_2  and  C_3 
REMARK    2  A    between atoms: C_10  and  O_11 
REMARK    3  A    between atoms: O_11  and  C_12 
REMARK    4  A    between atoms: C_12  and  C_13 
REMARK    5  A    between atoms: C_13  and  N_14 
REMARK    6  A    between atoms: C_15  and  C_24 
REMARK    7  A    between atoms: C_24  and  O_26 
ROOT
HETATM    1  C   UNL     1       6.487  -0.464   0.372  1.00  0.00     0.102 A 
HETATM    2  C   UNL     1       7.662   0.301   0.337  1.00  0.00     0.062 A 
HETATM    3  C   UNL     1       8.082   1.027   1.460  1.00  0.00     0.047 A 
HETATM    4  C   UNL     1       9.307   1.769   1.409  1.00  0.00     0.099 C 
HETATM    5  N   UNL     1      10.300   2.364   1.360  1.00  0.00    -0.191 NA
HETATM    6  C   UNL     1       7.322   1.002   2.626  1.00  0.00     0.025 A 
HETATM    7  C   UNL     1       6.156   0.241   2.671  1.00  0.00     0.041 A 
HETATM    8  C   UNL     1       5.733  -0.508   1.562  1.00  0.00     0.102 A 
ENDROOT
BRANCH   1   9
HETATM    9  O   UNL     1       6.103  -1.228  -0.699  1.00  0.00    -0.353 OA
HETATM   10  C   UNL     1       6.494  -0.784  -1.996  1.00  0.00     0.210 C 
ENDBRANCH   1   9
BRANCH   8  11
HETATM   11  O   UNL     1       4.595  -1.219   1.844  1.00  0.00    -0.347 OA
BRANCH  11  12
HETATM   12  C   UNL     1       3.918  -1.908   0.797  1.00  0.00     0.196 C 
BRANCH  12  13
HETATM   13  C   UNL     1       4.420  -3.344   0.670  1.00  0.00     0.157 C 
BRANCH  13  14
HETATM   14  N   UNL     1       3.939  -4.149  -0.441  1.00  0.00    -0.331 N 
HETATM   15  C   UNL     1       4.318  -5.476  -0.642  1.00  0.00     0.113 A 
HETATM   16  N   UNL     1       3.780  -5.951  -1.749  1.00  0.00    -0.342 N 
HETATM   17  C   UNL     1       3.020  -4.944  -2.265  1.00  0.00     0.060 A 
ATOM     18  HN  UNL     1       3.907  -6.884  -2.140  1.00  0.00     0.167 HD
HETATM   19  C   UNL     1       2.231  -4.962  -3.425  1.00  0.00     0.032 A 
HETATM   20  C   UNL     1       3.087  -3.797  -1.475  1.00  0.00     0.062 A 
HETATM   21  C   UNL     1       1.528  -3.814  -3.791  1.00  0.00     0.002 A 
HETATM   22  C   UNL     1       1.600  -2.670  -3.004  1.00  0.00     0.002 A 
HETATM   23  C   UNL     1       2.365  -2.645  -1.833  1.00  0.00     0.032 A 
BRANCH  15  24
HETATM   24  C   UNL     1       5.183  -6.285   0.285  1.00  0.00     0.181 C 
HETATM   25  C   UNL     1       5.359  -7.722  -0.205  1.00  0.00     0.047 C 
BRANCH  24  26
HETATM   26  O   UNL     1       6.465  -5.663   0.354  1.00  0.00    -0.388 OA
HETATM   27  H   UNL     1       6.916  -5.867  -0.485  1.00  0.00     0.210 HD
ENDBRANCH  24  26
ENDBRANCH  15  24
ENDBRANCH  13  14
ENDBRANCH  12  13
ENDBRANCH  11  12
ENDBRANCH   8  11
TORSDOF 7
