REMARK  4 active torsions:
REMARK  status: ('A' for Active; 'I' for Inactive)
REMARK    1  A    between atoms: C_2  and  C_3 
REMARK       I    between atoms: C_2  and  N_16 
REMARK    2  A    between atoms: C_3  and  N_4 
REMARK    3  A    between atoms: C_8  and  C_12 
REMARK    4  A    between atoms: N_16  and  C_17 
ROOT
HETATM    1  N   UNL     1       1.872   0.141  -2.528  1.00  0.00    -0.302 N 
HETATM    2  C   UNL     1       1.426  -0.999  -3.145  1.00  0.00     0.186 A 
HETATM    3  N   UNL     1       0.695  -1.023  -4.208  1.00  0.00    -0.355 N 
ATOM      4  HN  UNL     1       0.380  -1.903  -4.617  1.00  0.00     0.166 HD
HETATM    5  C   UNL     1       0.360   0.184  -4.763  1.00  0.00     0.019 A 
HETATM    6  C   UNL     1       0.706   1.369  -4.243  1.00  0.00     0.100 A 
HETATM    7  C   UNL     1       1.542   1.375  -3.036  1.00  0.00     0.250 A 
HETATM    8  O   UNL     1       1.984   2.436  -2.599  1.00  0.00    -0.268 OA
ENDROOT
BRANCH   1   9
HETATM    9  C   UNL     1       2.812   0.052  -1.421  1.00  0.00     0.235 C 
BRANCH   9  10
HETATM   10  C   UNL     1       4.249   0.079  -1.952  1.00  0.00     0.236 C 
HETATM   11  O   UNL     1       5.038  -0.834  -1.717  1.00  0.00    -0.272 OA
HETATM   12  N   UNL     1       4.584   1.222  -2.652  1.00  0.00    -0.355 N 
HETATM   13  H   UNL     1       3.905   1.983  -2.689  1.00  0.00     0.162 HD
BRANCH  12  14
HETATM   14  C   UNL     1       5.876   1.443  -3.215  1.00  0.00     0.084 A 
HETATM   15  C   UNL     1       6.152   2.693  -4.006  1.00  0.00     0.027 A 
HETATM   16  C   UNL     1       6.097   1.364  -4.702  1.00  0.00     0.027 A 
ENDBRANCH  12  14
ENDBRANCH   9  10
ENDBRANCH   1   9
BRANCH   5  17
HETATM   17  C   UNL     1      -0.341   0.176  -6.078  1.00  0.00     0.036 C 
HETATM   18  C   UNL     1      -1.737   0.853  -6.133  1.00  0.00     0.011 C 
HETATM   19  C   UNL     1      -2.149  -0.244  -7.137  1.00  0.00     0.001 C 
HETATM   20  C   UNL     1      -1.066  -1.133  -6.494  1.00  0.00     0.011 C 
ENDBRANCH   5  17
TORSDOF 4
