REMARK  3 active torsions:
REMARK  status: ('A' for Active; 'I' for Inactive)
REMARK    1  A    between atoms: C_3  and  N_4 
REMARK    2  A    between atoms: C_5  and  N_12 
REMARK    3  A    between atoms: C_14  and  O_15 
ROOT
HETATM    1  N   UNL     1       1.129  -0.841   0.444  1.00  0.00    -0.319 N 
ATOM      2  HN  UNL     1       1.953  -1.385   0.699  1.00  0.00     0.170 HD
HETATM    3  C   UNL     1       0.008  -1.447   0.008  1.00  0.00     0.106 A 
HETATM    4  C   UNL     1       1.133   0.492   0.533  1.00  0.00     0.156 A 
HETATM    5  N   UNL     1       0.124   1.289   0.183  1.00  0.00    -0.343 N 
ATOM      6  HN  UNL     1       0.189   2.305   0.244  1.00  0.00     0.167 HD
HETATM    7  C   UNL     1      -1.095  -0.696  -0.351  1.00  0.00     0.065 A 
HETATM    8  C   UNL     1      -0.981   0.670  -0.254  1.00  0.00     0.094 A 
ENDROOT
BRANCH   3   9
HETATM    9  N   UNL     1       0.018  -2.817  -0.169  1.00  0.00    -0.365 N 
HETATM   10  C   UNL     1      -1.168  -3.639   0.060  1.00  0.00     0.156 C 
HETATM   11  C   UNL     1      -0.653  -5.082  -0.140  1.00  0.00     0.137 C 
HETATM   12  C   UNL     1       0.866  -4.961  -0.302  1.00  0.00     0.053 C 
HETATM   13  C   UNL     1       1.193  -3.576   0.240  1.00  0.00     0.127 C 
BRANCH  11  14
HETATM   14  O   UNL     1      -1.214  -5.676  -1.311  1.00  0.00    -0.394 OA
HETATM   15  H   UNL     1      -1.006  -5.086  -2.059  1.00  0.00     0.210 HD
ENDBRANCH  11  14
ENDBRANCH   3   9
BRANCH   4  16
HETATM   16  N   UNL     1       2.299   1.104   0.953  1.00  0.00    -0.274 NA
HETATM   17  H   UNL     1       3.077   0.491   0.757  1.00  0.00     0.127 HD
HETATM   18  H   UNL     1       2.335   2.035   0.564  1.00  0.00     0.127 HD
ENDBRANCH   4  16
TORSDOF 3
