REMARK  5 active torsions:
REMARK  status: ('A' for Active; 'I' for Inactive)
REMARK    1  A    between atoms: N_8  and  C_9 
REMARK    2  A    between atoms: C_9  and  C_10 
REMARK    3  A    between atoms: C_10  and  O_11 
REMARK    4  A    between atoms: C_10  and  C_12 
REMARK    5  A    between atoms: C_12  and  N_13 
ROOT
HETATM    1  C   UNL     1       3.046  -2.225  -3.975  1.00  0.00     0.049 C 
HETATM    2  C   UNL     1       4.026  -1.619  -3.008  1.00  0.00    -0.054 A 
HETATM    3  C   UNL     1       3.872  -1.877  -1.631  1.00  0.00     0.039 A 
HETATM    4  C   UNL     1       4.755  -1.291  -0.713  1.00  0.00     0.060 A 
HETATM    5  N   UNL     1       4.789  -1.390   0.656  1.00  0.00    -0.350 N 
ATOM      6  HN  UNL     1       4.161  -1.928   1.254  1.00  0.00     0.166 HD
HETATM    7  C   UNL     1       5.803  -0.644   1.031  1.00  0.00     0.184 A 
HETATM    8  N   UNL     1       6.406  -0.040  -0.036  1.00  0.00    -0.339 N 
HETATM    9  C   UNL     1       5.775  -0.470  -1.179  1.00  0.00     0.062 A 
HETATM   10  C   UNL     1       5.977  -0.214  -2.539  1.00  0.00     0.039 A 
HETATM   11  C   UNL     1       5.078  -0.792  -3.457  1.00  0.00    -0.054 A 
HETATM   12  C   UNL     1       5.265  -0.497  -4.922  1.00  0.00     0.049 C 
ENDROOT
BRANCH   8  13
HETATM   13  C   UNL     1       7.519   0.889   0.036  1.00  0.00     0.163 C 
BRANCH  13  14
HETATM   14  C   UNL     1       7.108   2.374   0.083  1.00  0.00     0.164 C 
BRANCH  14  15
HETATM   15  O   UNL     1       6.397   2.762  -1.099  1.00  0.00    -0.392 OA
HETATM   16  H   UNL     1       5.574   2.241  -1.145  1.00  0.00     0.210 HD
ENDBRANCH  14  15
BRANCH  14  17
HETATM   17  C   UNL     1       6.309   2.779   1.348  1.00  0.00     0.305 C 
BRANCH  17  18
HETATM   18  N   UNL     1       6.975   2.369   2.585  1.00  0.00     0.095 N 
HETATM   19  C   UNL     1       8.215   3.121   2.874  1.00  0.00     0.298 C 
HETATM   20  C   UNL     1       8.916   2.464   4.072  1.00  0.00     0.198 C 
HETATM   21  O   UNL     1       8.083   2.497   5.239  1.00  0.00    -0.388 OA
HETATM   22  C   UNL     1       6.823   1.857   4.982  1.00  0.00     0.198 C 
HETATM   23  C   UNL     1       6.104   2.483   3.773  1.00  0.00     0.298 C 
ENDBRANCH  17  18
ENDBRANCH  14  17
ENDBRANCH  13  14
ENDBRANCH   8  13
TORSDOF 5
