REMARK  1 active torsions:
REMARK  status: ('A' for Active; 'I' for Inactive)
REMARK    1  A    between atoms: C_8  and  N_9 
ROOT
HETATM    1  N   UNL     3       0.940  -0.577   1.983  1.00  0.00    -0.296 N 
HETATM    2  C   UNL     3       1.222  -1.729   2.625  1.00  0.00     0.112 A 
HETATM    3  C   UNL     3       1.524  -1.430   3.933  1.00  0.00     0.037 A 
HETATM    4  C   UNL     3       1.416  -0.057   4.025  1.00  0.00     0.108 A 
HETATM    5  N   UNL     3       1.061   0.439   2.826  1.00  0.00    -0.310 N 
ATOM      6  HN  UNL     3       0.911   1.423   2.605  1.00  0.00     0.186 HD
ENDROOT
BRANCH   1   7
HETATM    7  C   UNL     3       0.595  -0.463   0.561  1.00  0.00     0.163 C 
HETATM    8  C   UNL     3      -0.116   0.846   0.235  1.00  0.00     0.298 C 
HETATM    9  N   UNL     3      -1.434   0.214   0.339  1.00  0.00     0.087 N 
HETATM   10  C   UNL     3      -0.762  -1.087   0.284  1.00  0.00     0.298 C 
HETATM   11  H   UNL     3      -1.987   0.376  -0.536  1.00  0.00     0.316 HD
ENDBRANCH   1   7
TORSDOF 1
