REMARK  3 active torsions:
REMARK  status: ('A' for Active; 'I' for Inactive)
REMARK       I    between atoms: C_2  and  N_4 
REMARK       I    between atoms: N_8  and  C_11 
REMARK       I    between atoms: C_11  and  N_13 
REMARK    1  A    between atoms: N_13  and  C_14 
REMARK    2  A    between atoms: C_14  and  C_15 
REMARK    3  A    between atoms: C_15  and  N_16 
ROOT
HETATM    1  C   UNL     1       2.057  -0.950   1.135  1.00  0.00     0.117 C 
HETATM    2  C   UNL     1       2.652   0.005   0.131  1.00  0.00     0.215 C 
HETATM    3  O   UNL     1       2.526  -0.223  -1.073  1.00  0.00    -0.274 OA
HETATM    4  N   UNL     1       3.278   1.147   0.623  1.00  0.00    -0.351 N 
HETATM    5  C   UNL     1       3.740   2.156  -0.337  1.00  0.00     0.127 C 
HETATM    6  C   UNL     1       3.000   3.481  -0.158  1.00  0.00     0.040 C 
HETATM    7  C   UNL     1       3.660   4.409   0.864  1.00  0.00     0.129 C 
HETATM    8  N   UNL     1       4.087   3.773   2.111  1.00  0.00    -0.333 N 
HETATM    9  C   UNL     1       3.258   2.681   2.628  1.00  0.00     0.147 C 
HETATM   10  C   UNL     1       3.668   1.326   2.032  1.00  0.00     0.145 C 
HETATM   11  C   UNL     1       5.279   4.007   2.774  1.00  0.00     0.318 C 
HETATM   12  O   UNL     1       5.627   3.348   3.753  1.00  0.00    -0.247 OA
HETATM   13  N   UNL     1       6.083   4.981   2.244  1.00  0.00    -0.341 N 
HETATM   14  H   UNL     1       5.583   5.766   1.854  1.00  0.00     0.164 HD
ENDROOT
BRANCH  13  15
HETATM   15  C   UNL     1       7.354   5.306   2.882  1.00  0.00     0.144 C 
BRANCH  15  16
HETATM   16  C   UNL     1       8.357   4.149   2.887  1.00  0.00     0.149 C 
BRANCH  16  17
HETATM   17  N   UNL     1       9.608   4.511   3.522  1.00  0.00    -0.350 N 
HETATM   18  C   UNL     1      10.723   4.999   2.901  1.00  0.00     0.108 A 
HETATM   19  C   UNL     1      11.657   5.123   3.901  1.00  0.00     0.106 A 
HETATM   20  N   UNL     1      11.136   4.733   5.108  1.00  0.00    -0.361 N 
HETATM   21  C   UNL     1       9.903   4.356   4.847  1.00  0.00     0.182 A 
ATOM     22  HN  UNL     1      11.604   4.735   6.014  1.00  0.00     0.166 HD
ENDBRANCH  16  17
ENDBRANCH  15  16
ENDBRANCH  13  15
TORSDOF 3
