REMARK  5 active torsions:
REMARK  status: ('A' for Active; 'I' for Inactive)
REMARK    1  A    between atoms: C_2  and  C_5 
REMARK    2  A    between atoms: C_5  and  O_6 
REMARK    3  A    between atoms: O_6  and  C_7 
REMARK    4  A    between atoms: C_10  and  N_11 
REMARK       I    between atoms: N_11  and  C_12 
REMARK       I    between atoms: C_12  and  N_14 
REMARK    5  A    between atoms: N_14  and  C_15 
ROOT
HETATM    1  C   UNL     1       3.941   0.888   3.720  1.00  0.00     0.142 A 
HETATM    2  C   UNL     1       4.408  -0.309   4.227  1.00  0.00     0.058 A 
HETATM    3  C   UNL     1       5.561  -0.292   5.006  1.00  0.00     0.035 A 
HETATM    4  C   UNL     1       6.190   0.918   5.288  1.00  0.00     0.051 A 
HETATM    5  C   UNL     1       5.651   2.060   4.698  1.00  0.00     0.119 A 
HETATM    6  N   UNL     1       4.543   2.077   3.915  1.00  0.00    -0.345 N 
ATOM      7  HN  UNL     1       4.188   2.938   3.499  1.00  0.00     0.167 HD
ENDROOT
BRANCH   4   8
HETATM    8  N   UNL     1       7.333   1.017   6.112  1.00  0.00    -0.308 N 
HETATM    9  C   UNL     1       7.771   0.041   6.983  1.00  0.00     0.321 C 
HETATM   10  O   UNL     1       7.181  -0.993   7.263  1.00  0.00    -0.247 OA
HETATM   11  N   UNL     1       9.014   0.339   7.492  1.00  0.00    -0.338 N 
HETATM   12  H   UNL     1       9.229   1.321   7.557  1.00  0.00     0.164 HD
HETATM   13  H   UNL     1       7.784   1.917   6.167  1.00  0.00     0.170 HD
BRANCH  11  14
HETATM   14  C   UNL     1       9.686  -0.543   8.453  1.00  0.00     0.090 C 
HETATM   15  C   UNL     1      11.002   0.100   8.899  1.00  0.00     0.051 C 
HETATM   16  C   UNL     1      12.007   0.084   7.752  1.00  0.00     0.169 C 
HETATM   17  O   UNL     1      12.247  -1.251   7.315  1.00  0.00    -0.391 OA
HETATM   18  C   UNL     1      11.065  -1.883   6.820  1.00  0.00     0.169 C 
HETATM   19  C   UNL     1       9.990  -1.943   7.896  1.00  0.00     0.051 C 
ENDBRANCH  11  14
ENDBRANCH   4   8
BRANCH   1  20
HETATM   20  O   UNL     1       2.759   0.828   3.015  1.00  0.00    -0.327 OA
BRANCH  20  21
HETATM   21  C   UNL     1       2.543   1.966   2.174  1.00  0.00     0.294 C 
BRANCH  21  22
HETATM   22  C   UNL     1       2.031   3.218   2.879  1.00  0.00     0.408 C 
HETATM   23  F   UNL     1       1.790   3.046   4.196  1.00  0.00    -0.169 F 
HETATM   24  F   UNL     1       0.855   3.611   2.318  1.00  0.00    -0.169 F 
HETATM   25  F   UNL     1       2.887   4.257   2.737  1.00  0.00    -0.169 F 
ENDBRANCH  21  22
ENDBRANCH  20  21
ENDBRANCH   1  20
TORSDOF 5
