REMARK  5 active torsions:
REMARK  status: ('A' for Active; 'I' for Inactive)
REMARK    1  A    between atoms: C_8  and  N_9 
REMARK       I    between atoms: N_9  and  C_10 
REMARK       I    between atoms: C_10  and  N_12 
REMARK    2  A    between atoms: N_12  and  C_13 
REMARK    3  A    between atoms: C_13  and  C_18 
REMARK       I    between atoms: C_18  and  N_20 
REMARK    4  A    between atoms: N_20  and  C_21 
REMARK    5  A    between atoms: C_21  and  C_22 
ROOT
HETATM    1  N   UNL     1       2.300  -2.593  -0.483  1.00  0.00    -0.307 N 
HETATM    2  C   UNL     1       0.924  -2.588  -0.597  1.00  0.00     0.321 C 
HETATM    3  O   UNL     1       0.251  -1.678  -1.072  1.00  0.00    -0.247 OA
HETATM    4  N   UNL     1       0.323  -3.709  -0.054  1.00  0.00    -0.325 N 
HETATM    5  H   UNL     1       2.737  -3.458  -0.208  1.00  0.00     0.170 HD
HETATM    6  H   UNL     1       0.784  -4.571  -0.310  1.00  0.00     0.165 HD
ENDROOT
BRANCH   4   7
HETATM    7  C   UNL     1      -1.160  -3.788  -0.106  1.00  0.00     0.115 C 
HETATM    8  C   UNL     1      -1.829  -2.565   0.559  1.00  0.00     0.041 C 
HETATM    9  C   UNL     1      -3.040  -3.070   1.342  1.00  0.00     0.003 C 
HETATM   10  C   UNL     1      -3.086  -4.575   1.148  1.00  0.00     0.003 C 
HETATM   11  C   UNL     1      -1.669  -4.964   0.747  1.00  0.00     0.041 C 
BRANCH   7  12
HETATM   12  C   UNL     1      -1.559  -4.061  -1.599  1.00  0.00     0.246 C 
HETATM   13  O   UNL     1      -0.809  -4.697  -2.345  1.00  0.00    -0.271 OA
HETATM   14  N   UNL     1      -2.841  -3.714  -1.973  1.00  0.00    -0.359 N 
HETATM   15  H   UNL     1      -3.326  -3.007  -1.440  1.00  0.00     0.162 HD
BRANCH  14  16
HETATM   16  C   UNL     1      -3.334  -3.965  -3.307  1.00  0.00     0.127 C 
BRANCH  16  17
HETATM   17  C   UNL     1      -4.827  -4.097  -3.268  1.00  0.00     0.003 A 
HETATM   18  C   UNL     1      -5.487  -5.174  -2.439  1.00  0.00     0.007 A 
HETATM   19  C   UNL     1      -5.502  -5.270  -3.937  1.00  0.00     0.007 A 
ENDBRANCH  16  17
ENDBRANCH  14  16
ENDBRANCH   7  12
ENDBRANCH   4   7
BRANCH   1  20
HETATM   20  C   UNL     1       3.141  -1.497  -0.832  1.00  0.00     0.057 A 
HETATM   21  C   UNL     1       4.535  -1.649  -0.955  1.00  0.00    -0.033 A 
HETATM   22  C   UNL     1       5.268  -2.936  -0.715  1.00  0.00     0.050 C 
HETATM   23  C   UNL     1       5.307  -0.521  -1.300  1.00  0.00     0.026 A 
HETATM   24  C   UNL     1       4.688   0.697  -1.516  1.00  0.00     0.088 A 
HETATM   25  N   UNL     1       3.366   0.882  -1.390  1.00  0.00    -0.373 N 
HETATM   26  C   UNL     1       2.634  -0.209  -1.052  1.00  0.00     0.117 A 
ATOM     27  HN  UNL     1       2.934   1.794  -1.540  1.00  0.00     0.164 HD
ENDBRANCH   1  20
TORSDOF 5
