REMARK  4 active torsions:
REMARK  status: ('A' for Active; 'I' for Inactive)
REMARK       I    between atoms: C_2  and  N_3 
REMARK       I    between atoms: C_2  and  N_12 
REMARK    1  A    between atoms: N_3  and  C_4 
REMARK    2  A    between atoms: C_4  and  C_5 
REMARK    3  A    between atoms: C_5  and  C_6 
REMARK    4  A    between atoms: N_12  and  C_13 
ROOT
HETATM    1  O   UNL     1       1.153   0.204   0.206  1.00  0.00    -0.247 OA
HETATM    2  C   UNL     1       2.371   0.080   0.126  1.00  0.00     0.322 C 
HETATM    3  N   UNL     1       2.985  -1.117  -0.084  1.00  0.00    -0.343 N 
HETATM    4  N   UNL     1       3.168   1.169   0.309  1.00  0.00    -0.288 N 
HETATM    5  H   UNL     1       3.969  -1.101  -0.333  1.00  0.00     0.164 HD
HETATM    6  H   UNL     1       2.689   2.021   0.551  1.00  0.00     0.172 HD
ENDROOT
BRANCH   3   7
HETATM    7  C   UNL     1       2.243  -2.349  -0.269  1.00  0.00     0.128 C 
BRANCH   7   8
HETATM    8  C   UNL     1       3.185  -3.542  -0.455  1.00  0.00     0.053 C 
BRANCH   8   9
HETATM    9  C   UNL     1       2.487  -4.877  -0.637  1.00  0.00    -0.082 A 
HETATM   10  C   UNL     1       2.709  -5.892   0.211  1.00  0.00    -0.024 A 
HETATM   11  C   UNL     1       2.139  -7.258   0.072  1.00  0.00     0.027 A 
HETATM   12  C   UNL     1       1.180  -7.501  -1.089  1.00  0.00     0.004 A 
HETATM   13  C   UNL     1       0.913  -6.359  -2.065  1.00  0.00     0.005 A 
HETATM   14  C   UNL     1       1.616  -5.019  -1.849  1.00  0.00     0.034 A 
ENDBRANCH   8   9
ENDBRANCH   7   8
ENDBRANCH   3   7
BRANCH   4  15
HETATM   15  C   UNL     1       4.532   1.176   0.269  1.00  0.00     0.168 A 
HETATM   16  N   UNL     1       5.354   0.211  -0.075  1.00  0.00    -0.279 N 
HETATM   17  N   UNL     1       6.675   0.593   0.060  1.00  0.00    -0.303 N 
ATOM     18  HN  UNL     1       5.054  -0.708  -0.402  1.00  0.00     0.189 HD
HETATM   19  C   UNL     1       6.778   1.827   0.508  1.00  0.00     0.160 A 
ATOM     20  HN  UNL     1       7.471  -0.006  -0.160  1.00  0.00     0.186 HD
HETATM   21  S   UNL     1       5.279   2.628   0.753  1.00  0.00    -0.046 SA
ENDBRANCH   4  15
TORSDOF 4
