REMARK  4 active torsions:
REMARK  status: ('A' for Active; 'I' for Inactive)
REMARK    1  A    between atoms: C_2  and  C_3 
REMARK    2  A    between atoms: C_2  and  C_19 
REMARK    3  A    between atoms: C_3  and  N_4 
REMARK       I    between atoms: N_4  and  C_5 
REMARK       I    between atoms: C_5  and  N_7 
REMARK    4  A    between atoms: N_7  and  C_8 
ROOT
HETATM    1  N   UNL     1       2.017  -3.682  -0.604  1.00  0.00    -0.342 N 
HETATM    2  C   UNL     1       1.832  -4.332  -1.807  1.00  0.00     0.316 C 
HETATM    3  O   UNL     1       0.966  -5.167  -2.011  1.00  0.00    -0.247 OA
HETATM    4  N   UNL     1       2.760  -3.946  -2.740  1.00  0.00    -0.338 N 
HETATM    5  H   UNL     1       2.972  -3.411  -0.419  1.00  0.00     0.164 HD
HETATM    6  H   UNL     1       3.235  -3.075  -2.551  1.00  0.00     0.164 HD
ENDROOT
BRANCH   1   7
HETATM    7  C   UNL     1       1.245  -4.137   0.547  1.00  0.00     0.133 C 
BRANCH   7   8
HETATM    8  C   UNL     1       1.490  -3.347   1.861  1.00  0.00     0.032 C 
HETATM    9  C   UNL     1       0.965  -1.910   1.731  1.00  0.00     0.017 C 
BRANCH   8  10
HETATM   10  C   UNL     1       2.918  -3.469   2.388  1.00  0.00    -0.050 A 
HETATM   11  C   UNL     1       3.719  -2.365   2.703  1.00  0.00     0.024 A 
HETATM   12  C   UNL     1       4.997  -2.573   3.208  1.00  0.00     0.088 A 
HETATM   13  N   UNL     1       5.534  -3.791   3.418  1.00  0.00    -0.375 N 
HETATM   14  C   UNL     1       4.750  -4.848   3.132  1.00  0.00     0.088 A 
ATOM     15  HN  UNL     1       6.483  -3.906   3.774  1.00  0.00     0.164 HD
HETATM   16  C   UNL     1       3.459  -4.740   2.633  1.00  0.00     0.024 A 
ENDBRANCH   8  10
ENDBRANCH   7   8
ENDBRANCH   1   7
BRANCH   4  17
HETATM   17  C   UNL     1       2.830  -4.511  -4.087  1.00  0.00     0.091 C 
HETATM   18  C   UNL     1       4.209  -4.272  -4.694  1.00  0.00     0.051 C 
HETATM   19  C   UNL     1       4.366  -2.837  -5.178  1.00  0.00     0.171 C 
HETATM   20  O   UNL     1       3.318  -2.423  -6.036  1.00  0.00    -0.380 OA
HETATM   21  C   UNL     1       1.969  -2.585  -5.572  1.00  0.00     0.062 C 
HETATM   22  C   UNL     1       1.105  -2.282  -6.825  1.00  0.00     0.038 C 
HETATM   23  C   UNL     1       1.566  -1.574  -4.479  1.00  0.00     0.038 C 
HETATM   24  C   UNL     1       1.748  -4.027  -5.076  1.00  0.00     0.063 C 
HETATM   25  C   UNL     1       1.251  -0.821  -7.286  1.00  0.00     0.003 C 
HETATM   26  C   UNL     1       0.932   0.172  -6.173  1.00  0.00     0.000 C 
HETATM   27  C   UNL     1       1.723  -0.123  -4.908  1.00  0.00     0.003 C 
ENDBRANCH   4  17
TORSDOF 4
