REMARK  5 active torsions:
REMARK  status: ('A' for Active; 'I' for Inactive)
REMARK    1  A    between atoms: C_2  and  C_3 
REMARK       I    between atoms: C_2  and  N_9 
REMARK    2  A    between atoms: C_3  and  O_4 
REMARK    3  A    between atoms: O_4  and  C_5 
REMARK    4  A    between atoms: C_5  and  C_6 
REMARK    5  A    between atoms: N_9  and  C_10 
ROOT
HETATM    1  O   UNL     1       2.430  -0.725  -1.028  1.00  0.00    -0.271 OA
HETATM    2  C   UNL     1       2.278   0.139  -0.154  1.00  0.00     0.246 C 
HETATM    3  N   UNL     1       1.477   1.205  -0.437  1.00  0.00    -0.310 N 
HETATM    4  H   UNL     1       0.988   1.118  -1.317  1.00  0.00     0.170 HD
ENDROOT
BRANCH   3   5
HETATM    5  C   UNL     1       1.249   2.348   0.334  1.00  0.00     0.123 A 
HETATM    6  C   UNL     1       0.169   3.167   0.016  1.00  0.00     0.136 A 
HETATM    7  N   UNL     1      -0.150   4.288   0.711  1.00  0.00    -0.371 N 
HETATM    8  C   UNL     1       0.671   4.567   1.747  1.00  0.00     0.104 A 
ATOM      9  HN  UNL     1      -0.948   4.875   0.470  1.00  0.00     0.164 HD
HETATM   10  C   UNL     1       1.761   3.776   2.054  1.00  0.00     0.106 A 
HETATM   11  N   UNL     1       2.076   2.668   1.347  1.00  0.00    -0.350 N 
ATOM     12  HN  UNL     1       2.897   2.104   1.569  1.00  0.00     0.166 HD
ENDBRANCH   3   5
BRANCH   2  13
HETATM   13  C   UNL     1       2.896  -0.040   1.239  1.00  0.00     0.270 C 
BRANCH  13  14
HETATM   14  O   UNL     1       1.978  -0.050   2.326  1.00  0.00    -0.382 OA
BRANCH  14  15
HETATM   15  C   UNL     1       1.058  -1.135   2.263  1.00  0.00     0.172 C 
BRANCH  15  16
HETATM   16  C   UNL     1       0.116  -1.014   3.419  1.00  0.00     0.009 A 
HETATM   17  C   UNL     1      -1.013  -2.001   3.565  1.00  0.00     0.007 A 
HETATM   18  C   UNL     1      -1.313  -0.569   3.219  1.00  0.00     0.007 A 
ENDBRANCH  15  16
ENDBRANCH  14  15
ENDBRANCH  13  14
ENDBRANCH   2  13
TORSDOF 5
