REMARK  7 active torsions:
REMARK  status: ('A' for Active; 'I' for Inactive)
REMARK    1  A    between atoms: C_4  and  C_22 
REMARK    2  A    between atoms: C_7  and  O_8 
REMARK    3  A    between atoms: O_8  and  C_9 
REMARK    4  A    between atoms: C_9  and  C_10 
REMARK    5  A    between atoms: C_10  and  O_11 
REMARK    6  A    between atoms: C_10  and  C_12 
REMARK    7  A    between atoms: C_12  and  N_13 
ROOT
HETATM    1  C   UNL     1       1.204  -2.492  -0.629  1.00  0.00     0.209 C 
ENDROOT
BRANCH   1   2
HETATM    2  O   UNL     1       2.461  -2.245   0.009  1.00  0.00    -0.348 OA
BRANCH   2   3
HETATM    3  C   UNL     1       3.025  -1.007  -0.138  1.00  0.00     0.074 A 
HETATM    4  C   UNL     1       2.376   0.233  -0.099  1.00  0.00    -0.028 A 
HETATM    5  C   UNL     1       0.896   0.427   0.067  1.00  0.00     0.051 C 
HETATM    6  C   UNL     1       3.150   1.406  -0.195  1.00  0.00     0.017 A 
HETATM    7  C   UNL     1       4.547   1.397  -0.337  1.00  0.00    -0.050 A 
HETATM    8  C   UNL     1       5.172   0.144  -0.350  1.00  0.00     0.011 A 
HETATM    9  C   UNL     1       4.423  -1.035  -0.240  1.00  0.00     0.038 A 
BRANCH   7  10
HETATM   10  C   UNL     1       5.357   2.696  -0.485  1.00  0.00    -0.024 C 
HETATM   11  C   UNL     1       4.479   3.971  -0.471  1.00  0.00     0.019 C 
HETATM   12  C   UNL     1       6.374   2.830   0.666  1.00  0.00     0.019 C 
HETATM   13  C   UNL     1       6.111   2.682  -1.831  1.00  0.00     0.019 C 
ENDBRANCH   7  10
ENDBRANCH   2   3
ENDBRANCH   1   2
BRANCH   1  14
HETATM   14  C   UNL     1       0.854  -3.982  -0.493  1.00  0.00     0.161 C 
BRANCH  14  15
HETATM   15  O   UNL     1       1.777  -4.770  -1.251  1.00  0.00    -0.392 OA
HETATM   16  H   UNL     1       2.653  -4.665  -0.834  1.00  0.00     0.210 HD
ENDBRANCH  14  15
BRANCH  14  17
HETATM   17  C   UNL     1       0.863  -4.383   0.994  1.00  0.00     0.171 C 
BRANCH  17  18
HETATM   18  N   UNL     1       0.447  -5.759   1.229  1.00  0.00    -0.264 N 
HETATM   19  C   UNL     1       1.433  -6.713   1.388  1.00  0.00     0.252 C 
HETATM   20  O   UNL     1       2.639  -6.515   1.252  1.00  0.00    -0.268 OA
HETATM   21  C   UNL     1       0.975  -8.053   1.785  1.00  0.00     0.092 C 
HETATM   22  C   UNL     1      -0.331  -8.314   1.816  1.00  0.00     0.100 C 
HETATM   23  N   UNL     1      -1.264  -7.359   1.494  1.00  0.00    -0.314 N 
HETATM   24  C   UNL     1      -2.671  -7.722   1.428  1.00  0.00     0.160 C 
HETATM   25  C   UNL     1      -0.915  -6.045   1.183  1.00  0.00     0.331 C 
HETATM   26  O   UNL     1      -1.757  -5.192   0.893  1.00  0.00    -0.246 OA
ENDBRANCH  17  18
ENDBRANCH  14  17
ENDBRANCH   1  14
TORSDOF 7
