REMARK  8 active torsions:
REMARK  status: ('A' for Active; 'I' for Inactive)
REMARK    1  A    between atoms: N_1  and  C_2 
REMARK    2  A    between atoms: C_4  and  O_12 
REMARK    3  A    between atoms: C_9  and  O_13 
REMARK    4  A    between atoms: C_11  and  C_19 
REMARK    5  A    between atoms: O_12  and  C_15 
REMARK    6  A    between atoms: O_13  and  C_16 
REMARK    7  A    between atoms: C_17  and  O_21 
REMARK    8  A    between atoms: C_19  and  O_21 
ROOT
HETATM    1  C   UNL     1      -1.405  -2.480  -0.251  1.00  0.00     0.265 C 
HETATM    2  C   UNL     1      -2.412  -2.451   0.914  1.00  0.00     0.213 C 
HETATM    3  O   UNL     1      -0.674  -3.707  -0.115  1.00  0.00    -0.353 OA
HETATM    4  C   UNL     1      -2.567  -3.935   1.286  1.00  0.00     0.197 C 
HETATM    5  C   UNL     1      -1.661  -4.685   0.295  1.00  0.00     0.180 C 
ENDROOT
BRANCH   1   6
HETATM    6  N   UNL     1      -0.517  -1.327  -0.345  1.00  0.00    -0.277 N 
HETATM    7  C   UNL     1      -0.701  -0.478  -1.437  1.00  0.00     0.331 A 
HETATM    8  N   UNL     1      -0.023   0.711  -1.398  1.00  0.00    -0.273 N 
HETATM    9  O   UNL     1      -1.433  -0.730  -2.393  1.00  0.00    -0.246 OA
HETATM   10  C   UNL     1       0.826   1.129  -0.408  1.00  0.00     0.289 A 
HETATM   11  H   UNL     1      -0.186   1.349  -2.161  1.00  0.00     0.173 HD
HETATM   12  C   UNL     1       1.011   0.164   0.693  1.00  0.00     0.199 A 
HETATM   13  O   UNL     1       1.392   2.215  -0.449  1.00  0.00    -0.265 OA
HETATM   14  C   UNL     1       0.348  -0.993   0.685  1.00  0.00     0.146 A 
HETATM   15  F   UNL     1       1.841   0.519   1.692  1.00  0.00    -0.199 F 
ENDBRANCH   1   6
BRANCH   2  16
HETATM   16  O   UNL     1      -3.657  -1.865   0.496  1.00  0.00    -0.309 OA
BRANCH  16  17
HETATM   17  C   UNL     1      -3.683  -0.503   0.506  1.00  0.00     0.255 C 
HETATM   18  O   UNL     1      -2.766   0.220   0.864  1.00  0.00    -0.266 OA
HETATM   19  C   UNL     1      -4.982  -0.013  -0.048  1.00  0.00     0.126 C 
ENDBRANCH  16  17
ENDBRANCH   2  16
BRANCH   4  20
HETATM   20  O   UNL     1      -3.921  -4.399   1.268  1.00  0.00    -0.311 OA
BRANCH  20  21
HETATM   21  C   UNL     1      -4.679  -4.051   2.340  1.00  0.00     0.255 C 
HETATM   22  O   UNL     1      -4.277  -3.418   3.306  1.00  0.00    -0.266 OA
HETATM   23  C   UNL     1      -6.091  -4.524   2.167  1.00  0.00     0.126 C 
ENDBRANCH  20  21
ENDBRANCH   4  20
BRANCH   5  24
HETATM   24  C   UNL     1      -2.389  -5.295  -0.924  1.00  0.00     0.213 C 
BRANCH  24  25
HETATM   25  O   UNL     1      -3.370  -6.283  -0.563  1.00  0.00    -0.319 OA
BRANCH  25  26
HETATM   26  C   UNL     1      -2.898  -7.513  -0.241  1.00  0.00     0.254 C 
HETATM   27  O   UNL     1      -1.720  -7.832  -0.239  1.00  0.00    -0.266 OA
HETATM   28  C   UNL     1      -4.017  -8.426   0.168  1.00  0.00     0.126 C 
ENDBRANCH  25  26
ENDBRANCH  24  25
ENDBRANCH   5  24
TORSDOF 8
