REMARK  2 active torsions:
REMARK  status: ('A' for Active; 'I' for Inactive)
REMARK    1  A    between atoms: C_2  and  N_8 
REMARK       I    between atoms: N_8  and  C_9 
REMARK       I    between atoms: C_9  and  N_11 
REMARK    2  A    between atoms: N_11  and  C_12 
ROOT
HETATM    1  N   UNL     1       3.272   0.248   1.377  1.00  0.00    -0.334 N 
HETATM    2  C   UNL     1       3.006  -0.463   2.527  1.00  0.00     0.321 C 
HETATM    3  O   UNL     1       2.175  -1.357   2.601  1.00  0.00    -0.247 OA
HETATM    4  N   UNL     1       3.838  -0.084   3.561  1.00  0.00    -0.306 N 
HETATM    5  H   UNL     1       3.581   1.199   1.533  1.00  0.00     0.165 HD
HETATM    6  H   UNL     1       4.790   0.092   3.262  1.00  0.00     0.171 HD
ENDROOT
BRANCH   1   7
HETATM    7  C   UNL     1       2.621  -0.059   0.082  1.00  0.00     0.035 C 
HETATM    8  C   UNL     1       1.088   0.055   0.221  1.00  0.00     0.039 C 
HETATM    9  C   UNL     1       3.112   0.959  -0.974  1.00  0.00     0.057 C 
HETATM   10  C   UNL     1       2.714   0.557  -2.391  1.00  0.00     0.170 C 
HETATM   11  O   UNL     1       3.193  -0.748  -2.698  1.00  0.00    -0.391 OA
HETATM   12  C   UNL     1       2.656  -1.744  -1.833  1.00  0.00     0.170 C 
HETATM   13  C   UNL     1       3.043  -1.472  -0.386  1.00  0.00     0.057 C 
ENDBRANCH   1   7
BRANCH   4  14
HETATM   14  C   UNL     1       3.700  -0.669   4.844  1.00  0.00     0.077 A 
HETATM   15  C   UNL     1       2.454  -0.821   5.450  1.00  0.00     0.050 A 
HETATM   16  C   UNL     1       2.395  -1.437   6.691  1.00  0.00     0.090 A 
HETATM   17  N   UNL     1       3.480  -1.911   7.349  1.00  0.00    -0.372 N 
HETATM   18  C   UNL     1       4.676  -1.747   6.735  1.00  0.00     0.132 A 
ATOM     19  HN  UNL     1       3.401  -2.367   8.258  1.00  0.00     0.164 HD
HETATM   20  C   UNL     1       4.833  -1.119   5.513  1.00  0.00     0.158 A 
HETATM   21  F   UNL     1       6.047  -1.003   4.955  1.00  0.00    -0.202 F 
ENDBRANCH   4  14
TORSDOF 2
