REMARK  5 active torsions:
REMARK  status: ('A' for Active; 'I' for Inactive)
REMARK    1  A    between atoms: O_2  and  C_3 
REMARK    2  A    between atoms: C_3  and  C_4 
REMARK    3  A    between atoms: C_4  and  N_5 
REMARK    4  A    between atoms: C_8  and  C_13 
REMARK       I    between atoms: C_13  and  N_15 
REMARK    5  A    between atoms: N_15  and  C_16 
ROOT
HETATM    1  C   UNL     1       6.834  -3.011  -4.630  1.00  0.00     0.269 C 
HETATM    2  O   UNL     1       7.462  -3.930  -5.132  1.00  0.00    -0.266 OA
HETATM    3  N   UNL     1       6.420  -1.873  -5.285  1.00  0.00    -0.351 N 
HETATM    4  H   UNL     1       5.987  -1.162  -4.703  1.00  0.00     0.163 HD
ENDROOT
BRANCH   1   5
HETATM    5  C   UNL     1       6.398  -3.088  -3.162  1.00  0.00     0.116 C 
HETATM    6  N   UNL     1       5.815  -2.060  -2.618  1.00  0.00    -0.290 N 
HETATM    7  N   UNL     1       5.447  -2.190  -1.283  1.00  0.00    -0.255 N 
ATOM      8  HN  UNL     1       5.637  -1.204  -3.143  1.00  0.00     0.187 HD
HETATM    9  C   UNL     1       5.767  -3.288  -0.489  1.00  0.00     0.262 C 
HETATM   10  C   UNL     1       6.369  -4.440  -1.189  1.00  0.00     0.078 C 
HETATM   11  O   UNL     1       5.584  -3.373   0.721  1.00  0.00    -0.267 OA
HETATM   12  C   UNL     1       6.655  -4.375  -2.488  1.00  0.00     0.042 C 
BRANCH   7  13
HETATM   13  C   UNL     1       4.638  -1.115  -0.709  1.00  0.00     0.178 C 
BRANCH  13  14
HETATM   14  C   UNL     1       3.258  -1.025  -1.360  1.00  0.00     0.189 C 
BRANCH  14  15
HETATM   15  O   UNL     1       2.534  -2.247  -1.181  1.00  0.00    -0.394 OA
HETATM   16  C   UNL     1       1.268  -2.210  -1.825  1.00  0.00     0.201 C 
ENDBRANCH  14  15
ENDBRANCH  13  14
ENDBRANCH   7  13
ENDBRANCH   1   5
BRANCH   3  17
HETATM   17  C   UNL     1       6.587  -1.671  -6.715  1.00  0.00     0.089 C 
HETATM   18  C   UNL     1       6.086  -0.302  -7.194  1.00  0.00     0.066 C 
HETATM   19  C   UNL     1       4.551  -0.190  -7.357  1.00  0.00     0.153 C 
HETATM   20  C   UNL     1       3.845   0.090  -6.016  1.00  0.00     0.048 C 
HETATM   21  C   UNL     1       4.249   1.043  -8.246  1.00  0.00     0.048 C 
HETATM   22  N   UNL     1       3.963  -1.348  -8.058  1.00  0.00     0.101 N 
HETATM   23  C   UNL     1       4.410  -2.693  -7.652  1.00  0.00     0.153 C 
HETATM   24  H   UNL     1       4.145  -1.245  -9.059  1.00  0.00     0.317 HD
HETATM   25  C   UNL     1       3.716  -3.164  -6.362  1.00  0.00     0.048 C 
HETATM   26  C   UNL     1       3.951  -3.678  -8.756  1.00  0.00     0.048 C 
HETATM   27  C   UNL     1       5.946  -2.765  -7.579  1.00  0.00     0.066 C 
ENDBRANCH   3  17
TORSDOF 5
