REMARK  6 active torsions:
REMARK  status: ('A' for Active; 'I' for Inactive)
REMARK       I    between atoms: C_2  and  N_3 
REMARK    1  A    between atoms: C_2  and  C_13 
REMARK    2  A    between atoms: N_3  and  C_4 
REMARK    3  A    between atoms: C_4  and  C_5 
REMARK    4  A    between atoms: C_5  and  C_6 
REMARK    5  A    between atoms: N_15  and  C_16 
REMARK    6  A    between atoms: C_16  and  C_17 
ROOT
HETATM    1  O   UNL     1       2.756  -0.805   0.814  1.00  0.00    -0.273 OA
HETATM    2  C   UNL     1       2.195   0.001   0.082  1.00  0.00     0.223 C 
HETATM    3  N   UNL     1       0.827   0.204   0.102  1.00  0.00    -0.360 N 
HETATM    4  H   UNL     1       0.403   0.793  -0.605  1.00  0.00     0.162 HD
ENDROOT
BRANCH   2   5
HETATM    5  C   UNL     1       2.926   0.844  -0.946  1.00  0.00     0.104 C 
HETATM    6  C   UNL     1       4.437   0.658  -0.887  1.00  0.00     0.140 C 
HETATM    7  N   UNL     1       4.973   1.939  -1.284  1.00  0.00    -0.351 N 
HETATM    8  C   UNL     1       4.048   2.954  -1.112  1.00  0.00     0.220 C 
HETATM    9  O   UNL     1       4.245   4.154  -1.213  1.00  0.00    -0.273 OA
HETATM   10  C   UNL     1       2.735   2.340  -0.705  1.00  0.00     0.118 C 
BRANCH   7  11
HETATM   11  C   UNL     1       6.402   2.189  -1.328  1.00  0.00     0.130 C 
BRANCH  11  12
HETATM   12  C   UNL     1       7.030   2.078  -2.685  1.00  0.00     0.004 A 
HETATM   13  C   UNL     1       6.478   2.847  -3.860  1.00  0.00     0.007 A 
HETATM   14  C   UNL     1       6.437   1.343  -3.863  1.00  0.00     0.007 A 
ENDBRANCH  11  12
ENDBRANCH   7  11
ENDBRANCH   2   5
BRANCH   3  15
HETATM   15  C   UNL     1      -0.040  -0.557   0.993  1.00  0.00     0.128 C 
BRANCH  15  16
HETATM   16  C   UNL     1      -1.513  -0.198   0.811  1.00  0.00     0.076 C 
BRANCH  16  17
HETATM   17  C   UNL     1      -2.406  -0.959   1.756  1.00  0.00     0.010 A 
HETATM   18  C   UNL     1      -2.716  -0.443   3.013  1.00  0.00     0.025 A 
HETATM   19  C   UNL     1      -3.554  -1.173   3.852  1.00  0.00     0.003 A 
HETATM   20  C   UNL     1      -4.056  -2.394   3.419  1.00  0.00     0.017 A 
HETATM   21  C   UNL     1      -3.694  -2.838   2.160  1.00  0.00     0.088 A 
HETATM   22  N   UNL     1      -2.882  -2.151   1.323  1.00  0.00    -0.369 N 
ATOM     23  HN  UNL     1      -2.638  -2.516   0.402  1.00  0.00     0.165 HD
ENDBRANCH  16  17
ENDBRANCH  15  16
ENDBRANCH   3  15
TORSDOF 6
