REMARK  2 active torsions:
REMARK  status: ('A' for Active; 'I' for Inactive)
REMARK       I    between atoms: C_2  and  N_3 
REMARK    1  A    between atoms: C_2  and  C_11 
REMARK    2  A    between atoms: N_3  and  C_4 
ROOT
HETATM    1  O   UNL     1       1.004   0.239   0.141  1.00  0.00    -0.265 OA
HETATM    2  C   UNL     1       2.221   0.087   0.120  1.00  0.00     0.281 C 
HETATM    3  N   UNL     1       2.879  -1.128   0.181  1.00  0.00    -0.321 N 
HETATM    4  H   UNL     1       3.886  -1.091   0.285  1.00  0.00     0.169 HD
ENDROOT
BRANCH   3   5
HETATM    5  C   UNL     1       2.245  -2.395   0.218  1.00  0.00     0.037 A 
HETATM    6  C   UNL     1       0.901  -2.581  -0.105  1.00  0.00     0.046 A 
HETATM    7  C   UNL     1       0.354  -3.850  -0.009  1.00  0.00     0.090 A 
HETATM    8  N   UNL     1       1.049  -4.937   0.378  1.00  0.00    -0.375 N 
HETATM    9  C   UNL     1       2.351  -4.741   0.671  1.00  0.00     0.090 A 
ATOM     10  HN  UNL     1       0.615  -5.857   0.446  1.00  0.00     0.164 HD
HETATM   11  C   UNL     1       2.993  -3.511   0.593  1.00  0.00     0.046 A 
ENDBRANCH   3   5
BRANCH   2  12
HETATM   12  C   UNL     1       3.130   1.285   0.048  1.00  0.00     0.159 C 
HETATM   13  C   UNL     1       2.520   2.476   0.011  1.00  0.00     0.177 C 
HETATM   14  O   UNL     1       3.115   3.692  -0.089  1.00  0.00    -0.358 OA
HETATM   15  C   UNL     1       4.531   3.670  -0.153  1.00  0.00     0.201 C 
HETATM   16  C   UNL     1       5.239   2.309  -0.223  1.00  0.00     0.202 C 
HETATM   17  O   UNL     1       4.491   1.115   0.014  1.00  0.00    -0.342 OA
ENDBRANCH   2  12
TORSDOF 2
