REMARK  4 active torsions:
REMARK  status: ('A' for Active; 'I' for Inactive)
REMARK    1  A    between atoms: C_2  and  O_4 
REMARK    2  A    between atoms: O_4  and  C_5 
REMARK    3  A    between atoms: C_8  and  N_9 
REMARK    4  A    between atoms: N_9  and  C_10 
ROOT
HETATM    1  C   UNL     1       4.475  -1.079   0.280  1.00  0.00     0.090 A 
HETATM    2  C   UNL     1       4.523  -2.210  -0.521  1.00  0.00     0.041 A 
HETATM    3  C   UNL     1       5.750  -2.610  -1.059  1.00  0.00     0.045 A 
HETATM    4  C   UNL     1       6.901  -1.862  -0.816  1.00  0.00     0.080 A 
HETATM    5  N   UNL     1       6.851  -0.730  -0.096  1.00  0.00    -0.354 N 
ATOM      6  HN  UNL     1       7.685  -0.160   0.047  1.00  0.00     0.166 HD
HETATM    7  C   UNL     1       5.655  -0.368   0.436  1.00  0.00     0.126 A 
ENDROOT
BRANCH   4   8
HETATM    8  N   UNL     1       8.115  -2.342  -1.313  1.00  0.00    -0.272 NA
HETATM    9  H   UNL     1       8.302  -3.256  -0.917  1.00  0.00     0.129 HD
BRANCH   8  10
HETATM   10  C   UNL     1       9.270  -1.444  -1.329  1.00  0.00     0.093 C 
HETATM   11  C   UNL     1      10.534  -2.221  -1.758  1.00  0.00     0.054 C 
HETATM   12  C   UNL     1      11.537  -1.849  -0.664  1.00  0.00     0.123 C 
HETATM   13  C   UNL     1      11.220  -2.572   0.642  1.00  0.00     0.034 C 
HETATM   14  O   UNL     1      11.132  -0.505  -0.334  1.00  0.00    -0.379 OA
HETATM   15  C   UNL     1       9.953  -1.853   1.104  1.00  0.00     0.036 C 
HETATM   16  C   UNL     1       9.746  -0.821  -0.004  1.00  0.00     0.140 C 
ENDBRANCH   8  10
ENDBRANCH   4   8
BRANCH   1  17
HETATM   17  O   UNL     1       3.377  -0.591   0.922  1.00  0.00    -0.289 OA
BRANCH  17  18
HETATM   18  C   UNL     1       2.366  -1.541   1.214  1.00  0.00     0.505 C 
HETATM   19  F   UNL     1       1.623  -1.040   2.232  1.00  0.00    -0.184 F 
HETATM   20  F   UNL     1       1.544  -1.644   0.142  1.00  0.00    -0.184 F 
ENDBRANCH  17  18
ENDBRANCH   1  17
TORSDOF 4
