REMARK  3 active torsions:
REMARK  status: ('A' for Active; 'I' for Inactive)
REMARK    1  A    between atoms: C_2  and  C_3 
REMARK    2  A    between atoms: C_2  and  N_11 
REMARK    3  A    between atoms: C_3  and  N_4 
REMARK       I    between atoms: N_11  and  C_12 
REMARK       I    between atoms: C_12  and  N_14 
ROOT
HETATM    1  N   UNL     1       3.111   1.262  -0.657  1.00  0.00    -0.337 N 
HETATM    2  C   UNL     1       4.459   1.399  -0.881  1.00  0.00     0.318 C 
HETATM    3  O   UNL     1       5.258   0.586  -0.425  1.00  0.00    -0.247 OA
HETATM    4  N   UNL     1       4.828   2.470  -1.684  1.00  0.00    -0.334 N 
HETATM    5  C   UNL     1       3.909   3.445  -2.280  1.00  0.00     0.127 C 
HETATM    6  C   UNL     1       4.091   4.818  -1.651  1.00  0.00     0.021 C 
HETATM    7  C   UNL     1       5.153   5.712  -2.300  1.00  0.00     0.010 C 
HETATM    8  C   UNL     1       6.488   5.073  -2.765  1.00  0.00    -0.046 C 
HETATM    9  C   UNL     1       6.426   4.679  -4.257  1.00  0.00     0.015 C 
HETATM   10  C   UNL     1       7.583   6.168  -2.671  1.00  0.00     0.015 C 
HETATM   11  C   UNL     1       6.921   3.891  -1.863  1.00  0.00     0.028 C 
HETATM   12  C   UNL     1       6.231   2.544  -2.096  1.00  0.00     0.128 C 
HETATM   13  H   UNL     1       2.630   2.140  -0.541  1.00  0.00     0.164 HD
ENDROOT
BRANCH   1  14
HETATM   14  C   UNL     1       2.568   0.150   0.139  1.00  0.00     0.102 C 
HETATM   15  C   UNL     1       1.057   0.360   0.276  1.00  0.00     0.034 C 
BRANCH  14  16
HETATM   16  C   UNL     1       2.899  -1.226  -0.478  1.00  0.00     0.174 C 
BRANCH  16  17
HETATM   17  N   UNL     1       2.436  -2.344   0.314  1.00  0.00    -0.285 N 
HETATM   18  C   UNL     1       3.088  -2.977   1.324  1.00  0.00     0.201 A 
HETATM   19  N   UNL     1       2.351  -3.971   1.765  1.00  0.00    -0.346 N 
HETATM   20  C   UNL     1       1.247  -3.913   0.963  1.00  0.00     0.198 A 
ATOM     21  HN  UNL     1       2.554  -4.625   2.521  1.00  0.00     0.167 HD
HETATM   22  N   UNL     1       1.251  -2.931   0.059  1.00  0.00    -0.293 N 
ATOM     23  HN  UNL     1       0.546  -2.690  -0.638  1.00  0.00     0.188 HD
ENDBRANCH  16  17
ENDBRANCH  14  16
ENDBRANCH   1  14
TORSDOF 3
