REMARK  5 active torsions:
REMARK  status: ('A' for Active; 'I' for Inactive)
REMARK    1  A    between atoms: C_2  and  C_5 
REMARK    2  A    between atoms: C_8  and  C_9 
REMARK    3  A    between atoms: C_9  and  C_10 
REMARK    4  A    between atoms: C_10  and  N_11 
REMARK       I    between atoms: N_11  and  C_12 
REMARK    5  A    between atoms: C_12  and  C_14 
ROOT
HETATM    1  C   UNL     1       5.444  -0.081   3.967  1.00  0.00     0.084 C 
ENDROOT
BRANCH   1   2
HETATM    2  C   UNL     1       4.859   0.116   2.600  1.00  0.00     0.052 A 
HETATM    3  S   UNL     1       5.910   0.391   1.266  1.00  0.00    -0.086 SA
HETATM    4  C   UNL     1       4.560   0.469   0.219  1.00  0.00     0.085 A 
HETATM    5  C   UNL     1       3.385   0.286   0.928  1.00  0.00     0.123 A 
HETATM    6  N   UNL     1       3.580   0.100   2.303  1.00  0.00    -0.350 N 
ATOM      7  HN  UNL     1       2.830  -0.030   2.982  1.00  0.00     0.166 HD
BRANCH   5   8
HETATM    8  C   UNL     1       2.003   0.276   0.336  1.00  0.00     0.433 C 
HETATM    9  F   UNL     1       2.024   0.524  -1.003  1.00  0.00    -0.165 F 
HETATM   10  F   UNL     1       1.199   1.220   0.889  1.00  0.00    -0.165 F 
HETATM   11  F   UNL     1       1.383  -0.922   0.495  1.00  0.00    -0.165 F 
ENDBRANCH   5   8
ENDBRANCH   1   2
BRANCH   1  12
HETATM   12  C   UNL     1       4.379  -0.304   5.043  1.00  0.00     0.129 C 
BRANCH  12  13
HETATM   13  N   UNL     1       4.973  -0.525   6.353  1.00  0.00    -0.359 N 
HETATM   14  C   UNL     1       5.463  -1.763   6.721  1.00  0.00     0.251 C 
HETATM   15  O   UNL     1       5.487  -2.722   5.951  1.00  0.00    -0.271 OA
HETATM   16  H   UNL     1       4.719   0.080   7.128  1.00  0.00     0.162 HD
BRANCH  14  17
HETATM   17  C   UNL     1       6.088  -1.817   8.120  1.00  0.00     0.311 C 
HETATM   18  C   UNL     1       5.783  -3.116   8.854  1.00  0.00     0.047 C 
HETATM   19  C   UNL     1       5.664  -2.727  10.321  1.00  0.00     0.033 C 
HETATM   20  C   UNL     1       5.945  -1.235  10.364  1.00  0.00     0.271 C 
HETATM   21  N   UNL     1       5.590  -0.753   9.024  1.00  0.00     0.097 N 
HETATM   22  H   UNL     1       6.095   0.113   8.840  1.00  0.00     0.317 HD
ENDBRANCH  14  17
ENDBRANCH  12  13
ENDBRANCH   1  12
TORSDOF 5
