REMARK  8 active torsions:
REMARK  status: ('A' for Active; 'I' for Inactive)
REMARK    1  A    between atoms: N_6  and  C_7 
REMARK    2  A    between atoms: C_7  and  C_8 
REMARK    3  A    between atoms: C_8  and  N_9 
REMARK    4  A    between atoms: N_9  and  C_10 
REMARK    5  A    between atoms: C_10  and  C_11 
REMARK       I    between atoms: C_11  and  N_13 
REMARK    6  A    between atoms: N_13  and  C_14 
REMARK    7  A    between atoms: C_14  and  C_19 
REMARK    8  A    between atoms: C_19  and  N_20 
ROOT
HETATM    1  C   UNL     1       7.180  -6.281   0.241  1.00  0.00     0.247 C 
HETATM    2  O   UNL     1       7.328  -7.016   1.213  1.00  0.00    -0.272 OA
HETATM    3  N   UNL     1       8.067  -6.224  -0.814  1.00  0.00    -0.339 N 
HETATM    4  H   UNL     1       8.014  -5.400  -1.404  1.00  0.00     0.164 HD
ENDROOT
BRANCH   1   5
HETATM    5  C   UNL     1       5.966  -5.373   0.097  1.00  0.00     0.371 C 
BRANCH   5   6
HETATM    6  N   UNL     1       6.396  -3.967   0.043  1.00  0.00     0.093 N 
HETATM    7  H   UNL     1       6.916  -3.754   0.898  1.00  0.00     0.316 HD
BRANCH   6   8
HETATM    8  C   UNL     1       5.238  -3.054  -0.045  1.00  0.00     0.291 C 
BRANCH   8   9
HETATM    9  C   UNL     1       4.271  -3.105   1.146  1.00  0.00     0.178 C 
BRANCH   9  10
HETATM   10  N   UNL     1       3.171  -2.173   0.987  1.00  0.00    -0.302 N 
HETATM   11  N   UNL     1       3.276  -0.924   1.468  1.00  0.00    -0.310 N 
HETATM   12  C   UNL     1       2.088  -0.381   1.187  1.00  0.00     0.115 A 
ATOM     13  HN  UNL     1       4.073  -0.492   1.936  1.00  0.00     0.186 HD
HETATM   14  C   UNL     1       1.224  -1.278   0.517  1.00  0.00    -0.028 A 
HETATM   15  C   UNL     1      -0.157  -1.036   0.047  1.00  0.00     0.051 C 
HETATM   16  C   UNL     1       1.964  -2.435   0.407  1.00  0.00     0.118 A 
ENDBRANCH   9  10
ENDBRANCH   8   9
ENDBRANCH   6   8
ENDBRANCH   5   6
ENDBRANCH   1   5
BRANCH   3  17
HETATM   17  C   UNL     1       9.227  -7.117  -0.872  1.00  0.00     0.104 C 
HETATM   18  C   UNL     1      10.196  -6.875   0.303  1.00  0.00     0.045 C 
HETATM   19  C   UNL     1      11.613  -7.036  -0.247  1.00  0.00     0.004 C 
HETATM   20  C   UNL     1      11.470  -7.345  -1.730  1.00  0.00     0.004 C 
HETATM   21  C   UNL     1      10.087  -6.832  -2.107  1.00  0.00     0.045 C 
BRANCH  17  22
HETATM   22  C   UNL     1       8.728  -8.553  -0.861  1.00  0.00    -0.046 C 
BRANCH  22  23
HETATM   23  N   UNL     1       8.315  -9.744  -0.851  1.00  0.00    -0.367 N 
ATOM     24  HN2 UNL     1       8.681  -8.792  -0.823  1.00  0.00     0.165 HD
ATOM     25  HN1 UNL     1       7.980 -10.707  -0.844  1.00  0.00     0.165 HD
ENDBRANCH  22  23
ENDBRANCH  17  22
ENDBRANCH   3  17
TORSDOF 8
