REMARK  7 active torsions:
REMARK  status: ('A' for Active; 'I' for Inactive)
REMARK    1  A    between atoms: C_2  and  C_3 
REMARK       I    between atoms: C_2  and  N_13 
REMARK    2  A    between atoms: C_3  and  C_4 
REMARK    3  A    between atoms: C_4  and  N_5 
REMARK       I    between atoms: N_5  and  C_6 
REMARK    4  A    between atoms: C_6  and  C_8 
REMARK    5  A    between atoms: N_13  and  C_14 
REMARK    6  A    between atoms: C_14  and  C_15 
REMARK    7  A    between atoms: C_15  and  C_16 
ROOT
HETATM    1  O   UNL     1       1.093   0.367  -0.376  1.00  0.00    -0.274 OA
HETATM    2  C   UNL     1       2.198  -0.056  -0.045  1.00  0.00     0.219 C 
HETATM    3  N   UNL     1       2.904  -0.986  -0.777  1.00  0.00    -0.361 N 
HETATM    4  H   UNL     1       3.763  -1.362  -0.397  1.00  0.00     0.162 HD
ENDROOT
BRANCH   2   5
HETATM    5  C   UNL     1       2.942   0.453   1.173  1.00  0.00     0.122 C 
BRANCH   5   6
HETATM    6  C   UNL     1       1.968   0.982   2.218  1.00  0.00     0.132 C 
BRANCH   6   7
HETATM    7  N   UNL     1       2.653   1.433   3.420  1.00  0.00    -0.360 N 
HETATM    8  C   UNL     1       3.002   0.552   4.422  1.00  0.00     0.221 C 
HETATM    9  O   UNL     1       2.763  -0.650   4.357  1.00  0.00    -0.273 OA
HETATM   10  H   UNL     1       2.854   2.419   3.525  1.00  0.00     0.162 HD
BRANCH   8  11
HETATM   11  C   UNL     1       3.682   1.208   5.617  1.00  0.00     0.078 C 
HETATM   12  C   UNL     1       4.999   1.898   5.241  1.00  0.00     0.014 C 
HETATM   13  C   UNL     1       6.000   1.571   6.349  1.00  0.00     0.001 C 
HETATM   14  C   UNL     1       5.207   0.875   7.442  1.00  0.00     0.001 C 
HETATM   15  C   UNL     1       4.071   0.198   6.697  1.00  0.00     0.014 C 
ENDBRANCH   8  11
ENDBRANCH   6   7
ENDBRANCH   5   6
ENDBRANCH   2   5
BRANCH   3  16
HETATM   16  C   UNL     1       2.308  -1.609  -1.948  1.00  0.00     0.127 C 
BRANCH  16  17
HETATM   17  C   UNL     1       3.210  -2.678  -2.567  1.00  0.00     0.059 C 
BRANCH  17  18
HETATM   18  C   UNL     1       2.586  -3.283  -3.794  1.00  0.00    -0.041 A 
HETATM   19  C   UNL     1       2.819  -2.752  -5.065  1.00  0.00     0.010 A 
HETATM   20  C   UNL     1       2.175  -3.300  -6.170  1.00  0.00     0.018 A 
HETATM   21  C   UNL     1       1.317  -4.368  -5.967  1.00  0.00     0.087 A 
HETATM   22  N   UNL     1       1.074  -4.915  -4.757  1.00  0.00    -0.375 N 
HETATM   23  C   UNL     1       1.710  -4.360  -3.701  1.00  0.00     0.094 A 
ATOM     24  HN  UNL     1       0.442  -5.708  -4.645  1.00  0.00     0.164 HD
ENDBRANCH  17  18
ENDBRANCH  16  17
ENDBRANCH   3  16
TORSDOF 7
