REMARK  3 active torsions:
REMARK  status: ('A' for Active; 'I' for Inactive)
REMARK    1  A    between atoms: C_4  and  N_5 
REMARK       I    between atoms: N_5  and  C_6 
REMARK       I    between atoms: C_6  and  N_8 
REMARK    2  A    between atoms: N_8  and  C_9 
REMARK    3  A    between atoms: N_12  and  C_14 
ROOT
HETATM    1  N   UNL     1       8.304   1.733   0.094  1.00  0.00    -0.293 N 
HETATM    2  C   UNL     1       8.293   3.101   0.047  1.00  0.00     0.322 C 
HETATM    3  O   UNL     1       9.347   3.727   0.123  1.00  0.00    -0.247 OA
HETATM    4  N   UNL     1       7.077   3.685  -0.089  1.00  0.00    -0.336 N 
HETATM    5  H   UNL     1       9.226   1.330   0.178  1.00  0.00     0.172 HD
HETATM    6  H   UNL     1       6.287   3.047  -0.098  1.00  0.00     0.164 HD
ENDROOT
BRANCH   1   7
HETATM    7  C   UNL     1       7.221   0.877   0.062  1.00  0.00     0.132 A 
HETATM    8  C   UNL     1       7.296  -0.532   0.129  1.00  0.00     0.084 A 
HETATM    9  C   UNL     1       5.989  -0.955   0.075  1.00  0.00     0.076 A 
HETATM   10  C   UNL     1       5.311  -2.261   0.103  1.00  0.00     0.079 C 
HETATM   11  O   UNL     1       5.177   0.127  -0.022  1.00  0.00    -0.241 OA
HETATM   12  N   UNL     1       5.941   1.270  -0.030  1.00  0.00    -0.245 N 
ATOM     13  HN  UNL     1       5.601   2.230  -0.093  1.00  0.00     0.196 HD
ENDBRANCH   1   7
BRANCH   4  14
HETATM   14  C   UNL     1       6.764   5.087  -0.123  1.00  0.00     0.116 C 
HETATM   15  C   UNL     1       7.370   5.895  -1.254  1.00  0.00     0.057 C 
HETATM   16  C   UNL     1       7.323   7.333  -0.732  1.00  0.00     0.275 C 
HETATM   17  N   UNL     1       6.826   7.301   0.664  1.00  0.00     0.095 N 
HETATM   18  C   UNL     1       7.120   5.916   1.108  1.00  0.00     0.298 C 
BRANCH  17  19
HETATM   19  C   UNL     1       5.378   7.603   0.775  1.00  0.00     0.223 A 
HETATM   20  C   UNL     1       4.836   8.962   0.436  1.00  0.00     0.038 A 
HETATM   21  C   UNL     1       4.930   8.533   1.870  1.00  0.00     0.038 A 
ENDBRANCH  17  19
ENDBRANCH   4  14
TORSDOF 3
