REMARK  5 active torsions:
REMARK  status: ('A' for Active; 'I' for Inactive)
REMARK    1  A    between atoms: C_2  and  C_3 
REMARK    2  A    between atoms: C_2  and  N_16 
REMARK    3  A    between atoms: C_3  and  N_4 
REMARK       I    between atoms: N_4  and  C_5 
REMARK    4  A    between atoms: C_5  and  C_7 
REMARK    5  A    between atoms: C_7  and  N_8 
ROOT
HETATM    1  N   UNL     1       2.561   0.752   2.412  1.00  0.00    -0.358 N 
HETATM    2  C   UNL     1       3.542   1.698   2.627  1.00  0.00     0.237 C 
HETATM    3  O   UNL     1       4.550   1.778   1.926  1.00  0.00    -0.272 OA
HETATM    4  H   UNL     1       1.836   0.654   3.123  1.00  0.00     0.162 HD
ENDROOT
BRANCH   1   5
HETATM    5  C   UNL     1       2.769  -0.349   1.481  1.00  0.00     0.158 C 
BRANCH   5   6
HETATM    6  C   UNL     1       2.450  -0.007  -0.013  1.00  0.00     0.236 C 
HETATM    7  C   UNL     1       0.926   0.226  -0.101  1.00  0.00     0.044 C 
BRANCH   6   8
HETATM    8  N   UNL     1       2.885  -1.093  -0.942  1.00  0.00     0.098 N 
HETATM    9  C   UNL     1       4.353  -1.338  -0.916  1.00  0.00     0.299 C 
HETATM   10  C   UNL     1       5.182  -0.235  -1.595  1.00  0.00     0.198 C 
HETATM   11  O   UNL     1       4.803  -0.095  -2.970  1.00  0.00    -0.388 OA
HETATM   12  C   UNL     1       3.405   0.199  -3.080  1.00  0.00     0.198 C 
HETATM   13  C   UNL     1       2.540  -0.860  -2.370  1.00  0.00     0.299 C 
ENDBRANCH   6   8
ENDBRANCH   5   6
ENDBRANCH   1   5
BRANCH   2  14
HETATM   14  C   UNL     1       3.271   2.681   3.743  1.00  0.00     0.251 C 
BRANCH  14  15
HETATM   15  N   UNL     1       3.050   2.016   5.013  1.00  0.00    -0.288 N 
HETATM   16  N   UNL     1       1.783   1.703   5.363  1.00  0.00    -0.303 N 
HETATM   17  C   UNL     1       1.898   1.200   6.598  1.00  0.00     0.024 A 
ATOM     18  HN  UNL     1       0.933   1.823   4.812  1.00  0.00     0.186 HD
HETATM   19  C   UNL     1       0.701   0.780   7.364  1.00  0.00     0.070 C 
HETATM   20  C   UNL     1       3.248   1.140   7.009  1.00  0.00     0.052 A 
HETATM   21  C   UNL     1       3.975   1.663   5.962  1.00  0.00     0.027 A 
HETATM   22  C   UNL     1       5.439   1.848   5.810  1.00  0.00     0.070 C 
ENDBRANCH  14  15
ENDBRANCH   2  14
TORSDOF 5
