REMARK  3 active torsions:
REMARK  status: ('A' for Active; 'I' for Inactive)
REMARK    1  A    between atoms: O_1  and  C_2 
REMARK    2  A    between atoms: C_8  and  N_9 
REMARK       I    between atoms: N_9  and  C_10 
REMARK    3  A    between atoms: C_10  and  C_12 
ROOT
HETATM    1  C   UNL     1       2.659  -0.098  -0.666  1.00  0.00     0.110 A 
HETATM    2  C   UNL     1       3.413   1.060  -0.577  1.00  0.00     0.041 A 
HETATM    3  C   UNL     1       4.498   1.089   0.287  1.00  0.00     0.020 A 
HETATM    4  C   UNL     1       4.808  -0.068   0.986  1.00  0.00     0.090 A 
HETATM    5  N   UNL     1       4.098  -1.221   0.902  1.00  0.00    -0.350 N 
ATOM      6  HN  UNL     1       4.382  -2.061   1.407  1.00  0.00     0.166 HD
HETATM    7  C   UNL     1       3.001  -1.205   0.121  1.00  0.00     0.141 A 
ENDROOT
BRANCH   7   8
HETATM    8  N   UNL     1       2.222  -2.369   0.195  1.00  0.00    -0.309 N 
HETATM    9  C   UNL     1       0.855  -2.333   0.314  1.00  0.00     0.252 C 
HETATM   10  O   UNL     1       0.170  -1.311   0.356  1.00  0.00    -0.270 OA
HETATM   11  H   UNL     1       2.698  -3.179   0.577  1.00  0.00     0.170 HD
BRANCH   9  12
HETATM   12  C   UNL     1       0.202  -3.715   0.529  1.00  0.00     0.213 C 
HETATM   13  C   UNL     1      -0.264  -3.917   1.969  1.00  0.00     0.044 C 
HETATM   14  C   UNL     1      -0.299  -5.425   2.143  1.00  0.00     0.029 C 
HETATM   15  C   UNL     1       0.283  -5.964   0.851  1.00  0.00     0.168 C 
HETATM   16  O   UNL     1       1.006  -4.868   0.271  1.00  0.00    -0.376 OA
ENDBRANCH   9  12
ENDBRANCH   7   8
BRANCH   1  17
HETATM   17  O   UNL     1       1.656  -0.117  -1.593  1.00  0.00    -0.357 OA
HETATM   18  H   UNL     1       0.880   0.265  -1.139  1.00  0.00     0.218 HD
ENDBRANCH   1  17
TORSDOF 3
