REMARK  5 active torsions:
REMARK  status: ('A' for Active; 'I' for Inactive)
REMARK    1  A    between atoms: C_2  and  C_5 
REMARK    2  A    between atoms: C_8  and  C_9 
REMARK    3  A    between atoms: C_9  and  C_10 
REMARK    4  A    between atoms: C_10  and  N_11 
REMARK       I    between atoms: N_11  and  C_12 
REMARK    5  A    between atoms: C_12  and  C_14 
ROOT
HETATM    1  C   UNL     1       2.945  -4.763   1.845  1.00  0.00     0.084 C 
ENDROOT
BRANCH   1   2
HETATM    2  C   UNL     1       3.169  -3.279   1.761  1.00  0.00     0.052 A 
HETATM    3  S   UNL     1       4.582  -2.653   1.010  1.00  0.00    -0.087 SA
HETATM    4  C   UNL     1       4.020  -1.062   1.298  1.00  0.00     0.077 A 
HETATM    5  C   UNL     1       2.802  -1.086   1.958  1.00  0.00     0.024 A 
HETATM    6  N   UNL     1       2.331  -2.371   2.220  1.00  0.00    -0.356 N 
ATOM      7  HN  UNL     1       1.457  -2.580   2.702  1.00  0.00     0.166 HD
BRANCH   5   8
HETATM    8  C   UNL     1       1.988   0.128   2.397  1.00  0.00    -0.008 C 
HETATM    9  C   UNL     1       1.640   1.014   1.183  1.00  0.00     0.021 C 
HETATM   10  C   UNL     1       2.792   0.969   3.409  1.00  0.00     0.021 C 
HETATM   11  C   UNL     1       0.665  -0.293   3.069  1.00  0.00     0.021 C 
ENDBRANCH   5   8
ENDBRANCH   1   2
BRANCH   1  12
HETATM   12  C   UNL     1       2.184  -5.263   0.618  1.00  0.00     0.129 C 
BRANCH  12  13
HETATM   13  N   UNL     1       1.942  -6.700   0.594  1.00  0.00    -0.360 N 
HETATM   14  C   UNL     1       1.310  -7.268  -0.499  1.00  0.00     0.222 C 
HETATM   15  O   UNL     1       0.983  -6.606  -1.483  1.00  0.00    -0.273 OA
HETATM   16  H   UNL     1       2.059  -7.247   1.440  1.00  0.00     0.162 HD
BRANCH  14  17
HETATM   17  C   UNL     1       1.080  -8.776  -0.449  1.00  0.00     0.081 C 
HETATM   18  C   UNL     1       0.148  -9.162   0.709  1.00  0.00     0.018 C 
HETATM   19  C   UNL     1       0.278 -10.584   1.259  1.00  0.00     0.027 C 
HETATM   20  C   UNL     1       1.560 -11.290   0.966  1.00  0.00    -0.031 C 
HETATM   21  C   UNL     1       2.518 -10.806   0.171  1.00  0.00    -0.030 C 
HETATM   22  C   UNL     1       2.437  -9.489  -0.526  1.00  0.00     0.041 C 
ENDBRANCH  14  17
ENDBRANCH  12  13
ENDBRANCH   1  12
TORSDOF 5
