REMARK  3 active torsions:
REMARK  status: ('A' for Active; 'I' for Inactive)
REMARK       I    between atoms: N_1  and  C_2 
REMARK    1  A    between atoms: C_2  and  C_4 
REMARK    2  A    between atoms: C_4  and  N_5 
REMARK    3  A    between atoms: C_7  and  N_8 
REMARK       I    between atoms: N_8  and  C_9 
REMARK       I    between atoms: C_9  and  N_11 
ROOT
HETATM    1  N   UNL     1       4.798   0.833  -0.754  1.00  0.00    -0.293 N 
HETATM    2  C   UNL     1       5.658   1.887  -0.621  1.00  0.00     0.141 A 
HETATM    3  C   UNL     1       6.920   1.355  -0.511  1.00  0.00     0.070 A 
HETATM    4  C   UNL     1       6.714  -0.040  -0.605  1.00  0.00     0.138 A 
HETATM    5  N   UNL     1       5.429  -0.367  -0.762  1.00  0.00    -0.307 N 
ATOM      6  HN  UNL     1       5.020  -1.296  -0.864  1.00  0.00     0.186 HD
ENDROOT
BRANCH   3   7
HETATM    7  N   UNL     1       8.135   1.999  -0.344  1.00  0.00    -0.306 N 
HETATM    8  C   UNL     1       8.319   3.361  -0.293  1.00  0.00     0.323 C 
HETATM    9  O   UNL     1       7.400   4.171  -0.412  1.00  0.00    -0.247 OA
HETATM   10  N   UNL     1       9.631   3.794  -0.097  1.00  0.00    -0.333 N 
HETATM   11  C   UNL     1       9.866   5.243   0.002  1.00  0.00     0.137 C 
HETATM   12  C   UNL     1      10.846   2.973   0.032  1.00  0.00     0.137 C 
HETATM   13  C   UNL     1      10.781   5.775  -1.104  1.00  0.00     0.093 C 
HETATM   14  S   UNL     1      12.423   4.979  -1.075  1.00  0.00    -0.166 SA
HETATM   15  C   UNL     1      11.858   3.248  -1.083  1.00  0.00     0.093 C 
HETATM   16  H   UNL     1       8.923   1.385  -0.253  1.00  0.00     0.171 HD
ENDBRANCH   3   7
BRANCH   1  17
HETATM   17  C   UNL     1       3.355   0.901  -0.919  1.00  0.00     0.250 C 
BRANCH  17  18
HETATM   18  C   UNL     1       2.581   0.266   0.219  1.00  0.00     0.235 C 
HETATM   19  N   UNL     1       3.090  -0.872   0.771  1.00  0.00    -0.369 N 
HETATM   20  H   UNL     1       2.602  -1.314   1.535  1.00  0.00     0.159 HD
HETATM   21  H   UNL     1       4.012  -1.212   0.501  1.00  0.00     0.159 HD
HETATM   22  O   UNL     1       1.487   0.691   0.586  1.00  0.00    -0.272 OA
ENDBRANCH  17  18
ENDBRANCH   1  17
TORSDOF 3
