REMARK  3 active torsions:
REMARK  status: ('A' for Active; 'I' for Inactive)
REMARK    1  A    between atoms: C_2  and  C_3 
REMARK    2  A    between atoms: C_2  and  N_10 
REMARK    3  A    between atoms: C_3  and  N_4 
REMARK       I    between atoms: N_10  and  C_11 
REMARK       I    between atoms: C_11  and  N_13 
REMARK       I    between atoms: N_17  and  C_20 
ROOT
HETATM    1  N   UNL     1       3.444   0.256   1.628  1.00  0.00    -0.337 N 
HETATM    2  C   UNL     1       4.510   1.089   1.415  1.00  0.00     0.318 C 
HETATM    3  O   UNL     1       5.060   1.160   0.322  1.00  0.00    -0.247 OA
HETATM    4  N   UNL     1       4.869   1.865   2.504  1.00  0.00    -0.333 N 
HETATM    5  C   UNL     1       5.771   2.997   2.279  1.00  0.00     0.129 C 
HETATM    6  C   UNL     1       5.010   4.319   2.394  1.00  0.00     0.040 C 
HETATM    7  C   UNL     1       4.957   4.862   3.824  1.00  0.00     0.127 C 
HETATM    8  N   UNL     1       4.681   3.877   4.871  1.00  0.00    -0.351 N 
HETATM    9  C   UNL     1       3.752   2.785   4.552  1.00  0.00     0.145 C 
HETATM   10  C   UNL     1       4.482   1.600   3.903  1.00  0.00     0.147 C 
HETATM   11  C   UNL     1       5.302   3.828   6.112  1.00  0.00     0.215 C 
HETATM   12  O   UNL     1       5.087   2.902   6.900  1.00  0.00    -0.274 OA
HETATM   13  C   UNL     1       6.271   4.909   6.525  1.00  0.00     0.117 C 
HETATM   14  H   UNL     1       2.785   0.565   2.324  1.00  0.00     0.164 HD
ENDROOT
BRANCH   1  15
HETATM   15  C   UNL     1       2.922  -0.637   0.588  1.00  0.00     0.100 C 
HETATM   16  C   UNL     1       1.842  -1.521   1.217  1.00  0.00     0.034 C 
BRANCH  15  17
HETATM   17  C   UNL     1       2.387   0.134  -0.638  1.00  0.00     0.153 C 
BRANCH  17  18
HETATM   18  N   UNL     1       1.870  -0.719  -1.690  1.00  0.00    -0.350 N 
HETATM   19  C   UNL     1       0.595  -0.713  -2.182  1.00  0.00     0.108 A 
HETATM   20  C   UNL     1       0.584  -1.696  -3.144  1.00  0.00     0.106 A 
HETATM   21  N   UNL     1       1.817  -2.286  -3.251  1.00  0.00    -0.361 N 
HETATM   22  C   UNL     1       2.576  -1.664  -2.377  1.00  0.00     0.182 A 
ATOM     23  HN  UNL     1       2.087  -3.046  -3.876  1.00  0.00     0.166 HD
ENDBRANCH  17  18
ENDBRANCH  15  17
ENDBRANCH   1  15
TORSDOF 3
