REMARK  6 active torsions:
REMARK  status: ('A' for Active; 'I' for Inactive)
REMARK    1  A    between atoms: C_2  and  C_5 
REMARK    2  A    between atoms: C_10  and  N_11 
REMARK       I    between atoms: N_11  and  C_12 
REMARK    3  A    between atoms: C_12  and  C_14 
REMARK    4  A    between atoms: C_14  and  O_15 
REMARK    5  A    between atoms: O_15  and  C_16 
REMARK    6  A    between atoms: C_16  and  C_17 
ROOT
HETATM    1  C   UNL     1       2.756  -0.048   1.463  1.00  0.00     0.065 A 
HETATM    2  C   UNL     1       3.197   0.884   2.324  1.00  0.00     0.107 A 
HETATM    3  N   UNL     1       3.748   0.523   3.531  1.00  0.00    -0.331 N 
HETATM    4  C   UNL     1       3.914  -0.780   3.944  1.00  0.00     0.272 A 
HETATM    5  O   UNL     1       4.432  -1.073   5.020  1.00  0.00    -0.266 OA
HETATM    6  C   UNL     1       3.426  -1.845   2.999  1.00  0.00     0.104 A 
HETATM    7  C   UNL     1       2.856  -1.447   1.848  1.00  0.00     0.052 A 
HETATM    8  H   UNL     1       4.085   1.235   4.171  1.00  0.00     0.168 HD
ENDROOT
BRANCH   6   9
HETATM    9  N   UNL     1       3.580  -3.156   3.394  1.00  0.00    -0.321 N 
HETATM   10  C   UNL     1       3.270  -4.296   2.673  1.00  0.00     0.246 C 
HETATM   11  O   UNL     1       2.831  -4.333   1.527  1.00  0.00    -0.271 OA
HETATM   12  H   UNL     1       3.967  -3.282   4.330  1.00  0.00     0.169 HD
BRANCH  10  13
HETATM   13  C   UNL     1       3.519  -5.581   3.455  1.00  0.00     0.270 C 
BRANCH  13  14
HETATM   14  O   UNL     1       2.912  -5.570   4.739  1.00  0.00    -0.382 OA
BRANCH  14  15
HETATM   15  C   UNL     1       1.485  -5.589   4.652  1.00  0.00     0.172 C 
BRANCH  15  16
HETATM   16  C   UNL     1       0.943  -5.655   6.040  1.00  0.00     0.009 A 
HETATM   17  C   UNL     1      -0.535  -5.504   6.291  1.00  0.00     0.007 A 
HETATM   18  C   UNL     1       0.410  -4.416   6.718  1.00  0.00     0.007 A 
ENDBRANCH  15  16
ENDBRANCH  14  15
ENDBRANCH  13  14
ENDBRANCH  10  13
ENDBRANCH   6   9
BRANCH   1  19
HETATM   19  C   UNL     1       2.195   0.282   0.108  1.00  0.00     0.418 C 
HETATM   20  F   UNL     1       1.821  -0.813  -0.602  1.00  0.00    -0.166 F 
HETATM   21  F   UNL     1       3.100   0.947  -0.652  1.00  0.00    -0.166 F 
HETATM   22  F   UNL     1       1.097   1.077   0.198  1.00  0.00    -0.166 F 
ENDBRANCH   1  19
TORSDOF 6
