REMARK  4 active torsions:
REMARK  status: ('A' for Active; 'I' for Inactive)
REMARK    1  A    between atoms: C_2  and  N_3 
REMARK    2  A    between atoms: C_2  and  C_14 
REMARK       I    between atoms: N_3  and  C_4 
REMARK    3  A    between atoms: C_4  and  C_6 
REMARK    4  A    between atoms: C_6  and  N_8 
REMARK       I    between atoms: C_14  and  N_16 
ROOT
HETATM    1  N   UNL     1       2.780  -1.381   0.283  1.00  0.00    -0.346 N 
HETATM    2  C   UNL     1       2.611  -1.834   1.576  1.00  0.00     0.242 C 
HETATM    3  O   UNL     1       2.106  -1.122   2.444  1.00  0.00    -0.271 OA
HETATM    4  H   UNL     1       3.335  -1.931  -0.365  1.00  0.00     0.163 HD
ENDROOT
BRANCH   2   5
HETATM    5  C   UNL     1       3.118  -3.246   1.852  1.00  0.00     0.195 C 
HETATM    6  C   UNL     1       3.493  -3.419   3.323  1.00  0.00     0.044 C 
BRANCH   5   7
HETATM    7  N   UNL     1       2.137  -4.241   1.435  1.00  0.00    -0.290 N 
HETATM    8  C   UNL     1       0.878  -4.437   1.936  1.00  0.00     0.112 A 
HETATM    9  C   UNL     1       0.382  -5.554   1.308  1.00  0.00     0.037 A 
HETATM   10  C   UNL     1       1.412  -5.961   0.441  1.00  0.00     0.108 A 
HETATM   11  N   UNL     1       2.479  -5.161   0.507  1.00  0.00    -0.309 N 
ATOM     12  HN  UNL     1       3.349  -5.229  -0.020  1.00  0.00     0.186 HD
ENDBRANCH   5   7
ENDBRANCH   2   5
BRANCH   1  13
HETATM   13  C   UNL     1       2.392  -0.028  -0.123  1.00  0.00     0.172 C 
HETATM   14  C   UNL     1       2.090   0.020  -1.615  1.00  0.00     0.042 C 
BRANCH  13  15
HETATM   15  C   UNL     1       3.482   1.004   0.248  1.00  0.00     0.237 C 
HETATM   16  O   UNL     1       4.019   1.766  -0.551  1.00  0.00    -0.271 OA
HETATM   17  N   UNL     1       3.780   1.085   1.580  1.00  0.00    -0.368 N 
HETATM   18  H   UNL     1       3.182   0.628   2.267  1.00  0.00     0.159 HD
HETATM   19  H   UNL     1       4.387   1.833   1.884  1.00  0.00     0.159 HD
ENDBRANCH  13  15
ENDBRANCH   1  13
TORSDOF 4
