REMARK  4 active torsions:
REMARK  status: ('A' for Active; 'I' for Inactive)
REMARK    1  A    between atoms: C_2  and  C_3 
REMARK    2  A    between atoms: C_2  and  N_10 
REMARK    3  A    between atoms: C_3  and  N_4 
REMARK       I    between atoms: N_10  and  C_11 
REMARK    4  A    between atoms: C_11  and  C_13 
ROOT
HETATM    1  C   UNL     1       1.106  -0.062  -0.011  1.00  0.00     0.034 C 
HETATM    2  C   UNL     1       2.633  -0.111   0.058  1.00  0.00     0.098 C 
ENDROOT
BRANCH   2   3
HETATM    3  C   UNL     1       3.083  -0.625   1.436  1.00  0.00     0.153 C 
BRANCH   3   4
HETATM    4  N   UNL     1       4.523  -0.663   1.594  1.00  0.00    -0.350 N 
HETATM    5  C   UNL     1       5.322   0.353   2.039  1.00  0.00     0.108 A 
HETATM    6  C   UNL     1       6.592  -0.176   2.050  1.00  0.00     0.106 A 
HETATM    7  N   UNL     1       6.579  -1.485   1.639  1.00  0.00    -0.361 N 
HETATM    8  C   UNL     1       5.320  -1.751   1.378  1.00  0.00     0.182 A 
ATOM      9  HN  UNL     1       7.376  -2.116   1.554  1.00  0.00     0.166 HD
ENDBRANCH   3   4
ENDBRANCH   2   3
BRANCH   2  10
HETATM   10  N   UNL     1       3.142  -0.935  -1.036  1.00  0.00    -0.355 N 
HETATM   11  C   UNL     1       3.470  -0.388  -2.254  1.00  0.00     0.222 C 
HETATM   12  O   UNL     1       3.365   0.803  -2.514  1.00  0.00    -0.273 OA
HETATM   13  H   UNL     1       3.162  -1.938  -0.935  1.00  0.00     0.162 HD
BRANCH  11  14
HETATM   14  C   UNL     1       3.991  -1.318  -3.294  1.00  0.00     0.078 A 
HETATM   15  C   UNL     1       4.019  -2.824  -3.206  1.00  0.00     0.015 A 
HETATM   16  C   UNL     1       5.293  -2.047  -3.047  1.00  0.00     0.015 A 
ENDBRANCH  11  14
ENDBRANCH   2  10
TORSDOF 4
