REMARK  7 active torsions:
REMARK  status: ('A' for Active; 'I' for Inactive)
REMARK    1  A    between atoms: C_7  and  O_8 
REMARK    2  A    between atoms: O_8  and  C_9 
REMARK    3  A    between atoms: C_9  and  C_10 
REMARK    4  A    between atoms: C_10  and  O_11 
REMARK    5  A    between atoms: C_10  and  C_12 
REMARK    6  A    between atoms: C_12  and  N_13 
REMARK    7  A    between atoms: C_16  and  N_21 
ROOT
HETATM    1  N   UNL     1       4.014  -6.531   0.653  1.00  0.00    -0.254 N 
HETATM    2  N   UNL     1       4.765  -7.132   1.642  1.00  0.00    -0.280 N 
ATOM      3  HN  UNL     1       5.760  -7.311   1.510  1.00  0.00     0.189 HD
HETATM    4  C   UNL     1       4.166  -7.462   2.745  1.00  0.00     0.127 A 
HETATM    5  C   UNL     1       2.735  -7.232   3.025  1.00  0.00     0.056 A 
HETATM    6  C   UNL     1       2.042  -6.605   2.072  1.00  0.00     0.080 A 
HETATM    7  C   UNL     1       2.674  -6.194   0.802  1.00  0.00     0.262 A 
HETATM    8  O   UNL     1       2.007  -5.583  -0.027  1.00  0.00    -0.267 OA
ENDROOT
BRANCH   1   9
HETATM    9  C   UNL     1       4.722  -6.198  -0.589  1.00  0.00     0.186 C 
BRANCH   9  10
HETATM   10  C   UNL     1       5.442  -4.839  -0.535  1.00  0.00     0.162 C 
BRANCH  10  11
HETATM   11  C   UNL     1       4.476  -3.677  -0.278  1.00  0.00     0.209 C 
BRANCH  11  12
HETATM   12  O   UNL     1       5.182  -2.440  -0.393  1.00  0.00    -0.348 OA
BRANCH  12  13
HETATM   13  C   UNL     1       4.462  -1.297  -0.162  1.00  0.00     0.075 A 
HETATM   14  C   UNL     1       5.206  -0.104  -0.175  1.00  0.00    -0.029 A 
HETATM   15  C   UNL     1       4.549   1.116   0.033  1.00  0.00     0.010 A 
HETATM   16  C   UNL     1       6.688  -0.128  -0.424  1.00  0.00     0.051 C 
HETATM   17  C   UNL     1       3.169   1.155   0.237  1.00  0.00     0.007 A 
HETATM   18  C   UNL     1       2.422  -0.025   0.237  1.00  0.00    -0.059 A 
HETATM   19  C   UNL     1       0.934   0.000   0.423  1.00  0.00     0.048 C 
HETATM   20  C   UNL     1       3.079  -1.249   0.052  1.00  0.00     0.044 A 
ENDBRANCH  12  13
ENDBRANCH  11  12
ENDBRANCH  10  11
BRANCH  10  21
HETATM   21  O   UNL     1       6.472  -4.872   0.467  1.00  0.00    -0.392 OA
HETATM   22  H   UNL     1       6.052  -5.201   1.285  1.00  0.00     0.210 HD
ENDBRANCH  10  21
ENDBRANCH   9  10
ENDBRANCH   1   9
BRANCH   4  23
HETATM   23  N   UNL     1       4.914  -8.076   3.770  1.00  0.00    -0.302 N 
HETATM   24  C   UNL     1       6.259  -8.401   3.696  1.00  0.00     0.116 A 
HETATM   25  C   UNL     1       6.596  -8.945   4.910  1.00  0.00     0.106 A 
HETATM   26  N   UNL     1       5.510  -8.985   5.735  1.00  0.00    -0.360 N 
HETATM   27  C   UNL     1       4.525  -8.466   5.035  1.00  0.00     0.189 A 
ATOM     28  HN  UNL     1       5.471  -9.341   6.690  1.00  0.00     0.166 HD
ENDBRANCH   4  23
TORSDOF 7
