REMARK  5 active torsions:
REMARK  status: ('A' for Active; 'I' for Inactive)
REMARK    1  A    between atoms: C_2  and  N_3 
REMARK    2  A    between atoms: C_2  and  C_13 
REMARK    3  A    between atoms: N_3  and  C_4 
REMARK    4  A    between atoms: C_4  and  C_6 
REMARK       I    between atoms: C_6  and  N_8 
REMARK    5  A    between atoms: C_13  and  N_15 
ROOT
HETATM    1  C   UNL     1       0.922  -0.291   0.043  1.00  0.00     0.045 C 
HETATM    2  C   UNL     1       2.442  -0.076   0.044  1.00  0.00     0.241 C 
ENDROOT
BRANCH   2   3
HETATM    3  N   UNL     1       2.774   1.332  -0.270  1.00  0.00     0.103 N 
HETATM    4  H   UNL     1       2.481   1.551  -1.224  1.00  0.00     0.317 HD
BRANCH   3   5
HETATM    5  C   UNL     1       2.313   2.415   0.633  1.00  0.00     0.308 C 
HETATM    6  C   UNL     1       2.831   2.356   2.070  1.00  0.00     0.053 C 
BRANCH   5   7
HETATM    7  C   UNL     1       2.803   3.782   0.075  1.00  0.00     0.252 C 
HETATM    8  O   UNL     1       3.879   4.288   0.407  1.00  0.00    -0.271 OA
HETATM    9  N   UNL     1       1.960   4.449  -0.796  1.00  0.00    -0.350 N 
HETATM   10  C   UNL     1       2.260   5.812  -1.198  1.00  0.00     0.126 C 
HETATM   11  C   UNL     1       0.747   3.973  -1.429  1.00  0.00     0.126 C 
HETATM   12  C   UNL     1       1.260   6.136  -2.301  1.00  0.00     0.021 C 
HETATM   13  C   UNL     1       0.712   4.775  -2.719  1.00  0.00     0.021 C 
ENDBRANCH   5   7
ENDBRANCH   3   5
ENDBRANCH   2   3
BRANCH   2  14
HETATM   14  C   UNL     1       3.165  -0.703   1.284  1.00  0.00     0.136 C 
HETATM   15  C   UNL     1       2.912  -2.204   1.464  1.00  0.00     0.036 C 
BRANCH  14  16
HETATM   16  N   UNL     1       4.609  -0.456   1.302  1.00  0.00    -0.297 N 
HETATM   17  C   UNL     1       5.487  -0.475   0.254  1.00  0.00     0.118 A 
HETATM   18  C   UNL     1       6.717  -0.116   0.764  1.00  0.00    -0.028 A 
HETATM   19  C   UNL     1       7.993   0.064   0.040  1.00  0.00     0.051 C 
HETATM   20  C   UNL     1       6.476   0.057   2.143  1.00  0.00     0.115 A 
HETATM   21  N   UNL     1       5.214  -0.209   2.485  1.00  0.00    -0.309 N 
ATOM     22  HN  UNL     1       4.803  -0.223   3.418  1.00  0.00     0.186 HD
ENDBRANCH  14  16
ENDBRANCH   2  14
TORSDOF 5
