REMARK  4 active torsions:
REMARK  status: ('A' for Active; 'I' for Inactive)
REMARK    1  A    between atoms: C_2  and  C_3 
REMARK    2  A    between atoms: C_2  and  N_12 
REMARK    3  A    between atoms: C_3  and  N_4 
REMARK    4  A    between atoms: N_12  and  C_13 
ROOT
HETATM    1  C   UNL     1       0.993  -0.095   0.252  1.00  0.00     0.044 C 
HETATM    2  C   UNL     1       2.509   0.040  -0.005  1.00  0.00     0.235 C 
ENDROOT
BRANCH   2   3
HETATM    3  C   UNL     1       2.678   0.967  -1.238  1.00  0.00     0.164 C 
BRANCH   3   4
HETATM    4  N   UNL     1       4.016   1.140  -1.768  1.00  0.00    -0.343 N 
HETATM    5  C   UNL     1       4.829   2.193  -1.450  1.00  0.00     0.183 A 
HETATM    6  N   UNL     1       5.978   2.126  -2.075  1.00  0.00    -0.354 N 
HETATM    7  C   UNL     1       5.879   1.038  -2.905  1.00  0.00     0.028 A 
ATOM      8  HN  UNL     1       6.777   2.750  -1.967  1.00  0.00     0.166 HD
HETATM    9  C   UNL     1       6.992   0.711  -3.825  1.00  0.00     0.070 C 
HETATM   10  C   UNL     1       4.642   0.424  -2.763  1.00  0.00     0.030 A 
HETATM   11  C   UNL     1       4.039  -0.712  -3.498  1.00  0.00     0.070 C 
ENDBRANCH   3   4
ENDBRANCH   2   3
BRANCH   2  12
HETATM   12  N   UNL     1       3.093   0.513   1.268  1.00  0.00     0.093 N 
HETATM   13  H   UNL     1       2.672  -0.007   2.042  1.00  0.00     0.316 HD
BRANCH  12  14
HETATM   14  C   UNL     1       4.557   0.428   1.404  1.00  0.00     0.221 C 
HETATM   15  C   UNL     1       5.150  -0.982   1.257  1.00  0.00     0.035 C 
HETATM   16  C   UNL     1       4.774  -1.902   2.415  1.00  0.00     0.002 C 
HETATM   17  C   UNL     1       5.161  -1.298   3.763  1.00  0.00     0.000 C 
HETATM   18  C   UNL     1       4.617   0.119   3.945  1.00  0.00     0.002 C 
HETATM   19  C   UNL     1       4.982   1.016   2.765  1.00  0.00     0.035 C 
ENDBRANCH  12  14
ENDBRANCH   2  12
TORSDOF 4
