REMARK  4 active torsions:
REMARK  status: ('A' for Active; 'I' for Inactive)
REMARK    1  A    between atoms: C_2  and  C_3 
REMARK    2  A    between atoms: C_2  and  C_14 
REMARK    3  A    between atoms: C_3  and  N_4 
REMARK       I    between atoms: N_4  and  C_5 
REMARK       I    between atoms: C_5  and  N_7 
REMARK    4  A    between atoms: N_7  and  C_8 
ROOT
HETATM    1  N   UNL     1       2.715  -1.477  -2.074  1.00  0.00    -0.342 N 
HETATM    2  C   UNL     1       3.093  -1.749  -3.366  1.00  0.00     0.316 C 
HETATM    3  O   UNL     1       3.802  -1.022  -4.045  1.00  0.00    -0.247 OA
HETATM    4  N   UNL     1       2.569  -2.945  -3.790  1.00  0.00    -0.338 N 
HETATM    5  H   UNL     1       1.801  -1.842  -1.821  1.00  0.00     0.164 HD
HETATM    6  H   UNL     1       2.353  -3.589  -3.043  1.00  0.00     0.164 HD
ENDROOT
BRANCH   1   7
HETATM    7  C   UNL     1       3.037  -0.183  -1.497  1.00  0.00     0.135 C 
BRANCH   7   8
HETATM    8  C   UNL     1       2.555  -0.007  -0.047  1.00  0.00     0.057 C 
HETATM    9  C   UNL     1       3.172  -1.039   0.899  1.00  0.00     0.018 C 
BRANCH   8  10
HETATM   10  C   UNL     1       1.049  -0.065   0.027  1.00  0.00     0.056 A 
HETATM   11  N   UNL     1       0.333  -1.126  -0.291  1.00  0.00    -0.357 N 
HETATM   12  C   UNL     1      -1.013  -0.873  -0.075  1.00  0.00     0.012 A 
ATOM     13  HN  UNL     1       0.714  -2.004  -0.644  1.00  0.00     0.166 HD
HETATM   14  C   UNL     1      -2.000  -1.952  -0.334  1.00  0.00     0.068 C 
HETATM   15  C   UNL     1      -1.296   0.399   0.382  1.00  0.00     0.076 A 
HETATM   16  S   UNL     1       0.148   1.299   0.559  1.00  0.00    -0.086 SA
ENDBRANCH   8  10
ENDBRANCH   7   8
ENDBRANCH   1   7
BRANCH   4  17
HETATM   17  C   UNL     1       2.872  -3.484  -5.113  1.00  0.00     0.090 C 
HETATM   18  C   UNL     1       1.775  -4.447  -5.571  1.00  0.00     0.051 C 
HETATM   19  C   UNL     1       1.870  -5.784  -4.850  1.00  0.00     0.169 C 
HETATM   20  O   UNL     1       3.170  -6.351  -5.002  1.00  0.00    -0.391 OA
HETATM   21  C   UNL     1       4.193  -5.524  -4.448  1.00  0.00     0.169 C 
HETATM   22  C   UNL     1       4.238  -4.175  -5.151  1.00  0.00     0.051 C 
ENDBRANCH   4  17
TORSDOF 4
