REMARK  6 active torsions:
REMARK  status: ('A' for Active; 'I' for Inactive)
REMARK    1  A    between atoms: C_2  and  N_3 
REMARK    2  A    between atoms: N_6  and  C_9 
REMARK    3  A    between atoms: C_9  and  C_11 
REMARK    4  A    between atoms: C_11  and  N_12 
REMARK       I    between atoms: N_12  and  C_13 
REMARK    5  A    between atoms: C_13  and  C_15 
REMARK    6  A    between atoms: C_15  and  N_16 
ROOT
HETATM    1  C   UNL     1       2.441  -5.696  -0.913  1.00  0.00     0.158 C 
ENDROOT
BRANCH   1   2
HETATM    2  C   UNL     1       3.367  -4.500  -0.501  1.00  0.00     0.236 C 
HETATM    3  C   UNL     1       4.615  -5.150   0.141  1.00  0.00     0.044 C 
BRANCH   2   4
HETATM    4  N   UNL     1       2.742  -3.512   0.438  1.00  0.00     0.097 N 
HETATM    5  C   UNL     1       1.570  -2.798  -0.121  1.00  0.00     0.303 C 
HETATM    6  C   UNL     1       1.911  -1.806  -1.260  1.00  0.00     0.302 C 
HETATM    7  N   UNL     1       2.875  -0.757  -0.873  1.00  0.00     0.091 N 
HETATM    8  C   UNL     1       4.045  -1.411  -0.234  1.00  0.00     0.302 C 
HETATM    9  C   UNL     1       3.686  -2.444   0.870  1.00  0.00     0.303 C 
BRANCH   7  10
HETATM   10  C   UNL     1       2.306   0.262   0.026  1.00  0.00     0.268 C 
HETATM   11  C   UNL     1       1.158   1.061  -0.585  1.00  0.00     0.037 C 
ENDBRANCH   7  10
ENDBRANCH   2   4
ENDBRANCH   1   2
BRANCH   1  12
HETATM   12  N   UNL     1       1.295  -5.355  -1.736  1.00  0.00    -0.358 N 
HETATM   13  C   UNL     1       1.409  -5.016  -3.064  1.00  0.00     0.237 C 
HETATM   14  O   UNL     1       2.464  -5.093  -3.689  1.00  0.00    -0.272 OA
HETATM   15  H   UNL     1       0.388  -5.373  -1.287  1.00  0.00     0.162 HD
BRANCH  13  16
HETATM   16  C   UNL     1       0.141  -4.499  -3.699  1.00  0.00     0.249 C 
BRANCH  16  17
HETATM   17  N   UNL     1      -0.405  -5.437  -4.640  1.00  0.00    -0.264 N 
HETATM   18  C   UNL     1       0.142  -5.926  -5.783  1.00  0.00     0.213 A 
HETATM   19  N   UNL     1      -0.750  -6.686  -6.375  1.00  0.00    -0.281 N 
HETATM   20  N   UNL     1      -1.869  -6.645  -5.578  1.00  0.00    -0.008 NA
ATOM     21  HN  UNL     1      -0.636  -7.201  -7.248  1.00  0.00     0.184 HD
HETATM   22  N   UNL     1      -1.668  -5.876  -4.515  1.00  0.00    -0.005 NA
ENDBRANCH  16  17
ENDBRANCH  13  16
ENDBRANCH   1  12
TORSDOF 6
