REMARK  4 active torsions:
REMARK  status: ('A' for Active; 'I' for Inactive)
REMARK    1  A    between atoms: N_1  and  C_8 
REMARK    2  A    between atoms: N_2  and  C_7 
REMARK    3  A    between atoms: C_8  and  C_9 
REMARK       I    between atoms: C_9  and  N_11 
REMARK    4  A    between atoms: N_11  and  C_15 
ROOT
HETATM    1  N   UNL     1      -0.563   1.227   0.786  1.00  0.00    -0.255 N 
HETATM    2  N   UNL     1      -0.371  -1.099   1.145  1.00  0.00    -0.279 N 
HETATM    3  C   UNL     1      -1.162   0.049   1.213  1.00  0.00     0.334 C 
HETATM    4  C   UNL     1       0.792   1.361   0.514  1.00  0.00     0.292 C 
HETATM    5  C   UNL     1       1.589   0.124   0.650  1.00  0.00     0.200 C 
HETATM    6  C   UNL     1       0.985  -1.035   0.901  1.00  0.00     0.146 C 
HETATM    7  O   UNL     1      -2.329   0.021   1.602  1.00  0.00    -0.246 OA
HETATM    8  O   UNL     1       1.315   2.410   0.154  1.00  0.00    -0.264 OA
HETATM    9  F   UNL     1       2.911   0.208   0.413  1.00  0.00    -0.199 F 
ENDROOT
BRANCH   1  10
HETATM   10  C   UNL     1      -1.438   2.306   0.348  1.00  0.00     0.240 C 
BRANCH  10  11
HETATM   11  C   UNL     1      -1.616   3.536   1.238  1.00  0.00     0.240 C 
HETATM   12  N   UNL     1      -1.572   3.312   2.601  1.00  0.00    -0.326 N 
HETATM   13  H   UNL     1      -1.373   2.366   2.906  1.00  0.00     0.169 HD
HETATM   14  O   UNL     1      -1.941   4.597   0.705  1.00  0.00    -0.271 OA
BRANCH  12  15
HETATM   15  C   UNL     1      -1.856   4.255   3.622  1.00  0.00     0.035 A 
HETATM   16  C   UNL     1      -2.221   5.586   3.383  1.00  0.00     0.047 A 
HETATM   17  C   UNL     1      -2.528   6.442   4.446  1.00  0.00     0.008 A 
HETATM   18  I   UNL     1      -3.128   8.399   4.060  1.00  0.00    -0.045 I 
HETATM   19  C   UNL     1      -2.453   5.994   5.762  1.00  0.00     0.018 A 
HETATM   20  C   UNL     1      -2.071   4.678   6.012  1.00  0.00     0.003 A 
HETATM   21  C   UNL     1      -1.780   3.815   4.951  1.00  0.00     0.029 A 
ENDBRANCH  12  15
ENDBRANCH  10  11
ENDBRANCH   1  10
BRANCH   2  22
HETATM   22  C   UNL     1      -1.070  -2.370   1.304  1.00  0.00     0.232 C 
HETATM   23  O   UNL     1      -0.181  -3.499   1.299  1.00  0.00    -0.366 OA
HETATM   24  C   UNL     1      -0.931  -4.639   0.836  1.00  0.00     0.170 C 
HETATM   25  C   UNL     1      -2.267  -4.138   0.322  1.00  0.00     0.031 C 
HETATM   26  C   UNL     1      -2.037  -2.659   0.162  1.00  0.00     0.056 C 
ENDBRANCH   2  22
TORSDOF 4
