REMARK  4 active torsions:
REMARK  status: ('A' for Active; 'I' for Inactive)
REMARK    1  A    between atoms: O_2  and  C_3 
REMARK    2  A    between atoms: C_3  and  C_4 
REMARK    3  A    between atoms: C_4  and  N_5 
REMARK       I    between atoms: N_5  and  C_6 
REMARK       I    between atoms: C_6  and  N_8 
REMARK    4  A    between atoms: N_8  and  C_9 
ROOT
HETATM    1  N   UNL     1       2.371  -0.531  -3.582  1.00  0.00    -0.340 N 
HETATM    2  C   UNL     1       2.010   0.193  -4.696  1.00  0.00     0.320 C 
HETATM    3  O   UNL     1       1.573   1.337  -4.621  1.00  0.00    -0.247 OA
HETATM    4  N   UNL     1       2.127  -0.543  -5.855  1.00  0.00    -0.307 N 
HETATM    5  H   UNL     1       3.231  -1.059  -3.678  1.00  0.00     0.164 HD
HETATM    6  H   UNL     1       1.886  -1.518  -5.721  1.00  0.00     0.170 HD
ENDROOT
BRANCH   1   7
HETATM    7  C   UNL     1       2.121   0.074  -2.284  1.00  0.00     0.162 C 
BRANCH   7   8
HETATM    8  C   UNL     1       2.799  -0.759  -1.193  1.00  0.00     0.076 C 
HETATM    9  C   UNL     1       2.370  -0.340   0.248  1.00  0.00     0.040 C 
HETATM   10  C   UNL     1       1.319  -1.463   0.230  1.00  0.00     0.006 C 
HETATM   11  C   UNL     1       2.123  -2.134  -0.895  1.00  0.00     0.040 C 
BRANCH   8  12
HETATM   12  O   UNL     1       4.234  -0.862  -1.423  1.00  0.00    -0.383 OA
HETATM   13  C   UNL     1       4.996   0.339  -1.348  1.00  0.00     0.202 C 
ENDBRANCH   8  12
ENDBRANCH   7   8
ENDBRANCH   1   7
BRANCH   4  14
HETATM   14  C   UNL     1       1.742   0.021  -7.102  1.00  0.00     0.061 A 
HETATM   15  C   UNL     1       2.204   1.285  -7.466  1.00  0.00     0.048 A 
HETATM   16  C   UNL     1       1.774   1.824  -8.663  1.00  0.00     0.090 A 
HETATM   17  N   UNL     1       0.920   1.201  -9.500  1.00  0.00    -0.368 N 
HETATM   18  C   UNL     1       0.467  -0.030  -9.139  1.00  0.00     0.029 A 
ATOM     19  HN  UNL     1       0.624   1.637 -10.373  1.00  0.00     0.165 HD
HETATM   20  C   UNL     1      -0.559  -0.633 -10.059  1.00  0.00     0.070 C 
HETATM   21  C   UNL     1       0.879  -0.669  -7.965  1.00  0.00     0.083 A 
HETATM   22 CL   UNL     1       0.279  -2.233  -7.527  1.00  0.00    -0.080 Cl
ENDBRANCH   4  14
TORSDOF 4
