REMARK  7 active torsions:
REMARK  status: ('A' for Active; 'I' for Inactive)
REMARK    1  A    between atoms: C_2  and  C_3 
REMARK    2  A    between atoms: C_2  and  N_10 
REMARK    3  A    between atoms: C_3  and  N_4 
REMARK    4  A    between atoms: N_10  and  C_11 
REMARK    5  A    between atoms: C_11  and  C_12 
REMARK       I    between atoms: C_12  and  N_14 
REMARK    6  A    between atoms: N_14  and  C_15 
REMARK    7  A    between atoms: C_15  and  C_19 
ROOT
HETATM    1  C   UNL     1       4.625   3.654  -3.810  1.00  0.00     0.122 C 
HETATM    2  C   UNL     1       4.640   5.020  -3.113  1.00  0.00     0.055 C 
HETATM    3  C   UNL     1       5.910   3.400  -4.518  1.00  0.00     0.091 C 
HETATM    4  N   UNL     1       6.896   3.196  -5.105  1.00  0.00    -0.195 NA
ENDROOT
BRANCH   1   5
HETATM    5  N   UNL     1       4.323   2.591  -2.849  1.00  0.00    -0.338 N 
HETATM    6  C   UNL     1       5.120   2.316  -1.757  1.00  0.00     0.247 C 
HETATM    7  O   UNL     1       6.158   2.917  -1.506  1.00  0.00    -0.272 OA
HETATM    8  H   UNL     1       3.487   2.023  -2.946  1.00  0.00     0.164 HD
BRANCH   6   9
HETATM    9  C   UNL     1       4.644   1.140  -0.902  1.00  0.00     0.372 C 
BRANCH   9  10
HETATM   10  N   UNL     1       3.175   0.984  -1.003  1.00  0.00     0.098 N 
HETATM   11  H   UNL     1       2.755   1.846  -0.641  1.00  0.00     0.317 HD
BRANCH  10  12
HETATM   12  C   UNL     1       2.675  -0.140  -0.164  1.00  0.00     0.236 C 
HETATM   13  C   UNL     1       1.146  -0.125  -0.298  1.00  0.00     0.044 C 
BRANCH  12  14
HETATM   14  C   UNL     1       3.269  -1.503  -0.581  1.00  0.00     0.183 C 
BRANCH  14  15
HETATM   15  N   UNL     1       2.740  -2.647   0.135  1.00  0.00    -0.302 N 
HETATM   16  C   UNL     1       2.108  -3.725  -0.417  1.00  0.00     0.111 A 
HETATM   17  C   UNL     1       1.896  -4.610   0.613  1.00  0.00     0.037 A 
HETATM   18  C   UNL     1       2.438  -3.974   1.745  1.00  0.00     0.108 A 
HETATM   19  N   UNL     1       2.950  -2.774   1.458  1.00  0.00    -0.310 N 
ATOM     20  HN  UNL     1       3.395  -2.111   2.092  1.00  0.00     0.186 HD
ENDBRANCH  14  15
ENDBRANCH  12  14
ENDBRANCH  10  12
ENDBRANCH   9  10
ENDBRANCH   6   9
ENDBRANCH   1   5
BRANCH   1  21
HETATM   21  C   UNL     1       3.594   3.570  -4.941  1.00  0.00     0.028 A 
HETATM   22  C   UNL     1       3.592   4.530  -6.121  1.00  0.00     0.009 A 
HETATM   23  C   UNL     1       2.470   4.577  -5.124  1.00  0.00     0.009 A 
ENDBRANCH   1  21
TORSDOF 7
