REMARK  6 active torsions:
REMARK  status: ('A' for Active; 'I' for Inactive)
REMARK    1  A    between atoms: N_1  and  C_9 
REMARK    2  A    between atoms: C_6  and  N_8 
REMARK    3  A    between atoms: C_15  and  C_25 
REMARK    4  A    between atoms: C_15  and  C_26 
REMARK    5  A    between atoms: C_25  and  O_27 
REMARK    6  A    between atoms: C_26  and  O_28 
ROOT
HETATM    1  N   UNL     1       1.589   1.094   0.031  1.00  0.00    -0.322 N 
HETATM    2  C   UNL     1       0.327  -0.680   0.073  1.00  0.00     0.122 A 
HETATM    3  C   UNL     1       0.269   0.709   0.030  1.00  0.00     0.140 A 
HETATM    4  N   UNL     1       1.631  -1.133   0.102  1.00  0.00    -0.346 N 
ATOM      5  HN  UNL     1       1.957  -2.099   0.144  1.00  0.00     0.167 HD
HETATM    6  C   UNL     1      -0.891  -1.403   0.063  1.00  0.00     0.135 A 
HETATM    7  C   UNL     1       2.356  -0.041   0.064  1.00  0.00     0.185 A 
HETATM    8  N   UNL     1      -0.846   1.459  -0.014  1.00  0.00    -0.336 N 
ATOM      9  HN  UNL     1      -0.857   2.479  -0.041  1.00  0.00     0.168 HD
HETATM   10  N   UNL     1      -2.037  -0.673   0.007  1.00  0.00    -0.337 N 
ATOM     11  HN  UNL     1      -2.946  -1.135  -0.017  1.00  0.00     0.168 HD
HETATM   12  C   UNL     1      -1.951   0.679  -0.017  1.00  0.00     0.183 A 
ENDROOT
BRANCH   1  13
HETATM   13  C   UNL     1       2.216   2.384   0.026  1.00  0.00     0.094 C 
HETATM   14  C   UNL     1       1.788   3.332   1.187  1.00  0.00     0.039 C 
HETATM   15  C   UNL     1       2.066   4.522   0.197  1.00  0.00     0.006 C 
HETATM   16  C   UNL     1       1.651   3.480  -0.916  1.00  0.00     0.039 C 
BRANCH  15  17
HETATM   17  C   UNL     1       1.190   5.767   0.353  1.00  0.00     0.175 C 
BRANCH  17  18
HETATM   18  O   UNL     1      -0.165   5.427   0.618  1.00  0.00    -0.400 OA
HETATM   19  H   UNL     1      -0.563   5.128  -0.216  1.00  0.00     0.209 HD
ENDBRANCH  17  18
ENDBRANCH  15  17
BRANCH  15  20
HETATM   20  C   UNL     1       3.548   4.956   0.187  1.00  0.00     0.175 C 
BRANCH  20  21
HETATM   21  O   UNL     1       3.845   5.627  -1.032  1.00  0.00    -0.400 OA
HETATM   22  H   UNL     1       4.114   4.956  -1.683  1.00  0.00     0.209 HD
ENDBRANCH  20  21
ENDBRANCH  15  20
ENDBRANCH   1  13
BRANCH   6  23
HETATM   23  N   UNL     1      -0.910  -2.812   0.068  1.00  0.00    -0.364 N 
HETATM   24  C   UNL     1      -2.061  -3.415  -0.603  1.00  0.00     0.129 C 
HETATM   25  C   UNL     1      -1.634  -4.668  -1.395  1.00  0.00     0.011 C 
HETATM   26  C   UNL     1      -1.593  -5.988  -0.619  1.00  0.00     0.114 C 
HETATM   27  C   UNL     1      -0.340  -4.448  -2.200  1.00  0.00     0.012 C 
HETATM   28  S   UNL     1      -1.409  -5.938   1.179  1.00  0.00     0.016 S 
HETATM   29  C   UNL     1      -0.010  -4.799   1.291  1.00  0.00     0.128 C 
HETATM   30  O   UNL     1      -0.930  -7.293   1.612  1.00  0.00    -0.258 OA
HETATM   31  C   UNL     1      -0.495  -3.354   1.371  1.00  0.00     0.137 C 
ENDBRANCH   6  23
TORSDOF 6
