REMARK  4 active torsions:
REMARK  status: ('A' for Active; 'I' for Inactive)
REMARK    1  A    between atoms: C_2  and  N_3 
REMARK       I    between atoms: N_3  and  C_4 
REMARK       I    between atoms: C_4  and  N_6 
REMARK    2  A    between atoms: N_6  and  C_7 
REMARK    3  A    between atoms: C_7  and  C_8 
REMARK    4  A    between atoms: C_14  and  N_15 
ROOT
HETATM    1  C   UNL     1       6.445   3.753   2.974  1.00  0.00     0.004 A 
HETATM    2  C   UNL     1       6.860   5.072   2.695  1.00  0.00     0.014 A 
HETATM    3  C   UNL     1       6.880   6.031   3.693  1.00  0.00     0.018 A 
HETATM    4  C   UNL     1       6.492   5.634   4.951  1.00  0.00     0.089 A 
HETATM    5  N   UNL     1       6.087   4.379   5.254  1.00  0.00    -0.352 N 
ATOM      6  HN  UNL     1       5.821   4.144   6.210  1.00  0.00     0.166 HD
HETATM    7  C   UNL     1       6.036   3.433   4.281  1.00  0.00     0.111 A 
ENDROOT
BRANCH   1   8
HETATM    8  C   UNL     1       6.554   2.768   1.839  1.00  0.00     0.166 C 
BRANCH   8   9
HETATM    9  N   UNL     1       7.488   1.705   2.117  1.00  0.00    -0.339 N 
HETATM   10  C   UNL     1       7.737   0.780   1.138  1.00  0.00     0.316 C 
HETATM   11  N   UNL     1       8.563  -0.217   1.582  1.00  0.00    -0.343 N 
HETATM   12  O   UNL     1       7.284   0.850   0.003  1.00  0.00    -0.247 OA
HETATM   13  H   UNL     1       9.147   0.036   2.364  1.00  0.00     0.164 HD
HETATM   14  H   UNL     1       7.513   1.367   3.069  1.00  0.00     0.164 HD
BRANCH  11  15
HETATM   15  C   UNL     1       9.114  -1.135   0.606  1.00  0.00     0.120 C 
HETATM   16  C   UNL     1       9.961  -2.211   1.251  1.00  0.00     0.026 C 
ENDBRANCH  11  15
ENDBRANCH   8   9
ENDBRANCH   1   8
BRANCH   7  17
HETATM   17  N   UNL     1       5.601   2.189   4.679  1.00  0.00    -0.363 N 
HETATM   18  C   UNL     1       4.761   1.303   3.870  1.00  0.00     0.150 C 
HETATM   19  C   UNL     1       3.611   0.699   4.688  1.00  0.00     0.187 C 
HETATM   20  O   UNL     1       4.071   0.104   5.907  1.00  0.00    -0.388 OA
HETATM   21  C   UNL     1       4.694   1.109   6.723  1.00  0.00     0.187 C 
HETATM   22  C   UNL     1       5.928   1.704   6.030  1.00  0.00     0.150 C 
ENDBRANCH   7  17
TORSDOF 4
