REMARK  3 active torsions:
REMARK  status: ('A' for Active; 'I' for Inactive)
REMARK       I    between atoms: C_2  and  N_3 
REMARK       I    between atoms: C_2  and  N_7 
REMARK    1  A    between atoms: N_3  and  C_4 
REMARK    2  A    between atoms: N_7  and  C_8 
REMARK    3  A    between atoms: C_12  and  C_16 
ROOT
HETATM    1  C   UNL     1       4.558  -1.054  -0.504  1.00  0.00     0.067 A 
HETATM    2  C   UNL     1       5.383   0.041  -0.662  1.00  0.00     0.120 A 
HETATM    3  N   UNL     1       6.735  -0.030  -0.697  1.00  0.00    -0.353 N 
ATOM      4  HN  UNL     1       7.305   0.807  -0.819  1.00  0.00     0.166 HD
HETATM    5  C   UNL     1       7.301  -1.246  -0.565  1.00  0.00     0.085 A 
HETATM    6  N   UNL     1       6.579  -2.380  -0.450  1.00  0.00    -0.353 N 
ATOM      7  HN  UNL     1       7.029  -3.293  -0.386  1.00  0.00     0.166 HD
HETATM    8  C   UNL     1       5.235  -2.253  -0.423  1.00  0.00     0.120 A 
ENDROOT
BRANCH   1   9
HETATM    9  N   UNL     1       3.150  -1.031  -0.413  1.00  0.00    -0.306 N 
HETATM   10  C   UNL     1       2.359   0.098  -0.386  1.00  0.00     0.321 C 
HETATM   11  O   UNL     1       2.762   1.253  -0.427  1.00  0.00    -0.247 OA
HETATM   12  N   UNL     1       1.015  -0.222  -0.282  1.00  0.00    -0.338 N 
HETATM   13  H   UNL     1       0.729  -1.134  -0.608  1.00  0.00     0.164 HD
HETATM   14  H   UNL     1       2.687  -1.909  -0.231  1.00  0.00     0.171 HD
BRANCH  12  15
HETATM   15  C   UNL     1       0.018   0.807  -0.288  1.00  0.00     0.086 A 
HETATM   16  C   UNL     1      -0.416   1.461   0.995  1.00  0.00     0.027 A 
HETATM   17  C   UNL     1      -1.360   0.555   0.260  1.00  0.00     0.027 A 
ENDBRANCH  12  15
ENDBRANCH   1   9
BRANCH   5  18
HETATM   18  C   UNL     1       8.806  -1.342  -0.509  1.00  0.00     0.053 A 
HETATM   19  C   UNL     1       9.471  -1.957   0.705  1.00  0.00     0.013 A 
HETATM   20  C   UNL     1       9.588  -0.483   0.462  1.00  0.00     0.013 A 
ENDBRANCH   5  18
TORSDOF 3
