REMARK  4 active torsions:
REMARK  status: ('A' for Active; 'I' for Inactive)
REMARK    1  A    between atoms: S_2  and  N_5 
REMARK    2  A    between atoms: C_8  and  C_9 
REMARK    3  A    between atoms: C_9  and  N_10 
REMARK       I    between atoms: N_10  and  C_11 
REMARK       I    between atoms: C_11  and  N_13 
REMARK    4  A    between atoms: N_13  and  C_14 
ROOT
HETATM    1  N   UNL     1       5.717  -3.766  -3.444  1.00  0.00    -0.342 N 
HETATM    2  C   UNL     1       5.694  -4.259  -4.711  1.00  0.00     0.321 C 
HETATM    3  O   UNL     1       5.610  -3.561  -5.713  1.00  0.00    -0.247 OA
HETATM    4  N   UNL     1       5.761  -5.623  -4.809  1.00  0.00    -0.295 N 
HETATM    5  H   UNL     1       5.830  -4.467  -2.718  1.00  0.00     0.164 HD
HETATM    6  H   UNL     1       5.731  -5.961  -5.759  1.00  0.00     0.172 HD
ENDROOT
BRANCH   1   7
HETATM    7  C   UNL     1       5.599  -2.397  -3.050  1.00  0.00     0.129 C 
BRANCH   7   8
HETATM    8  C   UNL     1       4.140  -1.931  -2.921  1.00  0.00     0.006 C 
HETATM    9  C   UNL     1       4.128  -0.437  -2.588  1.00  0.00     0.027 C 
HETATM   10  C   UNL     1       4.609  -0.201  -1.163  1.00  0.00     0.135 C 
HETATM   11  N   UNL     1       3.682  -0.848  -0.223  1.00  0.00    -0.311 N 
HETATM   12  C   UNL     1       3.510  -2.305  -0.420  1.00  0.00     0.135 C 
HETATM   13  C   UNL     1       3.289  -2.696  -1.884  1.00  0.00     0.027 C 
BRANCH  11  14
HETATM   14  S   UNL     1       2.416   0.085   0.398  1.00  0.00     0.224 S 
HETATM   15  C   UNL     1       3.316   1.150   1.515  1.00  0.00     0.186 C 
HETATM   16  O   UNL     1       1.570  -0.762   1.204  1.00  0.00    -0.206 OA
HETATM   17  O   UNL     1       1.877   0.906  -0.663  1.00  0.00    -0.206 OA
ENDBRANCH  11  14
ENDBRANCH   7   8
ENDBRANCH   1   7
BRANCH   4  18
HETATM   18  C   UNL     1       5.810  -6.550  -3.758  1.00  0.00     0.108 A 
HETATM   19  C   UNL     1       5.779  -7.906  -4.062  1.00  0.00     0.049 A 
HETATM   20  C   UNL     1       5.801  -8.820  -3.005  1.00  0.00     0.005 A 
HETATM   21  C   UNL     1       5.856  -8.366  -1.690  1.00  0.00     0.017 A 
HETATM   22  C   UNL     1       5.887  -7.003  -1.482  1.00  0.00     0.089 A 
HETATM   23  N   UNL     1       5.866  -6.101  -2.482  1.00  0.00    -0.352 N 
ATOM     24  HN  UNL     1       5.892  -5.101  -2.282  1.00  0.00     0.166 HD
ENDBRANCH   4  18
TORSDOF 4
