REMARK  5 active torsions:
REMARK  status: ('A' for Active; 'I' for Inactive)
REMARK    1  A    between atoms: C_2  and  C_3 
REMARK    2  A    between atoms: C_7  and  C_8 
REMARK    3  A    between atoms: C_8  and  C_9 
REMARK    4  A    between atoms: C_9  and  N_10 
REMARK    5  A    between atoms: N_10  and  C_11 
ROOT
HETATM    1  C   UNL     1       4.358  -0.794   4.574  1.00  0.00     0.095 C 
ENDROOT
BRANCH   1   2
HETATM    2  C   UNL     1       5.668  -0.194   4.993  1.00  0.00     0.052 A 
HETATM    3  N   UNL     1       6.592  -0.798   5.710  1.00  0.00    -0.363 N 
HETATM    4  C   UNL     1       7.619   0.068   5.996  1.00  0.00     0.103 A 
ATOM      5  HN  UNL     1       6.551  -1.772   6.011  1.00  0.00     0.165 HD
HETATM    6  C   UNL     1       7.478   1.343   5.492  1.00  0.00    -0.001 A 
HETATM    7  S   UNL     1       6.015   1.449   4.605  1.00  0.00    -0.080 SA
BRANCH   6   8
HETATM    8  C   UNL     1       8.385   2.515   5.648  1.00  0.00     0.043 C 
HETATM    9  C   UNL     1       9.453   2.546   4.567  1.00  0.00     0.010 C 
ENDBRANCH   6   8
ENDBRANCH   1   2
BRANCH   1  10
HETATM   10  C   UNL     1       4.404  -2.306   4.312  1.00  0.00     0.276 C 
BRANCH  10  11
HETATM   11  N   UNL     1       4.695  -3.095   5.502  1.00  0.00     0.089 N 
HETATM   12  H   UNL     1       4.134  -2.830   6.310  1.00  0.00     0.316 HD
BRANCH  11  13
HETATM   13  C   UNL     1       4.733  -4.546   5.313  1.00  0.00     0.229 C 
HETATM   14  C   UNL     1       3.372  -5.140   4.909  1.00  0.00     0.037 C 
HETATM   15  C   UNL     1       2.277  -4.923   5.954  1.00  0.00     0.012 C 
HETATM   16  C   UNL     1       2.590  -5.597   7.284  1.00  0.00     0.074 C 
HETATM   17  S   UNL     1       4.131  -4.997   8.032  1.00  0.00    -0.167 SA
HETATM   18  C   UNL     1       5.249  -5.221   6.602  1.00  0.00     0.109 C 
ENDBRANCH  11  13
ENDBRANCH  10  11
ENDBRANCH   1  10
TORSDOF 5
