REMARK  5 active torsions:
REMARK  status: ('A' for Active; 'I' for Inactive)
REMARK    1  A    between atoms: C_9  and  C_10 
REMARK    2  A    between atoms: C_10  and  C_11 
REMARK       I    between atoms: C_11  and  N_13 
REMARK    3  A    between atoms: N_13  and  C_14 
REMARK    4  A    between atoms: C_14  and  C_15 
REMARK    5  A    between atoms: C_15  and  N_16 
ROOT
HETATM    1  C   UNL     1       1.907   3.003   0.153  1.00  0.00     0.222 C 
HETATM    2  O   UNL     1       1.040   2.135   0.106  1.00  0.00    -0.273 OA
HETATM    3  N   UNL     1       1.624   4.336   0.367  1.00  0.00    -0.359 N 
HETATM    4  H   UNL     1       2.352   5.013   0.175  1.00  0.00     0.162 HD
ENDROOT
BRANCH   1   5
HETATM    5  C   UNL     1       3.380   2.671   0.026  1.00  0.00     0.145 C 
BRANCH   5   6
HETATM    6  C   UNL     1       3.900   2.525  -1.372  1.00  0.00    -0.002 A 
HETATM    7  C   UNL     1       3.239   2.131  -2.574  1.00  0.00     0.030 A 
HETATM    8  C   UNL     1       1.817   1.767  -2.809  1.00  0.00     0.070 C 
HETATM    9  N   UNL     1       4.085   2.084  -3.609  1.00  0.00    -0.303 N 
HETATM   10  N   UNL     1       5.277   2.399  -3.091  1.00  0.00    -0.300 N 
ATOM     11  HN  UNL     1       3.869   1.858  -4.580  1.00  0.00     0.186 HD
HETATM   12  C   UNL     1       6.437   2.378  -3.952  1.00  0.00     0.177 C 
HETATM   13  C   UNL     1       5.228   2.689  -1.754  1.00  0.00     0.033 A 
HETATM   14  C   UNL     1       6.420   3.060  -0.945  1.00  0.00     0.070 C 
ENDBRANCH   5   6
ENDBRANCH   1   5
BRANCH   3  15
HETATM   15  C   UNL     1       0.251   4.822   0.440  1.00  0.00     0.152 C 
BRANCH  15  16
HETATM   16  C   UNL     1      -0.503   4.368   1.712  1.00  0.00     0.292 C 
BRANCH  16  17
HETATM   17  N   UNL     1      -1.925   4.767   1.759  1.00  0.00     0.090 N 
HETATM   18  C   UNL     1      -2.158   6.215   1.745  1.00  0.00     0.272 C 
HETATM   19  C   UNL     1      -1.735   6.915   3.036  1.00  0.00     0.030 C 
HETATM   20  C   UNL     1      -2.427   6.292   4.245  1.00  0.00     0.003 C 
HETATM   21  C   UNL     1      -2.260   4.775   4.258  1.00  0.00     0.030 C 
HETATM   22  C   UNL     1      -2.619   4.153   2.905  1.00  0.00     0.272 C 
ENDBRANCH  16  17
ENDBRANCH  15  16
ENDBRANCH   3  15
TORSDOF 5
