REMARK  5 active torsions:
REMARK  status: ('A' for Active; 'I' for Inactive)
REMARK    1  A    between atoms: N_7  and  C_8 
REMARK    2  A    between atoms: C_8  and  C_9 
REMARK       I    between atoms: C_9  and  N_11 
REMARK    3  A    between atoms: N_11  and  C_12 
REMARK    4  A    between atoms: C_12  and  C_13 
REMARK    5  A    between atoms: C_13  and  C_14 
ROOT
HETATM    1  C   UNL     1       1.291  -2.469  -0.161  1.00  0.00     0.235 C 
HETATM    2  O   UNL     1       0.568  -1.484  -0.322  1.00  0.00    -0.272 OA
HETATM    3  N   UNL     1       0.780  -3.760  -0.097  1.00  0.00    -0.359 N 
HETATM    4  H   UNL     1       1.402  -4.560  -0.182  1.00  0.00     0.162 HD
ENDROOT
BRANCH   1   5
HETATM    5  C   UNL     1       2.805  -2.318  -0.044  1.00  0.00     0.235 C 
BRANCH   5   6
HETATM    6  N   UNL     1       3.497  -2.270  -1.315  1.00  0.00    -0.303 N 
HETATM    7  C   UNL     1       3.799  -1.126  -2.044  1.00  0.00     0.018 A 
HETATM    8  C   UNL     1       3.333   0.240  -1.657  1.00  0.00     0.069 C 
HETATM    9  C   UNL     1       4.544  -1.376  -3.130  1.00  0.00     0.080 A 
HETATM   10  S   UNL     1       4.896  -3.065  -3.310  1.00  0.00    -0.039 SA
HETATM   11  C   UNL     1       3.975  -3.454  -1.853  1.00  0.00     0.290 A 
HETATM   12  O   UNL     1       3.814  -4.581  -1.422  1.00  0.00    -0.259 OA
ENDBRANCH   5   6
ENDBRANCH   1   5
BRANCH   3  13
HETATM   13  C   UNL     1      -0.667  -3.919  -0.124  1.00  0.00     0.127 C 
BRANCH  13  14
HETATM   14  C   UNL     1      -1.226  -5.350  -0.149  1.00  0.00     0.053 C 
BRANCH  14  15
HETATM   15  C   UNL     1      -2.758  -5.360  -0.098  1.00  0.00    -0.082 A 
HETATM   16  C   UNL     1      -3.428  -5.944   0.908  1.00  0.00    -0.024 A 
HETATM   17  C   UNL     1      -4.916  -5.990   1.039  1.00  0.00     0.027 A 
HETATM   18  C   UNL     1      -5.740  -5.302  -0.043  1.00  0.00     0.004 A 
HETATM   19  C   UNL     1      -5.007  -4.636  -1.200  1.00  0.00     0.005 A 
HETATM   20  C   UNL     1      -3.478  -4.687  -1.235  1.00  0.00     0.034 A 
ENDBRANCH  14  15
ENDBRANCH  13  14
ENDBRANCH   3  13
TORSDOF 5
