REMARK  4 active torsions:
REMARK  status: ('A' for Active; 'I' for Inactive)
REMARK    1  A    between atoms: C_2  and  C_5 
REMARK    2  A    between atoms: N_8  and  C_9 
REMARK    3  A    between atoms: C_9  and  C_10 
REMARK       I    between atoms: C_10  and  N_12 
REMARK    4  A    between atoms: N_12  and  C_13 
ROOT
HETATM    1  C   UNL     1       1.780   0.542   6.696  1.00  0.00     0.133 A 
HETATM    2  C   UNL     1       0.840   0.092   5.731  1.00  0.00     0.054 A 
HETATM    3  C   UNL     1       1.574  -0.590   4.793  1.00  0.00     0.113 A 
HETATM    4  N   UNL     1       2.870  -0.538   5.213  1.00  0.00    -0.294 N 
HETATM    5  N   UNL     1       3.025   0.130   6.374  1.00  0.00    -0.294 N 
ATOM      6  HN  UNL     1       3.889   0.289   6.893  1.00  0.00     0.187 HD
ENDROOT
BRANCH   4   7
HETATM    7  C   UNL     1       4.040  -1.015   4.506  1.00  0.00     0.250 C 
BRANCH   7   8
HETATM    8  C   UNL     1       4.001  -2.508   4.290  1.00  0.00     0.237 C 
HETATM    9  O   UNL     1       3.450  -3.007   3.312  1.00  0.00    -0.272 OA
HETATM   10  N   UNL     1       4.660  -3.256   5.248  1.00  0.00    -0.355 N 
HETATM   11  H   UNL     1       4.852  -2.824   6.146  1.00  0.00     0.162 HD
BRANCH  10  12
HETATM   12  C   UNL     1       4.719  -4.700   5.155  1.00  0.00     0.084 C 
HETATM   13  C   UNL     1       3.511  -5.403   5.778  1.00  0.00     0.025 C 
HETATM   14  C   UNL     1       4.037  -6.746   6.293  1.00  0.00     0.002 C 
HETATM   15  C   UNL     1       5.533  -6.761   5.996  1.00  0.00     0.002 C 
HETATM   16  C   UNL     1       5.909  -5.292   5.900  1.00  0.00     0.025 C 
ENDBRANCH  10  12
ENDBRANCH   7   8
ENDBRANCH   4   7
BRANCH   1  17
HETATM   17  C   UNL     1       1.486   1.374   7.917  1.00  0.00     0.433 C 
HETATM   18  F   UNL     1       0.161   1.676   8.018  1.00  0.00    -0.165 F 
HETATM   19  F   UNL     1       2.148   2.562   7.909  1.00  0.00    -0.165 F 
HETATM   20  F   UNL     1       1.823   0.740   9.072  1.00  0.00    -0.165 F 
ENDBRANCH   1  17
TORSDOF 4
