REMARK  5 active torsions:
REMARK  status: ('A' for Active; 'I' for Inactive)
REMARK    1  A    between atoms: C_2  and  C_3 
REMARK    2  A    between atoms: C_2  and  N_18 
REMARK    3  A    between atoms: C_3  and  N_4 
REMARK       I    between atoms: N_4  and  C_5 
REMARK       I    between atoms: C_5  and  N_7 
REMARK    4  A    between atoms: N_7  and  C_8 
REMARK    5  A    between atoms: C_11  and  N_15 
ROOT
HETATM    1  N   UNL     1       2.706   2.318  -1.269  1.00  0.00    -0.341 N 
HETATM    2  C   UNL     1       3.040   3.651  -1.212  1.00  0.00     0.320 C 
HETATM    3  O   UNL     1       3.571   4.143  -0.226  1.00  0.00    -0.247 OA
HETATM    4  N   UNL     1       2.737   4.304  -2.387  1.00  0.00    -0.308 N 
HETATM    5  H   UNL     1       1.931   2.064  -1.864  1.00  0.00     0.164 HD
HETATM    6  H   UNL     1       2.669   3.719  -3.207  1.00  0.00     0.170 HD
ENDROOT
BRANCH   1   7
HETATM    7  C   UNL     1       2.960   1.473  -0.105  1.00  0.00     0.159 C 
BRANCH   7   8
HETATM    8  C   UNL     1       4.440   0.984  -0.033  1.00  0.00     0.236 C 
HETATM    9  C   UNL     1       4.674   0.076  -1.260  1.00  0.00     0.044 C 
BRANCH   8  10
HETATM   10  N   UNL     1       4.753   0.270   1.241  1.00  0.00     0.098 N 
HETATM   11  C   UNL     1       4.595   1.136   2.443  1.00  0.00     0.299 C 
HETATM   12  C   UNL     1       5.665   2.237   2.568  1.00  0.00     0.198 C 
HETATM   13  O   UNL     1       6.985   1.676   2.586  1.00  0.00    -0.388 OA
HETATM   14  C   UNL     1       7.213   0.864   1.428  1.00  0.00     0.198 C 
HETATM   15  C   UNL     1       6.149  -0.242   1.304  1.00  0.00     0.299 C 
ENDBRANCH   8  10
ENDBRANCH   7   8
ENDBRANCH   1   7
BRANCH   4  16
HETATM   16  C   UNL     1       2.859   5.696  -2.589  1.00  0.00     0.051 A 
HETATM   17  C   UNL     1       2.943   6.612  -1.556  1.00  0.00     0.035 A 
HETATM   18  C   UNL     1       3.127   7.973  -1.839  1.00  0.00     0.050 A 
HETATM   19  C   UNL     1       3.201   8.429  -3.151  1.00  0.00     0.102 A 
HETATM   20  N   UNL     1       3.060   7.539  -4.163  1.00  0.00    -0.350 N 
HETATM   21  C   UNL     1       2.898   6.221  -3.873  1.00  0.00     0.119 A 
ATOM     22  HN  UNL     1       3.075   7.855  -5.133  1.00  0.00     0.166 HD
BRANCH  19  23
HETATM   23  N   UNL     1       3.502   9.748  -3.453  1.00  0.00    -0.376 N 
HETATM   24  C   UNL     1       3.512  10.136  -4.861  1.00  0.00     0.150 C 
HETATM   25  C   UNL     1       3.267  10.841  -2.520  1.00  0.00     0.150 C 
ENDBRANCH  19  23
ENDBRANCH   4  16
TORSDOF 5
