REMARK  7 active torsions:
REMARK  status: ('A' for Active; 'I' for Inactive)
REMARK    1  A    between atoms: C_2  and  C_5 
REMARK    2  A    between atoms: C_8  and  C_9 
REMARK    3  A    between atoms: C_9  and  C_10 
REMARK    4  A    between atoms: C_10  and  N_11 
REMARK    5  A    between atoms: N_11  and  C_12 
REMARK    6  A    between atoms: C_12  and  C_13 
REMARK    7  A    between atoms: C_12  and  C_16 
ROOT
HETATM    1  C   UNL     1       2.955  -4.302   2.476  1.00  0.00     0.095 C 
ENDROOT
BRANCH   1   2
HETATM    2  C   UNL     1       3.019  -2.828   2.204  1.00  0.00     0.052 A 
HETATM    3  S   UNL     1       1.709  -1.802   2.638  1.00  0.00    -0.086 SA
HETATM    4  C   UNL     1       2.548  -0.464   1.977  1.00  0.00     0.085 A 
HETATM    5  C   UNL     1       3.775  -0.857   1.472  1.00  0.00     0.123 A 
HETATM    6  N   UNL     1       4.029  -2.228   1.613  1.00  0.00    -0.350 N 
ATOM      7  HN  UNL     1       4.880  -2.696   1.300  1.00  0.00     0.166 HD
BRANCH   5   8
HETATM    8  C   UNL     1       4.782   0.041   0.816  1.00  0.00     0.433 C 
HETATM    9  F   UNL     1       4.350   1.331   0.757  1.00  0.00    -0.165 F 
HETATM   10  F   UNL     1       5.053  -0.330  -0.462  1.00  0.00    -0.165 F 
HETATM   11  F   UNL     1       5.963   0.065   1.485  1.00  0.00    -0.165 F 
ENDBRANCH   5   8
ENDBRANCH   1   2
BRANCH   1  12
HETATM   12  C   UNL     1       2.350  -5.038   1.275  1.00  0.00     0.276 C 
BRANCH  12  13
HETATM   13  N   UNL     1       2.183  -6.471   1.547  1.00  0.00     0.089 N 
HETATM   14  H   UNL     1       1.616  -6.615   2.379  1.00  0.00     0.316 HD
BRANCH  13  15
HETATM   15  C   UNL     1       1.579  -7.195   0.420  1.00  0.00     0.228 C 
BRANCH  15  16
HETATM   16  C   UNL     1       1.535  -8.654   0.813  1.00  0.00     0.019 A 
HETATM   17  C   UNL     1       2.807  -9.427   1.081  1.00  0.00     0.007 A 
HETATM   18  C   UNL     1       2.003  -9.720  -0.153  1.00  0.00     0.007 A 
ENDBRANCH  15  16
BRANCH  15  19
HETATM   19  C   UNL     1       0.193  -6.656   0.153  1.00  0.00     0.019 A 
HETATM   20  C   UNL     1      -0.675  -7.147  -0.979  1.00  0.00     0.007 A 
HETATM   21  C   UNL     1      -0.032  -5.794  -1.072  1.00  0.00     0.007 A 
ENDBRANCH  15  19
ENDBRANCH  13  15
ENDBRANCH  12  13
ENDBRANCH   1  12
TORSDOF 7
