REMARK  4 active torsions:
REMARK  status: ('A' for Active; 'I' for Inactive)
REMARK    1  A    between atoms: C_2  and  N_3 
REMARK    2  A    between atoms: N_6  and  C_7 
REMARK    3  A    between atoms: C_7  and  C_8 
REMARK    4  A    between atoms: C_8  and  O_10 
ROOT
HETATM    1  N   UNL     1       2.826  -0.997  -1.007  1.00  0.00    -0.298 N 
HETATM    2  C   UNL     1       3.369  -0.536  -2.226  1.00  0.00     0.330 A 
HETATM    3  O   UNL     1       3.579   0.623  -2.548  1.00  0.00    -0.246 OA
HETATM    4  N   UNL     1       3.606  -1.684  -3.013  1.00  0.00    -0.295 N 
HETATM    5  C   UNL     1       3.174  -2.816  -2.309  1.00  0.00     0.066 A 
HETATM    6  C   UNL     1       3.159  -4.146  -2.674  1.00  0.00     0.032 A 
HETATM    7  C   UNL     1       2.648  -5.060  -1.746  1.00  0.00     0.002 A 
HETATM    8  C   UNL     1       2.179  -4.632  -0.487  1.00  0.00     0.002 A 
HETATM    9  C   UNL     1       2.201  -3.280  -0.133  1.00  0.00     0.032 A 
HETATM   10  C   UNL     1       2.698  -2.392  -1.065  1.00  0.00     0.065 A 
ENDROOT
BRANCH   4  11
HETATM   11  C   UNL     1       4.179  -1.669  -4.334  1.00  0.00     0.165 C 
BRANCH  11  12
HETATM   12  C   UNL     1       3.150  -1.690  -5.475  1.00  0.00     0.132 C 
HETATM   13  C   UNL     1       2.245  -0.466  -5.510  1.00  0.00     0.041 C 
BRANCH  12  14
HETATM   14  O   UNL     1       3.840  -1.779  -6.728  1.00  0.00    -0.394 OA
HETATM   15  H   UNL     1       4.262  -0.919  -6.895  1.00  0.00     0.210 HD
ENDBRANCH  12  14
ENDBRANCH  11  12
ENDBRANCH   4  11
BRANCH   1  16
HETATM   16  C   UNL     1       2.364  -0.150   0.062  1.00  0.00     0.130 C 
HETATM   17  C   UNL     1       0.868   0.107  -0.021  1.00  0.00     0.027 C 
ENDBRANCH   1  16
TORSDOF 4
