REMARK  5 active torsions:
REMARK  status: ('A' for Active; 'I' for Inactive)
REMARK    1  A    between atoms: C_2  and  C_4 
REMARK    2  A    between atoms: C_4  and  C_5 
REMARK    3  A    between atoms: C_4  and  N_18 
REMARK    4  A    between atoms: C_5  and  N_6 
REMARK       I    between atoms: N_6  and  C_7 
REMARK       I    between atoms: C_7  and  N_9 
REMARK    5  A    between atoms: N_9  and  C_10 
ROOT
HETATM    1  N   UNL     1       2.810   3.526   1.008  1.00  0.00    -0.341 N 
HETATM    2  C   UNL     1       2.479   4.419   2.008  1.00  0.00     0.320 C 
HETATM    3  O   UNL     1       1.757   4.096   2.945  1.00  0.00    -0.247 OA
HETATM    4  N   UNL     1       3.003   5.673   1.784  1.00  0.00    -0.309 N 
HETATM    5  H   UNL     1       3.746   3.591   0.630  1.00  0.00     0.164 HD
HETATM    6  H   UNL     1       3.269   5.858   0.829  1.00  0.00     0.170 HD
ENDROOT
BRANCH   1   7
HETATM    7  C   UNL     1       2.282   2.173   1.129  1.00  0.00     0.149 C 
BRANCH   7   8
HETATM    8  C   UNL     1       2.780   1.201   0.024  1.00  0.00     0.100 C 
BRANCH   8   9
HETATM    9  C   UNL     1       2.078  -0.204   0.121  1.00  0.00     0.001 C 
HETATM   10  C   UNL     1       2.394  -1.029   1.371  1.00  0.00     0.011 C 
HETATM   11  C   UNL     1       0.546  -0.108  -0.001  1.00  0.00     0.011 C 
ENDBRANCH   8   9
BRANCH   8  12
HETATM   12  N   UNL     1       4.255   1.280  -0.131  1.00  0.00    -0.402 N 
HETATM   13  C   UNL     1       4.825   0.598  -1.301  1.00  0.00     0.143 C 
HETATM   14  C   UNL     1       5.258  -0.848  -1.023  1.00  0.00     0.187 C 
HETATM   15  O   UNL     1       6.200  -0.910   0.054  1.00  0.00    -0.388 OA
HETATM   16  C   UNL     1       5.688  -0.319   1.251  1.00  0.00     0.187 C 
HETATM   17  C   UNL     1       5.136   1.098   1.032  1.00  0.00     0.143 C 
ENDBRANCH   8  12
ENDBRANCH   7   8
ENDBRANCH   1   7
BRANCH   4  18
HETATM   18  C   UNL     1       2.837   6.783   2.651  1.00  0.00     0.039 A 
HETATM   19  C   UNL     1       2.490   6.654   3.991  1.00  0.00     0.046 A 
HETATM   20  C   UNL     1       2.300   7.800   4.737  1.00  0.00     0.090 A 
HETATM   21  N   UNL     1       2.426   9.045   4.238  1.00  0.00    -0.369 N 
HETATM   22  C   UNL     1       2.776   9.169   2.939  1.00  0.00     0.007 A 
ATOM     23  HN  UNL     1       2.263   9.866   4.821  1.00  0.00     0.165 HD
HETATM   24  C   UNL     1       2.859  10.558   2.397  1.00  0.00     0.068 C 
HETATM   25  C   UNL     1       3.006   8.067   2.123  1.00  0.00     0.054 A 
ENDBRANCH   4  18
TORSDOF 5
