REMARK  4 active torsions:
REMARK  status: ('A' for Active; 'I' for Inactive)
REMARK    1  A    between atoms: C_5  and  N_6 
REMARK       I    between atoms: N_6  and  C_7 
REMARK       I    between atoms: C_7  and  N_9 
REMARK    2  A    between atoms: N_9  and  C_10 
REMARK    3  A    between atoms: C_10  and  C_11 
REMARK    4  A    between atoms: C_14  and  C_16 
REMARK       I    between atoms: C_16  and  N_18 
ROOT
HETATM    1  N   UNL     1       6.205  -1.700   0.716  1.00  0.00    -0.289 N 
HETATM    2  C   UNL     1       6.105  -3.035   1.009  1.00  0.00     0.322 C 
HETATM    3  O   UNL     1       5.630  -3.532   2.023  1.00  0.00    -0.247 OA
HETATM    4  N   UNL     1       6.575  -3.820  -0.025  1.00  0.00    -0.340 N 
HETATM    5  H   UNL     1       6.376  -1.407  -0.230  1.00  0.00     0.172 HD
HETATM    6  H   UNL     1       7.224  -3.427  -0.690  1.00  0.00     0.164 HD
ENDROOT
BRANCH   4   7
HETATM    7  C   UNL     1       6.494  -5.271   0.039  1.00  0.00     0.156 C 
BRANCH   7   8
HETATM    8  C   UNL     1       7.860  -5.956   0.081  1.00  0.00     0.140 C 
HETATM    9  C   UNL     1       8.797  -5.526   1.200  1.00  0.00     0.036 C 
HETATM   10  C   UNL     1      10.177  -5.514   0.567  1.00  0.00     0.044 C 
HETATM   11  C   UNL     1       9.959  -5.992  -0.859  1.00  0.00     0.213 C 
HETATM   12  O   UNL     1       8.578  -5.719  -1.148  1.00  0.00    -0.370 OA
BRANCH  11  13
HETATM   13  C   UNL     1      10.298  -7.485  -1.048  1.00  0.00     0.244 C 
HETATM   14  O   UNL     1      11.119  -8.105  -0.382  1.00  0.00    -0.271 OA
HETATM   15  N   UNL     1       9.644  -8.083  -2.090  1.00  0.00    -0.368 N 
HETATM   16  H   UNL     1       8.827  -7.635  -2.487  1.00  0.00     0.159 HD
HETATM   17  H   UNL     1       9.766  -9.080  -2.209  1.00  0.00     0.159 HD
ENDBRANCH  11  13
ENDBRANCH   7   8
ENDBRANCH   4   7
BRANCH   1  18
HETATM   18  C   UNL     1       5.769  -0.749   1.597  1.00  0.00     0.152 A 
HETATM   19  S   UNL     1       5.608   0.816   0.936  1.00  0.00    -0.064 SA
HETATM   20  C   UNL     1       5.009   1.368   2.450  1.00  0.00     0.077 A 
HETATM   21  C   UNL     1       5.021   0.332   3.366  1.00  0.00     0.014 A 
HETATM   22  C   UNL     1       4.615   0.381   4.793  1.00  0.00     0.068 C 
HETATM   23  N   UNL     1       5.464  -0.875   2.860  1.00  0.00    -0.340 N 
ATOM     24  HN  UNL     1       5.542  -1.739   3.396  1.00  0.00     0.167 HD
ENDBRANCH   1  18
TORSDOF 4
