REMARK  3 active torsions:
REMARK  status: ('A' for Active; 'I' for Inactive)
REMARK    1  A    between atoms: N_6  and  C_7 
REMARK    2  A    between atoms: C_7  and  C_8 
REMARK       I    between atoms: C_8  and  N_10 
REMARK    3  A    between atoms: N_10  and  C_11 
ROOT
HETATM    1  C   UNL     1       6.841   0.002   0.290  1.00  0.00     0.255 C 
ENDROOT
BRANCH   1   2
HETATM    2  N   UNL     1       7.607   1.071  -0.352  1.00  0.00    -0.248 N 
HETATM    3  N   UNL     1       7.206   1.411  -1.623  1.00  0.00    -0.305 N 
HETATM    4  C   UNL     1       7.865   2.348  -2.217  1.00  0.00     0.133 A 
ATOM      5  HN  UNL     1       6.422   0.943  -2.076  1.00  0.00     0.186 HD
HETATM    6  C   UNL     1       8.987   3.096  -1.646  1.00  0.00     0.078 A 
HETATM    7 CL   UNL     1       9.682   4.327  -2.623  1.00  0.00    -0.081 Cl
HETATM    8  C   UNL     1       9.379   2.760  -0.420  1.00  0.00     0.126 A 
HETATM    9  C   UNL     1       8.691   1.647   0.301  1.00  0.00     0.285 A 
HETATM   10 CL   UNL     1      10.668   3.557   0.412  1.00  0.00    -0.076 Cl
HETATM   11  O   UNL     1       9.092   1.247   1.394  1.00  0.00    -0.265 OA
ENDBRANCH   1   2
BRANCH   1  12
HETATM   12  C   UNL     1       7.337  -1.390  -0.104  1.00  0.00     0.237 C 
HETATM   13  O   UNL     1       6.574  -2.253  -0.531  1.00  0.00    -0.272 OA
HETATM   14  N   UNL     1       8.661  -1.634   0.198  1.00  0.00    -0.355 N 
HETATM   15  H   UNL     1       9.189  -0.878   0.624  1.00  0.00     0.162 HD
BRANCH  14  16
HETATM   16  C   UNL     1       9.333  -2.914   0.062  1.00  0.00     0.084 C 
HETATM   17  C   UNL     1       8.605  -4.093   0.719  1.00  0.00     0.025 C 
HETATM   18  C   UNL     1       9.539  -5.301   0.783  1.00  0.00     0.002 C 
HETATM   19  C   UNL     1      10.105  -5.672  -0.590  1.00  0.00     0.000 C 
HETATM   20  C   UNL     1      10.645  -4.474  -1.377  1.00  0.00     0.002 C 
HETATM   21  C   UNL     1       9.681  -3.285  -1.382  1.00  0.00     0.025 C 
ENDBRANCH  14  16
ENDBRANCH   1  12
TORSDOF 3
