REMARK  5 active torsions:
REMARK  status: ('A' for Active; 'I' for Inactive)
REMARK    1  A    between atoms: C_3  and  C_4 
REMARK    2  A    between atoms: C_4  and  C_5 
REMARK    3  A    between atoms: C_5  and  N_6 
REMARK    4  A    between atoms: N_6  and  C_7 
REMARK    5  A    between atoms: C_7  and  C_8 
ROOT
HETATM    1  C   UNL     1       3.966   3.476   0.089  1.00  0.00     0.274 C 
ENDROOT
BRANCH   1   2
HETATM    2  C   UNL     1       2.805   2.481  -0.031  1.00  0.00     0.072 C 
BRANCH   2   3
HETATM    3  C   UNL     1       3.260   1.068  -0.045  1.00  0.00    -0.016 A 
HETATM    4  C   UNL     1       3.483   0.232   1.037  1.00  0.00     0.032 A 
HETATM    5  C   UNL     1       3.376   0.473   2.498  1.00  0.00     0.070 C 
HETATM    6  N   UNL     1       3.835  -0.979   0.495  1.00  0.00    -0.301 N 
HETATM    7  N   UNL     1       3.886  -0.972  -0.849  1.00  0.00    -0.309 N 
HETATM    8  C   UNL     1       4.136  -2.198   1.210  1.00  0.00     0.177 C 
HETATM    9  C   UNL     1       3.530   0.269  -1.175  1.00  0.00     0.116 A 
ATOM     10  HN  UNL     1       4.138  -1.738  -1.473  1.00  0.00     0.186 HD
ENDBRANCH   2   3
ENDBRANCH   1   2
BRANCH   1  11
HETATM   11  N   UNL     1       3.535   4.878   0.090  1.00  0.00     0.084 N 
HETATM   12  H   UNL     1       3.038   5.088  -0.775  1.00  0.00     0.315 HD
BRANCH  11  13
HETATM   13  C   UNL     1       2.687   5.204   1.236  1.00  0.00     0.274 C 
BRANCH  13  14
HETATM   14  C   UNL     1       2.278   6.687   1.220  1.00  0.00     0.017 C 
HETATM   15  C   UNL     1       3.513   7.591   1.341  1.00  0.00     0.010 C 
HETATM   16  C   UNL     1       3.208   9.060   1.635  1.00  0.00     0.027 C 
HETATM   17  C   UNL     1       1.912   9.321   2.337  1.00  0.00    -0.031 C 
HETATM   18  C   UNL     1       1.030   8.367   2.655  1.00  0.00    -0.030 C 
HETATM   19  C   UNL     1       1.243   6.925   2.333  1.00  0.00     0.033 C 
ENDBRANCH  13  14
ENDBRANCH  11  13
ENDBRANCH   1  11
TORSDOF 5
