REMARK  6 active torsions:
REMARK  status: ('A' for Active; 'I' for Inactive)
REMARK    1  A    between atoms: C_2  and  C_3 
REMARK    2  A    between atoms: C_3  and  C_5 
REMARK    3  A    between atoms: C_3  and  N_18 
REMARK    4  A    between atoms: C_5  and  N_6 
REMARK       I    between atoms: N_6  and  C_7 
REMARK    5  A    between atoms: C_7  and  C_9 
REMARK    6  A    between atoms: C_9  and  N_10 
ROOT
HETATM    1  N   UNL     1       3.065   2.345   2.887  1.00  0.00    -0.357 N 
HETATM    2  C   UNL     1       2.383   3.438   3.398  1.00  0.00     0.237 C 
HETATM    3  O   UNL     1       1.159   3.528   3.390  1.00  0.00    -0.272 OA
HETATM    4  H   UNL     1       4.052   2.447   2.675  1.00  0.00     0.162 HD
ENDROOT
BRANCH   1   5
HETATM    5  C   UNL     1       2.384   1.278   2.155  1.00  0.00     0.164 C 
BRANCH   5   6
HETATM    6  C   UNL     1       2.811   1.210   0.641  1.00  0.00     0.171 C 
HETATM    7  C   UNL     1       2.304   2.534  -0.001  1.00  0.00     0.051 C 
BRANCH   6   8
HETATM    8  C   UNL     1       2.100   0.022  -0.070  1.00  0.00     0.038 C 
HETATM    9  C   UNL     1       0.589  -0.104   0.089  1.00  0.00     0.007 C 
ENDBRANCH   6   8
BRANCH   6  10
HETATM   10  N   UNL     1       4.310   1.160   0.508  1.00  0.00     0.103 N 
HETATM   11  C   UNL     1       4.871   1.169  -0.864  1.00  0.00     0.299 C 
HETATM   12  C   UNL     1       5.035  -0.217  -1.517  1.00  0.00     0.198 C 
HETATM   13  O   UNL     1       5.819  -1.092  -0.701  1.00  0.00    -0.388 OA
HETATM   14  C   UNL     1       5.249  -1.225   0.604  1.00  0.00     0.198 C 
HETATM   15  C   UNL     1       5.053   0.141   1.285  1.00  0.00     0.299 C 
ENDBRANCH   6  10
ENDBRANCH   5   6
ENDBRANCH   1   5
BRANCH   2  16
HETATM   16  C   UNL     1       3.278   4.518   4.012  1.00  0.00     0.255 C 
BRANCH  16  17
HETATM   17  N   UNL     1       2.956   5.825   3.460  1.00  0.00    -0.246 N 
HETATM   18  N   UNL     1       2.018   6.585   4.174  1.00  0.00    -0.261 N 
HETATM   19  C   UNL     1       1.585   7.812   3.751  1.00  0.00     0.260 A 
HETATM   20  H   UNL     1       1.501   6.151   4.933  1.00  0.00     0.190 HD
HETATM   21  O   UNL     1       0.724   8.456   4.336  1.00  0.00    -0.267 OA
HETATM   22  C   UNL     1       2.227   8.344   2.534  1.00  0.00     0.081 A 
HETATM   23  C   UNL     1       3.131   7.629   1.858  1.00  0.00     0.081 A 
HETATM   24  C   UNL     1       3.542   6.282   2.301  1.00  0.00     0.262 A 
HETATM   25  O   UNL     1       4.367   5.650   1.649  1.00  0.00    -0.267 OA
ENDBRANCH  16  17
ENDBRANCH   2  16
TORSDOF 6
