REMARK  7 active torsions:
REMARK  status: ('A' for Active; 'I' for Inactive)
REMARK    1  A    between atoms: N_1  and  C_12 
REMARK    2  A    between atoms: N_2  and  C_14 
REMARK    3  A    between atoms: C_4  and  C_13 
REMARK    4  A    between atoms: N_8  and  C_20 
REMARK    5  A    between atoms: C_12  and  C_13 
REMARK    6  A    between atoms: C_20  and  C_26 
REMARK    7  A    between atoms: O_24  and  C_26 
ROOT
HETATM    1  C   UNL     1      -3.280   3.174  -1.442  1.00  0.00     0.221 C 
ENDROOT
BRANCH   1   2
HETATM    2  N   UNL     1      -2.241   3.286  -2.479  1.00  0.00    -0.256 N 
HETATM    3  C   UNL     1      -1.534   2.144  -2.838  1.00  0.00     0.334 C 
HETATM    4  N   UNL     1      -0.461   2.329  -3.713  1.00  0.00    -0.279 N 
HETATM    5  O   UNL     1      -1.824   1.033  -2.397  1.00  0.00    -0.246 OA
HETATM    6  C   UNL     1      -0.329   3.498  -4.434  1.00  0.00     0.146 C 
HETATM    7  C   UNL     1      -1.191   4.504  -4.296  1.00  0.00     0.200 C 
HETATM    8  C   UNL     1      -2.250   4.433  -3.264  1.00  0.00     0.292 C 
HETATM    9  F   UNL     1      -1.096   5.633  -5.023  1.00  0.00    -0.199 F 
HETATM   10  O   UNL     1      -3.073   5.335  -3.143  1.00  0.00    -0.264 OA
BRANCH   4  11
HETATM   11  C   UNL     1       0.681   1.412  -3.580  1.00  0.00     0.232 C 
HETATM   12  O   UNL     1       1.628   1.605  -4.645  1.00  0.00    -0.366 OA
HETATM   13  C   UNL     1       2.437   0.427  -4.733  1.00  0.00     0.170 C 
HETATM   14  C   UNL     1       1.728  -0.686  -3.991  1.00  0.00     0.031 C 
HETATM   15  C   UNL     1       0.408  -0.084  -3.572  1.00  0.00     0.056 C 
ENDBRANCH   4  11
ENDBRANCH   1   2
BRANCH   1  16
HETATM   16  C   UNL     1      -2.910   2.282  -0.239  1.00  0.00     0.179 C 
HETATM   17  O   UNL     1      -1.977   2.626   0.495  1.00  0.00    -0.290 OA
BRANCH  16  18
HETATM   18  C   UNL     1      -3.591   0.976  -0.074  1.00  0.00     0.036 C 
HETATM   19  C   UNL     1      -3.054  -0.186   0.508  1.00  0.00     0.022 C 
HETATM   20  N   UNL     1      -3.852  -1.251   0.117  1.00  0.00    -0.347 N 
HETATM   21  C   UNL     1      -1.863  -0.311   1.392  1.00  0.00     0.069 C 
HETATM   22  C   UNL     1      -5.114  -0.711  -0.130  1.00  0.00     0.009 C 
HETATM   23  C   UNL     1      -4.937   0.633  -0.374  1.00  0.00     0.042 C 
HETATM   24  C   UNL     1      -6.379  -1.498  -0.121  1.00  0.00     0.068 C 
BRANCH  20  25
HETATM   25  C   UNL     1      -3.479  -2.651  -0.189  1.00  0.00     0.109 C 
HETATM   26  C   UNL     1      -4.074  -3.674   0.784  1.00  0.00     0.035 C 
BRANCH  25  27
HETATM   27  C   UNL     1      -1.976  -2.994  -0.436  1.00  0.00     0.192 C 
BRANCH  27  28
HETATM   28  O   UNL     1      -1.857  -4.174  -1.265  1.00  0.00    -0.394 OA
HETATM   29  C   UNL     1      -1.246  -5.309  -0.659  1.00  0.00     0.201 C 
ENDBRANCH  27  28
ENDBRANCH  25  27
ENDBRANCH  20  25
ENDBRANCH  16  18
ENDBRANCH   1  16
TORSDOF 7
