REMARK  7 active torsions:
REMARK  status: ('A' for Active; 'I' for Inactive)
REMARK    1  A    between atoms: C_2  and  C_3 
REMARK    2  A    between atoms: C_2  and  N_10 
REMARK    3  A    between atoms: C_3  and  N_4 
REMARK    4  A    between atoms: N_10  and  C_11 
REMARK    5  A    between atoms: C_11  and  C_12 
REMARK    6  A    between atoms: C_12  and  O_13 
REMARK    7  A    between atoms: O_13  and  C_14 
ROOT
HETATM    1  N   UNL     1       2.594   1.426   0.686  1.00  0.00     0.091 N 
HETATM    2  H   UNL     1       2.442   0.421   0.580  1.00  0.00     0.316 HD
ENDROOT
BRANCH   1   3
HETATM    3  C   UNL     1       1.682   2.167  -0.203  1.00  0.00     0.236 C 
HETATM    4  C   UNL     1       1.868   1.758  -1.671  1.00  0.00     0.044 C 
BRANCH   3   5
HETATM    5  C   UNL     1       0.218   1.912   0.212  1.00  0.00     0.183 C 
BRANCH   5   6
HETATM    6  N   UNL     1      -0.074   2.361   1.559  1.00  0.00    -0.302 N 
HETATM    7  C   UNL     1      -0.025   1.609   2.698  1.00  0.00     0.111 A 
HETATM    8  C   UNL     1      -0.377   2.452   3.725  1.00  0.00     0.037 A 
HETATM    9  C   UNL     1      -0.637   3.682   3.098  1.00  0.00     0.108 A 
HETATM   10  N   UNL     1      -0.473   3.632   1.776  1.00  0.00    -0.310 N 
ATOM     11  HN  UNL     1      -0.615   4.376   1.093  1.00  0.00     0.186 HD
ENDBRANCH   5   6
ENDBRANCH   3   5
ENDBRANCH   1   3
BRANCH   1  12
HETATM   12  C   UNL     1       4.014   1.686   0.474  1.00  0.00     0.296 C 
BRANCH  12  13
HETATM   13  C   UNL     1       4.526   3.131   0.627  1.00  0.00     0.198 C 
BRANCH  13  14
HETATM   14  O   UNL     1       5.886   3.006   0.263  1.00  0.00    -0.384 OA
BRANCH  14  15
HETATM   15  C   UNL     1       6.699   4.135  -0.012  1.00  0.00     0.125 C 
HETATM   16  C   UNL     1       6.093   5.157  -0.977  1.00  0.00     0.032 C 
HETATM   17  C   UNL     1       5.685   4.532  -2.311  1.00  0.00     0.002 C 
HETATM   18  C   UNL     1       6.810   3.719  -2.950  1.00  0.00     0.001 C 
HETATM   19  C   UNL     1       7.528   2.785  -1.976  1.00  0.00     0.007 C 
HETATM   20  C   UNL     1       7.949   3.507  -0.676  1.00  0.00     0.010 C 
HETATM   21  C   UNL     1       8.639   2.517   0.272  1.00  0.00     0.012 C 
ENDBRANCH  14  15
ENDBRANCH  13  14
ENDBRANCH  12  13
ENDBRANCH   1  12
TORSDOF 7
