REMARK  4 active torsions:
REMARK  status: ('A' for Active; 'I' for Inactive)
REMARK    1  A    between atoms: C_2  and  C_5 
REMARK    2  A    between atoms: N_10  and  C_11 
REMARK    3  A    between atoms: C_11  and  C_12 
REMARK       I    between atoms: C_12  and  N_14 
REMARK       I    between atoms: N_14  and  C_15 
REMARK       I    between atoms: C_15  and  N_17 
REMARK    4  A    between atoms: N_17  and  C_18 
ROOT
HETATM    1  C   UNL     1       2.382  -4.889  -0.972  1.00  0.00     0.243 C 
HETATM    2  O   UNL     1       2.305  -4.474  -2.132  1.00  0.00    -0.271 OA
HETATM    3  N   UNL     1       2.059  -6.200  -0.719  1.00  0.00    -0.278 N 
HETATM    4  C   UNL     1       1.702  -6.717   0.499  1.00  0.00     0.323 C 
HETATM    5  O   UNL     1       1.596  -6.063   1.523  1.00  0.00    -0.247 OA
HETATM    6  N   UNL     1       1.561  -8.087   0.485  1.00  0.00    -0.338 N 
HETATM    7  H   UNL     1       1.866  -6.744  -1.545  1.00  0.00     0.173 HD
HETATM    8  H   UNL     1       1.188  -8.516  -0.349  1.00  0.00     0.164 HD
ENDROOT
BRANCH   1   9
HETATM    9  C   UNL     1       2.729  -3.957   0.200  1.00  0.00     0.234 C 
BRANCH   9  10
HETATM   10  N   UNL     1       1.667  -3.123   0.770  1.00  0.00    -0.315 N 
HETATM   11  C   UNL     1       1.956  -2.498   1.986  1.00  0.00     0.247 A 
HETATM   12  C   UNL     1       0.935  -1.538   2.483  1.00  0.00     0.075 A 
HETATM   13  O   UNL     1       2.991  -2.653   2.629  1.00  0.00    -0.268 OA
HETATM   14  C   UNL     1      -0.162  -1.277   1.760  1.00  0.00     0.023 A 
HETATM   15  C   UNL     1      -0.391  -1.940   0.491  1.00  0.00     0.063 A 
HETATM   16  C   UNL     1       0.513  -2.836   0.057  1.00  0.00     0.110 A 
BRANCH  15  17
HETATM   17  C   UNL     1      -1.581  -1.567  -0.347  1.00  0.00     0.418 C 
HETATM   18  F   UNL     1      -2.262  -0.499   0.142  1.00  0.00    -0.166 F 
HETATM   19  F   UNL     1      -2.469  -2.589  -0.446  1.00  0.00    -0.166 F 
HETATM   20  F   UNL     1      -1.213  -1.245  -1.615  1.00  0.00    -0.166 F 
ENDBRANCH  15  17
ENDBRANCH   9  10
ENDBRANCH   1   9
BRANCH   6  21
HETATM   21  C   UNL     1       1.353  -8.771   1.758  1.00  0.00     0.086 C 
HETATM   22  C   UNL     1       1.783 -10.237   1.680  1.00  0.00     0.025 C 
HETATM   23  C   UNL     1       0.789 -11.107   0.917  1.00  0.00     0.002 C 
HETATM   24  C   UNL     1      -0.630 -10.950   1.455  1.00  0.00     0.000 C 
HETATM   25  C   UNL     1      -1.071  -9.490   1.474  1.00  0.00     0.002 C 
HETATM   26  C   UNL     1      -0.091  -8.624   2.259  1.00  0.00     0.025 C 
ENDBRANCH   6  21
TORSDOF 4
