REMARK  2 active torsions:
REMARK  status: ('A' for Active; 'I' for Inactive)
REMARK    1  A    between atoms: C_9  and  N_11 
REMARK       I    between atoms: N_11  and  C_12 
REMARK       I    between atoms: C_12  and  N_14 
REMARK    2  A    between atoms: N_14  and  C_15 
ROOT
HETATM    1  N   UNL     1       6.290  -0.057   0.292  1.00  0.00    -0.338 N 
HETATM    2  C   UNL     1       7.416   0.719   0.137  1.00  0.00     0.323 C 
HETATM    3  O   UNL     1       7.592   1.407  -0.865  1.00  0.00    -0.247 OA
HETATM    4  N   UNL     1       8.280   0.572   1.196  1.00  0.00    -0.274 N 
HETATM    5  H   UNL     1       5.981  -0.161   1.254  1.00  0.00     0.164 HD
HETATM    6  H   UNL     1       8.188  -0.215   1.810  1.00  0.00     0.174 HD
ENDROOT
BRANCH   1   7
HETATM    7  C   UNL     1       5.202  -0.038  -0.707  1.00  0.00     0.090 C 
HETATM    8  C   UNL     1       4.427  -1.356  -0.595  1.00  0.00     0.061 C 
HETATM    9  C   UNL     1       2.908  -1.279  -0.783  1.00  0.00     0.225 C 
HETATM   10  N   UNL     1       2.397  -0.092  -0.093  1.00  0.00     0.093 N 
HETATM   11  C   UNL     1       2.457  -1.386  -2.245  1.00  0.00     0.036 C 
HETATM   12  C   UNL     1       0.946  -0.114   0.071  1.00  0.00     0.310 C 
HETATM   13  C   UNL     1       2.869   1.115  -0.780  1.00  0.00     0.225 C 
HETATM   14  C   UNL     1       2.444   1.201  -2.253  1.00  0.00     0.036 C 
HETATM   15  C   UNL     1       4.379   1.249  -0.554  1.00  0.00     0.061 C 
HETATM   16  C   UNL     1       2.498  -0.096  -3.054  1.00  0.00     0.004 C 
ENDBRANCH   1   7
BRANCH   4  17
HETATM   17  C   UNL     1       9.466   1.238   1.230  1.00  0.00     0.231 A 
HETATM   18  N   UNL     1       9.899   2.265   0.529  1.00  0.00    -0.330 N 
HETATM   19  C   UNL     1      11.180   2.459   0.967  1.00  0.00     0.116 A 
ATOM     20  HN  UNL     1       9.393   2.796  -0.180  1.00  0.00     0.168 HD
HETATM   21  C   UNL     1      11.475   1.542   1.946  1.00  0.00     0.162 A 
HETATM   22  O   UNL     1      10.379   0.766   2.140  1.00  0.00    -0.290 OA
ENDBRANCH   4  17
TORSDOF 2
