REMARK  4 active torsions:
REMARK  status: ('A' for Active; 'I' for Inactive)
REMARK       I    between atoms: N_2  and  C_3 
REMARK    1  A    between atoms: C_3  and  C_5 
REMARK    2  A    between atoms: C_5  and  N_6 
REMARK    3  A    between atoms: C_9  and  N_12 
REMARK       I    between atoms: N_12  and  C_13 
REMARK       I    between atoms: C_13  and  N_15 
REMARK    4  A    between atoms: N_15  and  C_16 
ROOT
HETATM    1  N   UNL     1       5.517  -5.420  -1.806  1.00  0.00    -0.338 N 
HETATM    2  C   UNL     1       4.897  -6.629  -2.035  1.00  0.00     0.321 C 
HETATM    3  O   UNL     1       3.804  -6.924  -1.564  1.00  0.00    -0.247 OA
HETATM    4  N   UNL     1       5.704  -7.467  -2.771  1.00  0.00    -0.308 N 
HETATM    5  H   UNL     1       6.043  -5.073  -2.596  1.00  0.00     0.164 HD
HETATM    6  H   UNL     1       6.690  -7.309  -2.616  1.00  0.00     0.170 HD
ENDROOT
BRANCH   1   7
HETATM    7  C   UNL     1       4.909  -4.438  -0.912  1.00  0.00     0.089 C 
HETATM    8  C   UNL     1       3.754  -3.686  -1.576  1.00  0.00     0.055 C 
HETATM    9  C   UNL     1       4.259  -2.635  -2.561  1.00  0.00     0.275 C 
HETATM   10  N   UNL     1       5.217  -1.671  -1.991  1.00  0.00     0.097 N 
HETATM   11  C   UNL     1       6.355  -2.390  -1.387  1.00  0.00     0.275 C 
HETATM   12  C   UNL     1       5.961  -3.467  -0.369  1.00  0.00     0.055 C 
BRANCH  10  13
HETATM   13  C   UNL     1       4.605  -0.752  -0.991  1.00  0.00     0.374 C 
BRANCH  13  14
HETATM   14  C   UNL     1       3.515   0.154  -1.578  1.00  0.00     0.245 C 
HETATM   15  N   UNL     1       3.704   0.527  -2.889  1.00  0.00    -0.364 N 
HETATM   16  C   UNL     1       2.773   1.383  -3.574  1.00  0.00     0.149 C 
HETATM   17  H   UNL     1       4.495   0.115  -3.375  1.00  0.00     0.161 HD
HETATM   18  O   UNL     1       2.579   0.562  -0.894  1.00  0.00    -0.272 OA
ENDBRANCH  13  14
ENDBRANCH  10  13
ENDBRANCH   1   7
BRANCH   4  19
HETATM   19  C   UNL     1       5.317  -8.785  -3.090  1.00  0.00     0.051 A 
HETATM   20  C   UNL     1       6.258  -9.808  -2.987  1.00  0.00     0.032 A 
HETATM   21  C   UNL     1       5.868 -11.123  -3.232  1.00  0.00     0.019 A 
HETATM   22  C   UNL     1       4.562 -11.362  -3.629  1.00  0.00     0.088 A 
HETATM   23  N   UNL     1       3.637 -10.392  -3.787  1.00  0.00    -0.373 N 
HETATM   24  C   UNL     1       4.029  -9.127  -3.496  1.00  0.00     0.117 A 
ATOM     25  HN  UNL     1       2.692 -10.600  -4.109  1.00  0.00     0.164 HD
ENDBRANCH   4  19
TORSDOF 4
