REMARK  7 active torsions:
REMARK  status: ('A' for Active; 'I' for Inactive)
REMARK    1  A    between atoms: C_2  and  C_3 
REMARK    2  A    between atoms: C_2  and  N_10 
REMARK    3  A    between atoms: C_3  and  O_4 
REMARK    4  A    between atoms: O_4  and  C_5 
REMARK    5  A    between atoms: N_10  and  C_11 
REMARK    6  A    between atoms: C_14  and  O_15 
REMARK    7  A    between atoms: O_15  and  C_16 
ROOT
HETATM    1  C   UNL     1       2.620   0.667  -2.381  1.00  0.00     0.080 A 
HETATM    2  C   UNL     1       2.986   0.388  -3.693  1.00  0.00     0.045 A 
HETATM    3  C   UNL     1       2.631   1.276  -4.713  1.00  0.00     0.041 A 
HETATM    4  C   UNL     1       1.903   2.422  -4.414  1.00  0.00     0.090 A 
HETATM    5  C   UNL     1       1.595   2.634  -3.082  1.00  0.00     0.126 A 
HETATM    6  N   UNL     1       1.938   1.790  -2.082  1.00  0.00    -0.354 N 
ATOM      7  HN  UNL     1       1.684   2.000  -1.117  1.00  0.00     0.166 HD
ENDROOT
BRANCH   1   8
HETATM    8  N   UNL     1       2.911  -0.274  -1.377  1.00  0.00    -0.273 NA
HETATM    9  H   UNL     1       3.916  -0.443  -1.377  1.00  0.00     0.129 HD
BRANCH   8  10
HETATM   10  C   UNL     1       2.461   0.087  -0.017  1.00  0.00     0.081 C 
HETATM   11  C   UNL     1       0.933   0.007   0.103  1.00  0.00     0.029 C 
BRANCH  10  12
HETATM   12  C   UNL     1       3.053  -0.908   1.015  1.00  0.00     0.187 C 
BRANCH  12  13
HETATM   13  O   UNL     1       4.480  -0.807   1.081  1.00  0.00    -0.382 OA
BRANCH  13  14
HETATM   14  C   UNL     1       5.037  -1.720   2.028  1.00  0.00     0.147 C 
HETATM   15  C   UNL     1       4.664  -1.420   3.468  1.00  0.00     0.060 C 
HETATM   16  C   UNL     1       5.905  -1.765   4.271  1.00  0.00     0.170 C 
HETATM   17  O   UNL     1       6.948  -2.096   3.353  1.00  0.00    -0.389 OA
HETATM   18  C   UNL     1       6.551  -1.615   2.063  1.00  0.00     0.199 C 
ENDBRANCH  13  14
ENDBRANCH  12  13
ENDBRANCH  10  12
ENDBRANCH   8  10
ENDBRANCH   1   8
BRANCH   4  19
HETATM   19  O   UNL     1       1.609   3.249  -5.457  1.00  0.00    -0.289 OA
BRANCH  19  20
HETATM   20  C   UNL     1       0.442   4.046  -5.317  1.00  0.00     0.505 C 
HETATM   21  F   UNL     1       0.601   4.935  -4.309  1.00  0.00    -0.184 F 
HETATM   22  F   UNL     1       0.322   4.780  -6.454  1.00  0.00    -0.184 F 
ENDBRANCH  19  20
ENDBRANCH   4  19
TORSDOF 7
