REMARK  3 active torsions:
REMARK  status: ('A' for Active; 'I' for Inactive)
REMARK    1  A    between atoms: C_2  and  C_3 
REMARK       I    between atoms: C_2  and  N_12 
REMARK    2  A    between atoms: C_3  and  N_4 
REMARK    3  A    between atoms: N_12  and  C_13 
ROOT
HETATM    1  O   UNL     1       2.634   0.284   1.029  1.00  0.00    -0.272 OA
HETATM    2  C   UNL     1       2.165  -0.317   0.063  1.00  0.00     0.236 C 
HETATM    3  N   UNL     1       2.949  -0.875  -0.923  1.00  0.00    -0.347 N 
HETATM    4  H   UNL     1       2.509  -1.297  -1.739  1.00  0.00     0.163 HD
ENDROOT
BRANCH   2   5
HETATM    5  C   UNL     1       0.657  -0.421  -0.160  1.00  0.00     0.235 C 
BRANCH   5   6
HETATM    6  N   UNL     1       0.152   0.788  -0.803  1.00  0.00    -0.301 N 
HETATM    7  C   UNL     1      -0.297   1.844  -0.038  1.00  0.00     0.097 A 
HETATM    8  C   UNL     1      -0.751   2.958  -0.605  1.00  0.00     0.034 A 
HETATM    9  C   UNL     1      -0.721   2.948  -2.072  1.00  0.00     0.094 A 
HETATM   10  N   UNL     1      -0.294   1.983  -2.812  1.00  0.00    -0.319 N 
HETATM   11  C   UNL     1       0.189   0.850  -2.200  1.00  0.00     0.326 A 
ATOM     12  HN  UNL     1      -0.314   2.058  -3.829  1.00  0.00     0.170 HD
HETATM   13  O   UNL     1       0.642  -0.085  -2.859  1.00  0.00    -0.246 OA
ENDBRANCH   5   6
ENDBRANCH   2   5
BRANCH   3  14
HETATM   14  C   UNL     1       4.412  -0.872  -0.845  1.00  0.00     0.170 C 
HETATM   15  C   UNL     1       4.975   0.443  -1.388  1.00  0.00     0.034 C 
HETATM   16  C   UNL     1       6.426   0.642  -0.955  1.00  0.00     0.004 C 
HETATM   17  C   UNL     1       7.448  -0.001  -1.884  1.00  0.00     0.015 C 
HETATM   18  C   UNL     1       7.006  -1.277  -2.584  1.00  0.00     0.095 C 
HETATM   19  N   UNL     1       6.321  -2.247  -1.753  1.00  0.00    -0.261 NA
HETATM   20  C   UNL     1       4.973  -2.150  -1.500  1.00  0.00     0.220 C 
HETATM   21  H   UNL     1       6.520  -3.202  -2.029  1.00  0.00     0.130 HD
HETATM   22  O   UNL     1       4.280  -3.157  -1.682  1.00  0.00    -0.278 OA
ENDBRANCH   3  14
TORSDOF 3
