REMARK  6 active torsions:
REMARK  status: ('A' for Active; 'I' for Inactive)
REMARK    1  A    between atoms: C_2  and  C_3 
REMARK    2  A    between atoms: C_3  and  C_4 
REMARK    3  A    between atoms: C_3  and  N_18 
REMARK    4  A    between atoms: C_4  and  N_5 
REMARK       I    between atoms: N_5  and  C_6 
REMARK    5  A    between atoms: C_6  and  C_8 
REMARK    6  A    between atoms: C_8  and  C_9 
ROOT
HETATM    1  N   UNL     1       0.886  -0.694   2.540  1.00  0.00    -0.359 N 
HETATM    2  C   UNL     1       0.254   0.429   3.028  1.00  0.00     0.222 C 
HETATM    3  O   UNL     1       0.849   1.475   3.272  1.00  0.00    -0.273 OA
HETATM    4  H   UNL     1       0.369  -1.565   2.507  1.00  0.00     0.162 HD
ENDROOT
BRANCH   2   5
HETATM    5  C   UNL     1      -1.245   0.278   3.235  1.00  0.00     0.145 C 
BRANCH   5   6
HETATM    6  C   UNL     1      -1.553  -0.156   4.628  1.00  0.00    -0.002 A 
HETATM    7  C   UNL     1      -1.274   0.544   5.834  1.00  0.00     0.030 A 
HETATM    8  C   UNL     1      -0.629   1.870   6.026  1.00  0.00     0.070 C 
HETATM    9  N   UNL     1      -1.654  -0.156   6.909  1.00  0.00    -0.303 N 
HETATM   10  N   UNL     1      -2.180  -1.280   6.410  1.00  0.00    -0.300 N 
ATOM     11  HN  UNL     1      -1.563   0.108   7.890  1.00  0.00     0.186 HD
HETATM   12  C   UNL     1      -2.626  -2.302   7.328  1.00  0.00     0.177 C 
HETATM   13  C   UNL     1      -2.193  -1.318   5.039  1.00  0.00     0.033 A 
HETATM   14  C   UNL     1      -2.788  -2.424   4.246  1.00  0.00     0.070 C 
ENDBRANCH   5   6
ENDBRANCH   2   5
BRANCH   1  15
HETATM   15  C   UNL     1       2.329  -0.751   2.367  1.00  0.00     0.158 C 
BRANCH  15  16
HETATM   16  C   UNL     1       2.938   0.274   1.358  1.00  0.00     0.240 C 
BRANCH  16  17
HETATM   17  C   UNL     1       2.413   0.041  -0.088  1.00  0.00     0.033 C 
HETATM   18  C   UNL     1       0.913   0.198  -0.295  1.00  0.00     0.007 C 
ENDBRANCH  16  17
BRANCH  16  19
HETATM   19  N   UNL     1       4.432   0.201   1.360  1.00  0.00     0.094 N 
HETATM   20  C   UNL     1       5.032   0.431   2.687  1.00  0.00     0.273 C 
HETATM   21  C   UNL     1       6.362   1.140   2.447  1.00  0.00     0.032 C 
HETATM   22  C   UNL     1       6.497   1.218   0.943  1.00  0.00     0.032 C 
HETATM   23  C   UNL     1       5.060   1.184   0.466  1.00  0.00     0.273 C 
ENDBRANCH  16  19
ENDBRANCH  15  16
ENDBRANCH   1  15
TORSDOF 6
