REMARK  8 active torsions:
REMARK  status: ('A' for Active; 'I' for Inactive)
REMARK    1  A    between atoms: N_2  and  C_17 
REMARK    2  A    between atoms: C_3  and  N_9 
REMARK    3  A    between atoms: S_7  and  C_8 
REMARK    4  A    between atoms: C_8  and  C_11 
REMARK    5  A    between atoms: N_9  and  C_11 
REMARK    6  A    between atoms: C_16  and  C_17 
REMARK    7  A    between atoms: C_16  and  C_27 
REMARK    8  A    between atoms: C_27  and  O_29 
ROOT
HETATM    1  C   UNL     1       0.402  -0.666  -0.153  1.00  0.00     0.122 A 
HETATM    2  N   UNL     1       1.476   1.241  -0.007  1.00  0.00    -0.326 N 
HETATM    3  C   UNL     1      -0.764  -1.480  -0.205  1.00  0.00     0.135 A 
HETATM    4  C   UNL     1       0.219   0.709  -0.068  1.00  0.00     0.140 A 
HETATM    5  N   UNL     1       1.762  -0.946  -0.181  1.00  0.00    -0.346 N 
ATOM      6  HN  UNL     1       2.199  -1.866  -0.234  1.00  0.00     0.167 HD
HETATM    7  C   UNL     1       2.369   0.216  -0.125  1.00  0.00     0.185 A 
HETATM    8  N   UNL     1      -1.951  -0.801  -0.192  1.00  0.00    -0.337 N 
ATOM      9  HN  UNL     1      -2.828  -1.320  -0.242  1.00  0.00     0.168 HD
HETATM   10  N   UNL     1      -0.939   1.384  -0.040  1.00  0.00    -0.336 N 
ATOM     11  HN  UNL     1      -1.017   2.399   0.028  1.00  0.00     0.168 HD
HETATM   12  C   UNL     1      -1.979   0.545  -0.114  1.00  0.00     0.183 A 
ENDROOT
BRANCH   3  13
HETATM   13  N   UNL     1      -0.799  -2.871  -0.235  1.00  0.00    -0.364 N 
HETATM   14  C   UNL     1       0.379  -3.636   0.172  1.00  0.00     0.152 C 
BRANCH  13  15
HETATM   15  C   UNL     1      -1.990  -3.646  -0.671  1.00  0.00     0.099 C 
HETATM   16  C   UNL     1      -2.936  -2.935  -1.647  1.00  0.00     0.034 C 
BRANCH  15  17
HETATM   17  C   UNL     1      -2.670  -4.469   0.444  1.00  0.00     0.126 C 
HETATM   18  C   UNL     1      -3.688  -5.461  -0.151  1.00  0.00     0.028 C 
BRANCH  17  19
HETATM   19  S   UNL     1      -3.488  -3.569   1.770  1.00  0.00     0.146 S 
HETATM   20  O   UNL     1      -4.508  -2.698   1.215  1.00  0.00    -0.228 OA
HETATM   21  O   UNL     1      -3.873  -4.572   2.750  1.00  0.00    -0.228 OA
HETATM   22  C   UNL     1      -2.276  -2.568   2.595  1.00  0.00     0.161 C 
ENDBRANCH  17  19
ENDBRANCH  15  17
ENDBRANCH  13  15
ENDBRANCH   3  13
BRANCH   2  23
HETATM   23  C   UNL     1       1.803   2.653   0.108  1.00  0.00     0.147 C 
BRANCH  23  24
HETATM   24  C   UNL     1       1.980   3.137   1.549  1.00  0.00     0.040 C 
HETATM   25  C   UNL     1       0.720   3.176   2.441  1.00  0.00     0.183 C 
HETATM   26  O   UNL     1       0.933   4.588   2.719  1.00  0.00    -0.389 OA
HETATM   27  C   UNL     1       1.863   4.675   1.615  1.00  0.00     0.183 C 
BRANCH  24  28
HETATM   28  C   UNL     1       3.210   2.523   2.224  1.00  0.00     0.179 C 
BRANCH  28  29
HETATM   29  O   UNL     1       3.401   2.981   3.557  1.00  0.00    -0.400 OA
HETATM   30  H   UNL     1       3.547   3.943   3.551  1.00  0.00     0.209 HD
ENDBRANCH  28  29
ENDBRANCH  24  28
ENDBRANCH  23  24
ENDBRANCH   2  23
TORSDOF 8
