REMARK  5 active torsions:
REMARK  status: ('A' for Active; 'I' for Inactive)
REMARK    1  A    between atoms: C_2  and  C_3 
REMARK    2  A    between atoms: C_2  and  C_17 
REMARK    3  A    between atoms: C_3  and  N_4 
REMARK       I    between atoms: N_4  and  C_5 
REMARK       I    between atoms: C_5  and  N_7 
REMARK    4  A    between atoms: N_7  and  C_8 
REMARK    5  A    between atoms: C_17  and  N_18 
ROOT
HETATM    1  C   UNL     1       6.259   2.808  -1.464  1.00  0.00     0.110 A 
HETATM    2  C   UNL     1       7.636   2.753  -1.455  1.00  0.00     0.071 A 
HETATM    3  C   UNL     1       8.309   3.467  -0.461  1.00  0.00     0.049 A 
HETATM    4  C   UNL     1       9.738   3.365  -0.349  1.00  0.00     0.099 C 
HETATM    5  N   UNL     1      10.886   3.273  -0.245  1.00  0.00    -0.191 NA
HETATM    6  C   UNL     1       7.606   4.252   0.450  1.00  0.00     0.040 A 
HETATM    7  C   UNL     1       6.236   4.288   0.330  1.00  0.00     0.091 A 
HETATM    8  N   UNL     1       5.564   3.579  -0.594  1.00  0.00    -0.352 N 
ATOM      9  HN  UNL     1       4.546   3.621  -0.639  1.00  0.00     0.166 HD
ENDROOT
BRANCH   1  10
HETATM   10  N   UNL     1       5.559   1.998  -2.365  1.00  0.00    -0.295 N 
HETATM   11  C   UNL     1       4.240   1.625  -2.283  1.00  0.00     0.321 C 
HETATM   12  N   UNL     1       3.568   2.057  -1.189  1.00  0.00    -0.342 N 
HETATM   13  O   UNL     1       3.766   0.871  -3.131  1.00  0.00    -0.247 OA
HETATM   14  H   UNL     1       4.038   2.770  -0.637  1.00  0.00     0.164 HD
HETATM   15  H   UNL     1       6.060   1.531  -3.104  1.00  0.00     0.172 HD
BRANCH  12  16
HETATM   16  C   UNL     1       2.229   1.690  -0.810  1.00  0.00     0.130 C 
BRANCH  16  17
HETATM   17  C   UNL     1       2.148   0.346  -0.074  1.00  0.00     0.028 C 
HETATM   18  C   UNL     1       0.680  -0.073   0.036  1.00  0.00     0.013 C 
BRANCH  17  19
HETATM   19  C   UNL     1       2.939   0.268   1.267  1.00  0.00     0.278 C 
BRANCH  19  20
HETATM   20  N   UNL     1       2.717   1.242   2.358  1.00  0.00     0.092 N 
HETATM   21  C   UNL     1       3.641   0.962   3.494  1.00  0.00     0.302 C 
HETATM   22  C   UNL     1       3.268  -0.267   4.374  1.00  0.00     0.302 C 
HETATM   23  N   UNL     1       1.869  -0.314   4.844  1.00  0.00     0.087 N 
HETATM   24  C   UNL     1       1.652   0.574   5.986  1.00  0.00     0.310 C 
HETATM   25  C   UNL     1       0.957   0.008   3.729  1.00  0.00     0.302 C 
HETATM   26  C   UNL     1       1.354   1.266   2.920  1.00  0.00     0.302 C 
ENDBRANCH  19  20
ENDBRANCH  17  19
ENDBRANCH  16  17
ENDBRANCH  12  16
ENDBRANCH   1  10
TORSDOF 5
