REMARK  6 active torsions:
REMARK  status: ('A' for Active; 'I' for Inactive)
REMARK    1  A    between atoms: C_5  and  C_6 
REMARK    2  A    between atoms: C_6  and  C_7 
REMARK    3  A    between atoms: C_7  and  N_8 
REMARK       I    between atoms: N_8  and  C_9 
REMARK    4  A    between atoms: C_9  and  C_11 
REMARK    5  A    between atoms: C_11  and  C_14 
REMARK    6  A    between atoms: C_14  and  O_15 
ROOT
HETATM    1  N   UNL     1       8.259   1.613   0.019  1.00  0.00    -0.355 N 
HETATM    2  C   UNL     1       9.507   1.017   0.010  1.00  0.00     0.293 C 
HETATM    3  O   UNL     1       9.656  -0.206  -0.008  1.00  0.00    -0.267 OA
HETATM    4  H   UNL     1       8.202   2.618   0.163  1.00  0.00     0.162 HD
ENDROOT
BRANCH   1   5
HETATM    5  C   UNL     1       7.023   0.850  -0.006  1.00  0.00     0.129 C 
BRANCH   5   6
HETATM    6  C   UNL     1       6.582   0.354   1.372  1.00  0.00     0.077 C 
BRANCH   6   7
HETATM    7  C   UNL     1       6.211   1.467   2.299  1.00  0.00     0.018 A 
HETATM    8  N   UNL     1       5.220   2.357   1.912  1.00  0.00    -0.357 N 
HETATM    9  C   UNL     1       5.023   3.256   2.852  1.00  0.00     0.046 A 
ATOM     10  HN  UNL     1       4.716   2.320   1.026  1.00  0.00     0.166 HD
HETATM   11  C   UNL     1       4.031   4.362   2.767  1.00  0.00     0.076 C 
HETATM   12  S   UNL     1       6.013   3.094   4.246  1.00  0.00    -0.087 SA
HETATM   13  C   UNL     1       6.751   1.716   3.547  1.00  0.00     0.076 A 
ENDBRANCH   6   7
ENDBRANCH   5   6
ENDBRANCH   1   5
BRANCH   2  14
HETATM   14  C   UNL     1      10.689   2.003  -0.018  1.00  0.00     0.352 C 
HETATM   15  F   UNL     1      10.928   2.438  -1.292  1.00  0.00    -0.192 F 
HETATM   16  F   UNL     1      10.381   3.137   0.691  1.00  0.00    -0.192 F 
BRANCH  14  17
HETATM   17  C   UNL     1      11.986   1.392   0.542  1.00  0.00     0.133 C 
HETATM   18  C   UNL     1      12.007   1.212   2.092  1.00  0.00     0.045 C 
HETATM   19  C   UNL     1      13.468   1.702   2.066  1.00  0.00     0.006 C 
HETATM   20  C   UNL     1      13.138   2.425   0.746  1.00  0.00     0.045 C 
BRANCH  17  21
HETATM   21  O   UNL     1      12.405   0.207  -0.203  1.00  0.00    -0.383 OA
HETATM   22  H   UNL     1      11.644  -0.410  -0.165  1.00  0.00     0.210 HD
ENDBRANCH  17  21
ENDBRANCH  14  17
ENDBRANCH   2  14
TORSDOF 6
