REMARK  4 active torsions:
REMARK  status: ('A' for Active; 'I' for Inactive)
REMARK       I    between atoms: C_2  and  N_3 
REMARK       I    between atoms: C_2  and  N_13 
REMARK    1  A    between atoms: N_3  and  C_4 
REMARK    2  A    between atoms: C_4  and  C_5 
REMARK    3  A    between atoms: C_5  and  C_6 
REMARK    4  A    between atoms: C_18  and  N_20 
ROOT
HETATM    1  O   UNL     1       1.554  -0.989  -0.194  1.00  0.00    -0.247 OA
HETATM    2  C   UNL     1       2.277  -0.012   0.002  1.00  0.00     0.318 C 
HETATM    3  N   UNL     1       2.415   0.962  -0.958  1.00  0.00    -0.343 N 
HETATM    4  N   UNL     1       3.011   0.179   1.168  1.00  0.00    -0.332 N 
HETATM    5  C   UNL     1       3.815   1.360   1.492  1.00  0.00     0.127 C 
HETATM    6  C   UNL     1       3.130   2.264   2.506  1.00  0.00     0.020 C 
HETATM    7  C   UNL     1       3.421   1.894   3.955  1.00  0.00     0.004 C 
HETATM    8  C   UNL     1       3.281   0.428   4.367  1.00  0.00     0.037 C 
HETATM    9  C   UNL     1       2.319  -0.488   3.576  1.00  0.00     0.241 C 
HETATM   10  C   UNL     1       2.950  -0.867   2.194  1.00  0.00     0.163 C 
HETATM   11  H   UNL     1       3.341   1.345  -1.029  1.00  0.00     0.164 HD
ENDROOT
BRANCH   3  12
HETATM   12  C   UNL     1       1.714   0.842  -2.226  1.00  0.00     0.129 C 
BRANCH  12  13
HETATM   13  C   UNL     1       0.294   1.408  -2.169  1.00  0.00     0.060 C 
BRANCH  13  14
HETATM   14  C   UNL     1      -0.394   1.267  -3.500  1.00  0.00    -0.041 A 
HETATM   15  C   UNL     1      -1.150   0.133  -3.806  1.00  0.00     0.010 A 
HETATM   16  C   UNL     1      -1.730   0.010  -5.064  1.00  0.00     0.018 A 
HETATM   17  C   UNL     1      -1.530   1.028  -5.981  1.00  0.00     0.087 A 
HETATM   18  N   UNL     1      -0.804   2.137  -5.725  1.00  0.00    -0.375 N 
HETATM   19  C   UNL     1      -0.255   2.231  -4.493  1.00  0.00     0.094 A 
ATOM     20  HN  UNL     1      -0.676   2.867  -6.426  1.00  0.00     0.164 HD
ENDBRANCH  13  14
ENDBRANCH  12  13
ENDBRANCH   3  12
BRANCH   9  21
HETATM   21  N   UNL     1       0.916  -0.013   3.557  1.00  0.00     0.094 N 
HETATM   22  C   UNL     1       0.302   0.065   4.894  1.00  0.00     0.273 C 
HETATM   23  C   UNL     1      -1.181  -0.261   4.712  1.00  0.00     0.032 C 
HETATM   24  C   UNL     1      -1.355  -0.492   3.227  1.00  0.00     0.032 C 
HETATM   25  C   UNL     1       0.033  -0.889   2.774  1.00  0.00     0.273 C 
ENDBRANCH   9  21
TORSDOF 4
