REMARK  6 active torsions:
REMARK  status: ('A' for Active; 'I' for Inactive)
REMARK    1  A    between atoms: C_2  and  N_3 
REMARK    2  A    between atoms: N_6  and  C_7 
REMARK    3  A    between atoms: C_7  and  C_8 
REMARK    4  A    between atoms: C_8  and  O_9 
REMARK    5  A    between atoms: C_8  and  C_10 
REMARK    6  A    between atoms: C_10  and  N_11 
ROOT
HETATM    1  N   UNL     1       3.167   0.020   1.165  1.00  0.00    -0.298 N 
HETATM    2  C   UNL     1       3.225   1.374   1.528  1.00  0.00     0.330 A 
HETATM    3  O   UNL     1       2.935   2.310   0.798  1.00  0.00    -0.246 OA
HETATM    4  N   UNL     1       3.644   1.422   2.874  1.00  0.00    -0.295 N 
HETATM    5  C   UNL     1       3.968   0.114   3.276  1.00  0.00     0.066 A 
HETATM    6  C   UNL     1       4.507  -0.348   4.460  1.00  0.00     0.032 A 
HETATM    7  C   UNL     1       4.754  -1.721   4.555  1.00  0.00     0.002 A 
HETATM    8  C   UNL     1       4.435  -2.592   3.494  1.00  0.00     0.002 A 
HETATM    9  C   UNL     1       3.865  -2.108   2.313  1.00  0.00     0.032 A 
HETATM   10  C   UNL     1       3.656  -0.750   2.224  1.00  0.00     0.065 A 
ENDROOT
BRANCH   4  11
HETATM   11  C   UNL     1       3.735   2.573   3.757  1.00  0.00     0.167 C 
BRANCH  11  12
HETATM   12  C   UNL     1       3.206   3.924   3.235  1.00  0.00     0.164 C 
BRANCH  12  13
HETATM   13  O   UNL     1       3.981   4.348   2.112  1.00  0.00    -0.392 OA
HETATM   14  H   UNL     1       3.595   3.888   1.335  1.00  0.00     0.210 HD
ENDBRANCH  12  13
BRANCH  12  15
HETATM   15  C   UNL     1       1.676   3.919   2.959  1.00  0.00     0.305 C 
BRANCH  15  16
HETATM   16  N   UNL     1       1.172   5.147   2.309  1.00  0.00     0.095 N 
HETATM   17  C   UNL     1       1.266   6.336   3.176  1.00  0.00     0.298 C 
HETATM   18  C   UNL     1       0.278   6.297   4.353  1.00  0.00     0.198 C 
HETATM   19  O   UNL     1      -1.074   6.149   3.901  1.00  0.00    -0.388 OA
HETATM   20  C   UNL     1      -1.226   4.988   3.071  1.00  0.00     0.198 C 
HETATM   21  C   UNL     1      -0.239   4.999   1.891  1.00  0.00     0.298 C 
ENDBRANCH  15  16
ENDBRANCH  12  15
ENDBRANCH  11  12
ENDBRANCH   4  11
BRANCH   1  22
HETATM   22  C   UNL     1       2.499  -0.460  -0.016  1.00  0.00     0.130 C 
HETATM   23  C   UNL     1       1.029  -0.753   0.260  1.00  0.00     0.027 C 
ENDBRANCH   1  22
TORSDOF 6
