REMARK  3 active torsions:
REMARK  status: ('A' for Active; 'I' for Inactive)
REMARK       I    between atoms: C_2  and  N_3 
REMARK       I    between atoms: C_2  and  N_13 
REMARK    1  A    between atoms: N_3  and  C_4 
REMARK    2  A    between atoms: N_13  and  C_14 
REMARK    3  A    between atoms: C_17  and  N_21 
ROOT
HETATM    1  O   UNL     1       1.371   0.203  -0.788  1.00  0.00    -0.247 OA
HETATM    2  C   UNL     1       2.499   0.025  -0.337  1.00  0.00     0.321 C 
HETATM    3  N   UNL     1       3.001   0.680   0.753  1.00  0.00    -0.336 N 
HETATM    4  N   UNL     1       3.345  -0.802  -1.006  1.00  0.00    -0.308 N 
HETATM    5  H   UNL     1       3.993   0.640   0.931  1.00  0.00     0.164 HD
HETATM    6  H   UNL     1       3.035  -0.940  -1.959  1.00  0.00     0.170 HD
ENDROOT
BRANCH   4   7
HETATM    7  C   UNL     1       4.652  -1.161  -0.673  1.00  0.00     0.051 A 
HETATM    8  C   UNL     1       5.614  -1.069  -1.665  1.00  0.00     0.035 A 
HETATM    9  C   UNL     1       6.932  -1.365  -1.347  1.00  0.00     0.051 A 
HETATM   10  C   UNL     1       7.268  -1.825  -0.071  1.00  0.00     0.103 A 
HETATM   11  N   UNL     1       6.319  -1.966   0.883  1.00  0.00    -0.350 N 
HETATM   12  C   UNL     1       5.043  -1.627   0.570  1.00  0.00     0.119 A 
ATOM     13  HN  UNL     1       6.556  -2.317   1.811  1.00  0.00     0.166 HD
BRANCH  10  14
HETATM   14  N   UNL     1       8.566  -2.174   0.212  1.00  0.00    -0.363 N 
HETATM   15  C   UNL     1       8.851  -3.223   1.193  1.00  0.00     0.150 C 
HETATM   16  C   UNL     1       9.732  -2.690   2.329  1.00  0.00     0.187 C 
HETATM   17  O   UNL     1      10.904  -2.024   1.827  1.00  0.00    -0.388 OA
HETATM   18  C   UNL     1      10.520  -0.908   1.010  1.00  0.00     0.187 C 
HETATM   19  C   UNL     1       9.703  -1.356  -0.212  1.00  0.00     0.150 C 
ENDBRANCH  10  14
ENDBRANCH   4   7
BRANCH   3  20
HETATM   20  C   UNL     1       2.217   1.606   1.560  1.00  0.00     0.121 C 
HETATM   21  C   UNL     1       1.641   2.805   0.791  1.00  0.00     0.057 C 
HETATM   22  C   UNL     1       0.132   2.768   1.059  1.00  0.00     0.275 C 
HETATM   23  N   UNL     1       0.014   2.013   2.308  1.00  0.00     0.095 N 
HETATM   24  C   UNL     1      -1.311   1.426   2.522  1.00  0.00     0.273 C 
HETATM   25  C   UNL     1       0.991   0.929   2.157  1.00  0.00     0.245 C 
HETATM   26  C   UNL     1      -1.302   0.540   3.785  1.00  0.00     0.030 C 
HETATM   27  C   UNL     1      -0.128  -0.453   3.840  1.00  0.00     0.004 C 
HETATM   28  C   UNL     1       1.194   0.230   3.489  1.00  0.00     0.038 C 
ENDBRANCH   3  20
TORSDOF 3
