REMARK  4 active torsions:
REMARK  status: ('A' for Active; 'I' for Inactive)
REMARK    1  A    between atoms: C_7  and  N_8 
REMARK       I    between atoms: N_8  and  C_9 
REMARK       I    between atoms: C_9  and  N_11 
REMARK    2  A    between atoms: N_11  and  C_12 
REMARK    3  A    between atoms: C_12  and  C_13 
REMARK    4  A    between atoms: C_13  and  O_14 
ROOT
HETATM    1  N   UNL     1       7.219   2.085  -1.012  1.00  0.00    -0.288 N 
HETATM    2  C   UNL     1       8.287   1.252  -1.190  1.00  0.00     0.322 C 
HETATM    3  O   UNL     1       8.670   0.803  -2.263  1.00  0.00    -0.247 OA
HETATM    4  N   UNL     1       8.910   0.902  -0.015  1.00  0.00    -0.340 N 
HETATM    5  H   UNL     1       6.717   2.086  -0.141  1.00  0.00     0.172 HD
HETATM    6  H   UNL     1       8.684   1.365   0.852  1.00  0.00     0.164 HD
ENDROOT
BRANCH   1   7
HETATM    7  C   UNL     1       6.579   2.567  -2.125  1.00  0.00     0.169 A 
HETATM    8  N   UNL     1       7.023   2.650  -3.356  1.00  0.00    -0.279 N 
HETATM    9  N   UNL     1       6.076   3.157  -4.218  1.00  0.00    -0.296 N 
ATOM     10  HN  UNL     1       7.962   2.371  -3.642  1.00  0.00     0.189 HD
HETATM   11  C   UNL     1       4.953   3.445  -3.599  1.00  0.00     0.066 A 
ATOM     12  HN  UNL     1       6.228   3.293  -5.217  1.00  0.00     0.187 HD
HETATM   13  C   UNL     1       3.745   3.973  -4.277  1.00  0.00     0.078 C 
HETATM   14  S   UNL     1       4.991   3.155  -1.899  1.00  0.00    -0.038 SA
ENDBRANCH   1   7
BRANCH   4  15
HETATM   15  C   UNL     1       9.947  -0.122  -0.031  1.00  0.00     0.162 C 
BRANCH  15  16
HETATM   16  C   UNL     1      11.405   0.407  -0.023  1.00  0.00     0.074 C 
HETATM   17  C   UNL     1      11.777   1.407  -1.137  1.00  0.00     0.039 C 
HETATM   18  C   UNL     1      11.958   0.787  -2.521  1.00  0.00     0.003 C 
HETATM   19  C   UNL     1      12.871  -0.433  -2.505  1.00  0.00     0.000 C 
HETATM   20  C   UNL     1      12.452  -1.442  -1.443  1.00  0.00     0.003 C 
HETATM   21  C   UNL     1      12.380  -0.787  -0.063  1.00  0.00     0.039 C 
BRANCH  16  22
HETATM   22  O   UNL     1      11.596   1.074   1.240  1.00  0.00    -0.388 OA
HETATM   23  H   UNL     1      11.118   1.919   1.184  1.00  0.00     0.210 HD
ENDBRANCH  16  22
ENDBRANCH  15  16
ENDBRANCH   4  15
TORSDOF 4
