REMARK  4 active torsions:
REMARK  status: ('A' for Active; 'I' for Inactive)
REMARK    1  A    between atoms: O_1  and  C_2 
REMARK    2  A    between atoms: C_2  and  C_3 
REMARK    3  A    between atoms: C_3  and  N_9 
REMARK       I    between atoms: N_9  and  C_10 
REMARK       I    between atoms: C_10  and  N_12 
REMARK    4  A    between atoms: N_12  and  C_13 
ROOT
HETATM    1  N   UNL     1       3.101  -1.647   2.038  1.00  0.00    -0.331 N 
HETATM    2  C   UNL     1       3.751  -0.749   2.849  1.00  0.00     0.322 C 
HETATM    3  O   UNL     1       4.404   0.190   2.418  1.00  0.00    -0.247 OA
HETATM    4  N   UNL     1       3.528  -1.015   4.181  1.00  0.00    -0.295 N 
HETATM    5  H   UNL     1       2.994  -2.576   2.420  1.00  0.00     0.165 HD
HETATM    6  H   UNL     1       2.569  -1.237   4.406  1.00  0.00     0.172 HD
ENDROOT
BRANCH   1   7
HETATM    7  C   UNL     1       2.975  -1.473   0.569  1.00  0.00     0.059 C 
HETATM    8  C   UNL     1       4.363  -1.373  -0.104  1.00  0.00     0.059 C 
HETATM    9  C   UNL     1       4.269  -1.470  -1.622  1.00  0.00     0.170 C 
HETATM   10  O   UNL     1       3.601  -2.665  -2.015  1.00  0.00    -0.391 OA
HETATM   11  C   UNL     1       2.266  -2.741  -1.519  1.00  0.00     0.170 C 
HETATM   12  C   UNL     1       2.258  -2.721   0.004  1.00  0.00     0.059 C 
BRANCH   7  13
HETATM   13  C   UNL     1       2.144  -0.184   0.276  1.00  0.00     0.195 C 
BRANCH  13  14
HETATM   14  O   UNL     1       0.807  -0.310   0.766  1.00  0.00    -0.398 OA
HETATM   15  H   UNL     1       0.393   0.564   0.665  1.00  0.00     0.209 HD
ENDBRANCH  13  14
ENDBRANCH   7  13
ENDBRANCH   1   7
BRANCH   4  16
HETATM   16  C   UNL     1       4.151  -0.255   5.178  1.00  0.00     0.108 A 
HETATM   17  C   UNL     1       5.505   0.053   5.102  1.00  0.00     0.049 A 
HETATM   18  C   UNL     1       6.068   0.857   6.086  1.00  0.00     0.005 A 
HETATM   19  C   UNL     1       5.258   1.339   7.105  1.00  0.00     0.017 A 
HETATM   20  C   UNL     1       3.926   0.957   7.117  1.00  0.00     0.089 A 
HETATM   21  N   UNL     1       3.361   0.141   6.196  1.00  0.00    -0.352 N 
ATOM     22  HN  UNL     1       2.389  -0.158   6.269  1.00  0.00     0.166 HD
ENDBRANCH   4  16
TORSDOF 4
