REMARK  1 active torsions:
REMARK  status: ('A' for Active; 'I' for Inactive)
REMARK    1  A    between atoms: C_7  and  N_10 
ROOT
HETATM    1  C   UNL     1       3.501  -1.661  -1.951  1.00  0.00     0.069 C 
HETATM    2  C   UNL     1       3.610  -0.750  -0.762  1.00  0.00     0.028 A 
HETATM    3  C   UNL     1       2.975  -1.046   0.380  1.00  0.00     0.100 A 
HETATM    4  C   UNL     1       3.118  -0.114   1.497  1.00  0.00     0.261 A 
HETATM    5  O   UNL     1       2.613  -0.337   2.591  1.00  0.00    -0.268 OA
HETATM    6  N   UNL     1       3.843   1.006   1.229  1.00  0.00    -0.156 N 
HETATM    7  C   UNL     1       4.474   1.233   0.034  1.00  0.00     0.683 A 
HETATM    8  N   UNL     1       4.381   0.375  -0.940  1.00  0.00    -0.196 N 
ATOM      9  HN  UNL     1       4.871   0.534  -1.820  1.00  0.00     0.184 HD
HETATM   10  H   UNL     1       3.985   1.623   2.007  1.00  0.00     0.187 HD
ENDROOT
BRANCH   7  11
HETATM   11  N   UNL     1       5.204   2.395  -0.090  1.00  0.00    -0.213 N 
HETATM   12  C   UNL     1       5.051   3.583   0.756  1.00  0.00     0.167 C 
HETATM   13  C   UNL     1       5.124   4.860  -0.095  1.00  0.00     0.188 C 
HETATM   14  O   UNL     1       6.321   4.907  -0.883  1.00  0.00    -0.388 OA
HETATM   15  C   UNL     1       6.371   3.774  -1.767  1.00  0.00     0.188 C 
HETATM   16  C   UNL     1       6.376   2.460  -0.980  1.00  0.00     0.167 C 
ENDBRANCH   7  11
TORSDOF 1
