REMARK  5 active torsions:
REMARK  status: ('A' for Active; 'I' for Inactive)
REMARK    1  A    between atoms: C_2  and  C_3 
REMARK       I    between atoms: C_2  and  N_9 
REMARK    2  A    between atoms: C_3  and  C_4 
REMARK    3  A    between atoms: N_9  and  C_10 
REMARK    4  A    between atoms: C_10  and  C_11 
REMARK    5  A    between atoms: C_11  and  C_12 
ROOT
HETATM    1  O   UNL     1       2.680  -0.608   0.883  1.00  0.00    -0.274 OA
HETATM    2  C   UNL     1       2.190   0.059  -0.023  1.00  0.00     0.218 C 
HETATM    3  N   UNL     1       2.934   0.824  -0.893  1.00  0.00    -0.361 N 
HETATM    4  H   UNL     1       2.462   1.297  -1.653  1.00  0.00     0.162 HD
ENDROOT
BRANCH   3   5
HETATM    5  C   UNL     1       4.385   0.841  -0.837  1.00  0.00     0.128 C 
BRANCH   5   6
HETATM    6  C   UNL     1       4.991   1.697  -1.944  1.00  0.00     0.076 C 
BRANCH   6   7
HETATM    7  C   UNL     1       6.492   1.741  -1.854  1.00  0.00     0.010 A 
HETATM    8  C   UNL     1       7.279   0.842  -2.571  1.00  0.00     0.025 A 
HETATM    9  C   UNL     1       8.664   0.915  -2.450  1.00  0.00     0.003 A 
HETATM   10  C   UNL     1       9.225   1.875  -1.616  1.00  0.00     0.017 A 
HETATM   11  C   UNL     1       8.373   2.726  -0.936  1.00  0.00     0.088 A 
HETATM   12  N   UNL     1       7.026   2.680  -1.037  1.00  0.00    -0.369 N 
ATOM     13  HN  UNL     1       6.434   3.328  -0.518  1.00  0.00     0.165 HD
ENDBRANCH   6   7
ENDBRANCH   5   6
ENDBRANCH   3   5
BRANCH   2  14
HETATM   14  C   UNL     1       0.697   0.078  -0.297  1.00  0.00     0.111 C 
BRANCH  14  15
HETATM   15  C   UNL     1       0.221  -1.005  -1.273  1.00  0.00     0.017 C 
HETATM   16  C   UNL     1       0.499  -2.441  -0.798  1.00  0.00     0.012 C 
HETATM   17  C   UNL     1       1.730  -2.916  -1.571  1.00  0.00     0.027 C 
HETATM   18  C   UNL     1       1.737  -2.013  -2.762  1.00  0.00    -0.030 C 
HETATM   19  C   UNL     1       0.907  -0.975  -2.608  1.00  0.00    -0.026 C 
ENDBRANCH  14  15
ENDBRANCH   2  14
TORSDOF 5
