REMARK  5 active torsions:
REMARK  status: ('A' for Active; 'I' for Inactive)
REMARK    1  A    between atoms: C_2  and  C_3 
REMARK    2  A    between atoms: C_2  and  N_15 
REMARK       I    between atoms: C_3  and  N_5 
REMARK    3  A    between atoms: N_5  and  C_6 
REMARK    4  A    between atoms: C_6  and  C_7 
REMARK    5  A    between atoms: C_7  and  N_8 
ROOT
HETATM    1  C   UNL     1       2.232   1.046   1.667  1.00  0.00     0.242 C 
HETATM    2  O   UNL     1       2.682   0.839   2.796  1.00  0.00    -0.271 OA
HETATM    3  N   UNL     1       2.246   2.302   1.087  1.00  0.00    -0.358 N 
HETATM    4  H   UNL     1       2.171   2.335   0.068  1.00  0.00     0.162 HD
ENDROOT
BRANCH   1   5
HETATM    5  C   UNL     1       1.577  -0.055   0.844  1.00  0.00     0.196 C 
HETATM    6  C   UNL     1       1.437  -1.333   1.674  1.00  0.00     0.044 C 
BRANCH   5   7
HETATM    7  N   UNL     1       2.304  -0.255  -0.397  1.00  0.00    -0.273 N 
HETATM    8  C   UNL     1       3.297  -1.141  -0.682  1.00  0.00     0.202 A 
HETATM    9  N   UNL     1       3.651  -1.018  -1.941  1.00  0.00    -0.346 N 
HETATM   10  C   UNL     1       2.847  -0.013  -2.392  1.00  0.00     0.198 A 
ATOM     11  HN  UNL     1       4.356  -1.546  -2.456  1.00  0.00     0.167 HD
HETATM   12  N   UNL     1       2.023   0.509  -1.478  1.00  0.00    -0.292 N 
ATOM     13  HN  UNL     1       1.359   1.278  -1.571  1.00  0.00     0.188 HD
ENDBRANCH   5   7
ENDBRANCH   1   5
BRANCH   3  14
HETATM   14  C   UNL     1       2.968   3.370   1.755  1.00  0.00     0.152 C 
BRANCH  14  15
HETATM   15  C   UNL     1       2.547   4.784   1.319  1.00  0.00     0.292 C 
BRANCH  15  16
HETATM   16  N   UNL     1       3.195   5.855   2.103  1.00  0.00     0.090 N 
HETATM   17  C   UNL     1       2.746   7.194   1.691  1.00  0.00     0.273 C 
HETATM   18  C   UNL     1       3.314   7.657   0.343  1.00  0.00     0.034 C 
HETATM   19  C   UNL     1       4.841   7.503   0.244  1.00  0.00    -0.015 C 
HETATM   20  C   UNL     1       5.572   8.615   1.001  1.00  0.00     0.010 C 
HETATM   21  C   UNL     1       5.275   6.119   0.746  1.00  0.00     0.034 C 
HETATM   22  C   UNL     1       4.664   5.796   2.109  1.00  0.00     0.273 C 
ENDBRANCH  15  16
ENDBRANCH  14  15
ENDBRANCH   3  14
TORSDOF 5
