REMARK  7 active torsions:
REMARK  status: ('A' for Active; 'I' for Inactive)
REMARK    1  A    between atoms: N_2  and  C_15 
REMARK    2  A    between atoms: C_6  and  N_7 
REMARK    3  A    between atoms: N_9  and  C_21 
REMARK    4  A    between atoms: C_15  and  C_16 
REMARK    5  A    between atoms: C_16  and  O_24 
REMARK    6  A    between atoms: C_21  and  C_26 
REMARK    7  A    between atoms: C_26  and  O_27 
ROOT
HETATM    1  C   UNL     1      -0.320  -0.853  -1.258  1.00  0.00     0.122 A 
HETATM    2  N   UNL     1       0.243   0.925  -2.394  1.00  0.00    -0.324 N 
HETATM    3  C   UNL     1      -0.406   0.526  -1.256  1.00  0.00     0.140 A 
HETATM    4  N   UNL     1       0.351  -1.287  -2.389  1.00  0.00    -0.346 N 
ATOM      5  HN  UNL     1       0.545  -2.251  -2.661  1.00  0.00     0.167 HD
HETATM    6  C   UNL     1      -0.876  -1.546  -0.156  1.00  0.00     0.135 A 
HETATM    7  C   UNL     1       0.684  -0.196  -3.037  1.00  0.00     0.185 A 
HETATM    8  N   UNL     1      -0.985   1.309  -0.332  1.00  0.00    -0.336 N 
ATOM      9  HN  UNL     1      -1.055   2.325  -0.392  1.00  0.00     0.168 HD
HETATM   10  N   UNL     1      -1.435  -0.779   0.830  1.00  0.00    -0.337 N 
ATOM     11  HN  UNL     1      -1.827  -1.216   1.664  1.00  0.00     0.168 HD
HETATM   12  C   UNL     1      -1.461   0.567   0.685  1.00  0.00     0.183 A 
ENDROOT
BRANCH   6  13
HETATM   13  N   UNL     1      -0.818  -2.940  -0.023  1.00  0.00    -0.362 N 
HETATM   14  C   UNL     1      -1.298  -3.489   1.246  1.00  0.00     0.160 C 
HETATM   15  C   UNL     1      -0.979  -5.016   1.307  1.00  0.00     0.237 C 
HETATM   16  N   UNL     1      -1.542  -5.799   0.159  1.00  0.00     0.098 N 
HETATM   17  C   UNL     1      -1.308  -5.612   2.675  1.00  0.00     0.044 C 
HETATM   18  C   UNL     1      -0.950  -5.197  -1.065  1.00  0.00     0.293 C 
HETATM   19  C   UNL     1      -1.213  -3.682  -1.232  1.00  0.00     0.154 C 
BRANCH  16  20
HETATM   20  C   UNL     1      -3.022  -5.805   0.112  1.00  0.00     0.304 C 
BRANCH  20  21
HETATM   21  C   UNL     1      -3.635  -6.610  -1.072  1.00  0.00     0.142 C 
HETATM   22  C   UNL     1      -5.157  -6.599  -1.022  1.00  0.00     0.041 C 
BRANCH  21  23
HETATM   23  O   UNL     1      -3.210  -7.972  -1.071  1.00  0.00    -0.394 OA
HETATM   24  H   UNL     1      -3.106  -8.245  -0.143  1.00  0.00     0.210 HD
ENDBRANCH  21  23
ENDBRANCH  20  21
ENDBRANCH  16  20
ENDBRANCH   6  13
BRANCH   2  25
HETATM   25  C   UNL     1       0.539   2.286  -2.784  1.00  0.00     0.171 C 
BRANCH  25  26
HETATM   26  C   UNL     1      -0.508   2.930  -3.702  1.00  0.00     0.097 C 
HETATM   27  C   UNL     1      -0.783   2.210  -5.008  1.00  0.00     0.068 C 
HETATM   28  C   UNL     1      -1.201   3.331  -5.948  1.00  0.00     0.170 C 
HETATM   29  O   UNL     1      -0.667   4.558  -5.440  1.00  0.00    -0.388 OA
HETATM   30  C   UNL     1       0.008   4.279  -4.206  1.00  0.00     0.207 C 
BRANCH  26  31
HETATM   31  O   UNL     1      -1.747   3.142  -3.015  1.00  0.00    -0.386 OA
HETATM   32  H   UNL     1      -1.972   2.352  -2.489  1.00  0.00     0.210 HD
ENDBRANCH  26  31
ENDBRANCH  25  26
ENDBRANCH   2  25
TORSDOF 7
