REMARK  5 active torsions:
REMARK  status: ('A' for Active; 'I' for Inactive)
REMARK    1  A    between atoms: C_2  and  N_3 
REMARK    2  A    between atoms: C_2  and  C_12 
REMARK    3  A    between atoms: N_3  and  C_4 
REMARK    4  A    between atoms: C_4  and  C_5 
REMARK       I    between atoms: C_5  and  N_7 
REMARK    5  A    between atoms: C_12  and  N_14 
ROOT
HETATM    1  C   UNL     1       0.971  -0.051  -0.119  1.00  0.00     0.045 C 
HETATM    2  C   UNL     1       2.494  -0.076   0.096  1.00  0.00     0.241 C 
ENDROOT
BRANCH   2   3
HETATM    3  N   UNL     1       2.837   0.336   1.472  1.00  0.00     0.098 N 
HETATM    4  H   UNL     1       2.492   1.282   1.652  1.00  0.00     0.317 HD
BRANCH   3   5
HETATM    5  C   UNL     1       2.288  -0.542   2.515  1.00  0.00     0.372 C 
BRANCH   5   6
HETATM    6  C   UNL     1       2.794  -0.144   3.906  1.00  0.00     0.247 C 
HETATM    7  O   UNL     1       2.194   0.703   4.572  1.00  0.00    -0.271 OA
HETATM    8  N   UNL     1       3.873  -0.841   4.402  1.00  0.00    -0.351 N 
HETATM    9  C   UNL     1       4.237  -0.784   5.799  1.00  0.00     0.126 C 
HETATM   10  C   UNL     1       4.911  -1.501   3.638  1.00  0.00     0.126 C 
HETATM   11  C   UNL     1       5.255  -1.908   5.986  1.00  0.00     0.021 C 
HETATM   12  C   UNL     1       5.433  -2.543   4.606  1.00  0.00     0.021 C 
ENDBRANCH   5   6
ENDBRANCH   3   5
ENDBRANCH   2   3
BRANCH   2  13
HETATM   13  C   UNL     1       3.142  -1.439  -0.344  1.00  0.00     0.136 C 
HETATM   14  C   UNL     1       2.814  -1.839  -1.784  1.00  0.00     0.036 C 
BRANCH  13  15
HETATM   15  N   UNL     1       4.599  -1.470  -0.155  1.00  0.00    -0.297 N 
HETATM   16  C   UNL     1       5.500  -0.451  -0.306  1.00  0.00     0.112 A 
HETATM   17  C   UNL     1       6.731  -0.969   0.019  1.00  0.00     0.037 A 
HETATM   18  C   UNL     1       6.483  -2.321   0.304  1.00  0.00     0.108 A 
HETATM   19  N   UNL     1       5.192  -2.639   0.186  1.00  0.00    -0.310 N 
ATOM     20  HN  UNL     1       4.754  -3.550   0.321  1.00  0.00     0.186 HD
ENDBRANCH  13  15
ENDBRANCH   2  13
TORSDOF 5
