REMARK  6 active torsions:
REMARK  status: ('A' for Active; 'I' for Inactive)
REMARK    1  A    between atoms: C_2  and  C_3 
REMARK    2  A    between atoms: C_2  and  N_11 
REMARK    3  A    between atoms: C_3  and  N_4 
REMARK    4  A    between atoms: N_11  and  C_12 
REMARK    5  A    between atoms: C_12  and  C_13 
REMARK    6  A    between atoms: C_13  and  C_14 
REMARK       I    between atoms: C_14  and  N_16 
ROOT
HETATM    1  N   UNL     1       3.121  -1.378  -0.353  1.00  0.00     0.089 N 
HETATM    2  H   UNL     1       2.721  -1.579  -1.272  1.00  0.00     0.316 HD
ENDROOT
BRANCH   1   3
HETATM    3  C   UNL     1       2.581  -0.081   0.112  1.00  0.00     0.236 C 
HETATM    4  C   UNL     1       1.051  -0.211   0.110  1.00  0.00     0.044 C 
BRANCH   3   5
HETATM    5  C   UNL     1       3.103   0.307   1.509  1.00  0.00     0.183 C 
BRANCH   5   6
HETATM    6  N   UNL     1       2.603   1.580   1.982  1.00  0.00    -0.301 N 
HETATM    7  C   UNL     1       1.885   1.798   3.120  1.00  0.00     0.118 A 
HETATM    8  C   UNL     1       1.690   3.160   3.197  1.00  0.00    -0.028 A 
HETATM    9  C   UNL     1       0.982   3.922   4.244  1.00  0.00     0.051 C 
HETATM   10  C   UNL     1       2.336   3.666   2.045  1.00  0.00     0.115 A 
HETATM   11  N   UNL     1       2.891   2.707   1.305  1.00  0.00    -0.310 N 
ATOM     12  HN  UNL     1       3.411   2.804   0.433  1.00  0.00     0.186 HD
ENDBRANCH   5   6
ENDBRANCH   3   5
ENDBRANCH   1   3
BRANCH   1  13
HETATM   13  C   UNL     1       4.586  -1.367  -0.471  1.00  0.00     0.279 C 
BRANCH  13  14
HETATM   14  C   UNL     1       5.052  -2.741  -0.924  1.00  0.00     0.133 C 
BRANCH  14  15
HETATM   15  C   UNL     1       6.558  -2.797  -1.091  1.00  0.00     0.221 C 
HETATM   16  O   UNL     1       7.268  -1.804  -0.939  1.00  0.00    -0.273 OA
HETATM   17  N   UNL     1       7.063  -4.016  -1.511  1.00  0.00    -0.348 N 
HETATM   18  C   UNL     1       8.469  -4.122  -1.897  1.00  0.00     0.152 C 
HETATM   19  C   UNL     1       6.403  -5.308  -1.306  1.00  0.00     0.152 C 
HETATM   20  C   UNL     1       8.614  -5.080  -3.085  1.00  0.00     0.187 C 
HETATM   21  O   UNL     1       8.025  -6.360  -2.801  1.00  0.00    -0.388 OA
HETATM   22  C   UNL     1       6.628  -6.225  -2.508  1.00  0.00     0.187 C 
ENDBRANCH  14  15
ENDBRANCH  13  14
ENDBRANCH   1  13
TORSDOF 6
