REMARK  4 active torsions:
REMARK  status: ('A' for Active; 'I' for Inactive)
REMARK    1  A    between atoms: C_2  and  C_5 
REMARK    2  A    between atoms: C_9  and  N_10 
REMARK       I    between atoms: N_10  and  C_11 
REMARK       I    between atoms: C_11  and  N_13 
REMARK    3  A    between atoms: N_13  and  C_14 
REMARK    4  A    between atoms: N_17  and  C_20 
ROOT
HETATM    1  N   UNL     1       3.961   3.239  -4.433  1.00  0.00    -0.306 N 
HETATM    2  C   UNL     1       4.939   2.943  -5.357  1.00  0.00     0.321 C 
HETATM    3  O   UNL     1       5.960   2.305  -5.136  1.00  0.00    -0.247 OA
HETATM    4  N   UNL     1       4.623   3.389  -6.619  1.00  0.00    -0.338 N 
HETATM    5  H   UNL     1       3.194   3.819  -4.736  1.00  0.00     0.171 HD
HETATM    6  H   UNL     1       4.012   4.189  -6.696  1.00  0.00     0.164 HD
ENDROOT
BRANCH   1   7
HETATM    7  C   UNL     1       3.920   2.739  -3.109  1.00  0.00     0.067 A 
HETATM    8  C   UNL     1       4.854   1.893  -2.552  1.00  0.00     0.120 A 
HETATM    9  N   UNL     1       4.777   1.400  -1.296  1.00  0.00    -0.353 N 
HETATM   10  C   UNL     1       3.731   1.777  -0.542  1.00  0.00     0.088 A 
ATOM     11  HN  UNL     1       5.488   0.764  -0.934  1.00  0.00     0.166 HD
HETATM   12  N   UNL     1       2.751   2.590  -0.988  1.00  0.00    -0.353 N 
HETATM   13  C   UNL     1       2.877   3.053  -2.257  1.00  0.00     0.120 A 
ATOM     14  HN  UNL     1       1.956   2.844  -0.401  1.00  0.00     0.166 HD
BRANCH  10  15
HETATM   15  C   UNL     1       3.635   1.172   0.857  1.00  0.00     0.007 C 
HETATM   16  C   UNL     1       5.048   0.887   1.412  1.00  0.00     0.022 C 
HETATM   17  C   UNL     1       2.855  -0.150   0.771  1.00  0.00     0.022 C 
HETATM   18  C   UNL     1       2.925   2.122   1.836  1.00  0.00     0.022 C 
ENDBRANCH  10  15
ENDBRANCH   1   7
BRANCH   4  19
HETATM   19  C   UNL     1       5.528   3.111  -7.738  1.00  0.00     0.089 C 
HETATM   20  C   UNL     1       6.646   4.151  -7.847  1.00  0.00     0.055 C 
HETATM   21  C   UNL     1       6.126   5.476  -8.398  1.00  0.00     0.275 C 
HETATM   22  N   UNL     1       5.409   5.344  -9.673  1.00  0.00     0.093 N 
HETATM   23  C   UNL     1       4.316   4.366  -9.578  1.00  0.00     0.275 C 
HETATM   24  C   UNL     1       4.762   3.000  -9.055  1.00  0.00     0.055 C 
BRANCH  22  25
HETATM   25  C   UNL     1       6.283   5.103 -10.837  1.00  0.00     0.223 A 
HETATM   26  C   UNL     1       7.328   6.101 -11.256  1.00  0.00     0.038 A 
HETATM   27  C   UNL     1       6.066   5.967 -12.053  1.00  0.00     0.038 A 
ENDBRANCH  22  25
ENDBRANCH   4  19
TORSDOF 4
