REMARK  5 active torsions:
REMARK  status: ('A' for Active; 'I' for Inactive)
REMARK    1  A    between atoms: O_3  and  C_4 
REMARK    2  A    between atoms: C_4  and  C_6 
REMARK    3  A    between atoms: C_6  and  N_7 
REMARK    4  A    between atoms: C_9  and  C_10 
REMARK    5  A    between atoms: C_10  and  C_11 
ROOT
HETATM    1  N   UNL     2       4.746  -0.604   0.262  1.00  0.00    -0.275 N 
HETATM    2  C   UNL     2       5.383   0.561   0.469  1.00  0.00     0.134 A 
HETATM    3  C   UNL     2       6.723   0.301   0.299  1.00  0.00     0.043 A 
HETATM    4  N   UNL     2       6.865  -1.008   0.003  1.00  0.00    -0.287 N 
ATOM      5  HN  UNL     2       7.741  -1.498  -0.179  1.00  0.00     0.184 HD
HETATM    6  N   UNL     2       5.648  -1.535  -0.006  1.00  0.00    -0.020 NA
ENDROOT
BRANCH   3   7
HETATM    7  C   UNL     2       7.848   1.288   0.381  1.00  0.00     0.094 C 
BRANCH   7   8
HETATM    8  C   UNL     2       8.935   0.842   1.370  1.00  0.00     0.184 A 
HETATM    9  N   UNL     2       8.475   0.858   2.744  1.00  0.00    -0.329 N 
HETATM   10  C   UNL     2       9.254   1.704   3.450  1.00  0.00     0.323 A 
HETATM   11  H   UNL     2       7.700   0.301   3.131  1.00  0.00     0.165 HD
HETATM   12  O   UNL     2       9.117   1.908   4.644  1.00  0.00    -0.247 OA
HETATM   13  N   UNL     2      10.202   2.296   2.704  1.00  0.00    -0.278 N 
HETATM   14  C   UNL     2      10.063   1.830   1.451  1.00  0.00     0.248 A 
HETATM   15  H   UNL     2      10.907   2.972   3.032  1.00  0.00     0.173 HD
HETATM   16  O   UNL     2      10.783   2.166   0.524  1.00  0.00    -0.271 OA
ENDBRANCH   7   8
ENDBRANCH   3   7
BRANCH   1  17
HETATM   17  C   UNL     2       3.306  -0.826   0.300  1.00  0.00     0.255 C 
BRANCH  17  18
HETATM   18  C   UNL     2       2.825  -1.329  -1.034  1.00  0.00     0.159 C 
HETATM   19  O   UNL     2       2.242  -2.399  -1.107  1.00  0.00    -0.649 OA
BRANCH  18  20
HETATM   20  O   UNL     2       3.034  -0.610  -2.157  1.00  0.00    -0.775 OA
HETATM   21  H   UNL     2       3.514   0.230  -2.140  1.00  0.00     0.167 HD
ENDBRANCH  18  20
ENDBRANCH  17  18
ENDBRANCH   1  17
TORSDOF 5
