REMARK  4 active torsions:
REMARK  status: ('A' for Active; 'I' for Inactive)
REMARK    1  A    between atoms: C_2  and  C_3 
REMARK    2  A    between atoms: C_3  and  O_4 
REMARK    3  A    between atoms: C_8  and  N_9 
REMARK       I    between atoms: N_9  and  C_10 
REMARK       I    between atoms: C_10  and  N_12 
REMARK    4  A    between atoms: N_12  and  C_13 
ROOT
HETATM    1  N   UNL     1       2.068   1.330   2.101  1.00  0.00    -0.337 N 
HETATM    2  C   UNL     1       0.977   2.156   1.976  1.00  0.00     0.321 C 
HETATM    3  O   UNL     1       0.638   2.659   0.915  1.00  0.00    -0.247 OA
HETATM    4  N   UNL     1       0.370   2.375   3.192  1.00  0.00    -0.308 N 
HETATM    5  H   UNL     1       2.009   0.629   2.825  1.00  0.00     0.164 HD
HETATM    6  H   UNL     1       1.017   2.435   3.965  1.00  0.00     0.170 HD
ENDROOT
BRANCH   1   7
HETATM    7  C   UNL     1       2.921   1.049   0.949  1.00  0.00     0.096 C 
HETATM    8  C   UNL     1       2.441  -0.123   0.047  1.00  0.00    -0.002 C 
HETATM    9  C   UNL     1       0.914  -0.287  -0.054  1.00  0.00     0.019 C 
HETATM   10  C   UNL     1       3.056  -1.362   0.732  1.00  0.00     0.013 C 
HETATM   11  C   UNL     1       4.271  -0.891   1.529  1.00  0.00     0.003 C 
HETATM   12  C   UNL     1       4.308   0.627   1.440  1.00  0.00     0.026 C 
BRANCH   8  13
HETATM   13  C   UNL     1       2.959   0.041  -1.404  1.00  0.00     0.175 C 
BRANCH  13  14
HETATM   14  O   UNL     1       4.370   0.164  -1.491  1.00  0.00    -0.400 OA
HETATM   15  H   UNL     1       4.573   1.112  -1.581  1.00  0.00     0.209 HD
ENDBRANCH  13  14
ENDBRANCH   8  13
ENDBRANCH   1   7
BRANCH   4  16
HETATM   16  C   UNL     1      -0.828   3.111   3.294  1.00  0.00     0.051 A 
HETATM   17  C   UNL     1      -0.987   4.015   4.341  1.00  0.00     0.032 A 
HETATM   18  C   UNL     1      -2.152   4.777   4.411  1.00  0.00     0.019 A 
HETATM   19  C   UNL     1      -3.139   4.569   3.460  1.00  0.00     0.088 A 
HETATM   20  N   UNL     1      -3.038   3.671   2.459  1.00  0.00    -0.373 N 
HETATM   21  C   UNL     1      -1.878   2.974   2.387  1.00  0.00     0.117 A 
ATOM     22  HN  UNL     1      -3.795   3.524   1.791  1.00  0.00     0.164 HD
ENDBRANCH   4  16
TORSDOF 4
