REMARK  3 active torsions:
REMARK  status: ('A' for Active; 'I' for Inactive)
REMARK       I    between atoms: C_2  and  N_3 
REMARK       I    between atoms: C_2  and  N_9 
REMARK    1  A    between atoms: N_3  and  C_4 
REMARK    2  A    between atoms: C_4  and  C_5 
REMARK    3  A    between atoms: N_9  and  C_10 
ROOT
HETATM    1  O   UNL     1       1.255  -0.489   1.018  1.00  0.00    -0.247 OA
HETATM    2  C   UNL     1       2.350  -0.141   0.582  1.00  0.00     0.322 C 
HETATM    3  N   UNL     1       2.848   1.119   0.721  1.00  0.00    -0.342 N 
HETATM    4  N   UNL     1       3.156  -1.078   0.008  1.00  0.00    -0.288 N 
HETATM    5  H   UNL     1       3.643   1.381   0.146  1.00  0.00     0.164 HD
HETATM    6  H   UNL     1       2.824  -2.029   0.072  1.00  0.00     0.172 HD
ENDROOT
BRANCH   3   7
HETATM    7  C   UNL     1       2.156   2.139   1.471  1.00  0.00     0.129 C 
BRANCH   7   8
HETATM    8  C   UNL     1       3.218   2.972   2.173  1.00  0.00     0.003 C 
HETATM    9  C   UNL     1       4.168   2.265   3.182  1.00  0.00     0.006 C 
HETATM   10  C   UNL     1       4.051   3.523   4.066  1.00  0.00     0.001 C 
HETATM   11  C   UNL     1       2.695   3.790   3.385  1.00  0.00     0.006 C 
ENDBRANCH   7   8
ENDBRANCH   3   7
BRANCH   4  12
HETATM   12  C   UNL     1       4.402  -0.852  -0.489  1.00  0.00     0.168 A 
HETATM   13  N   UNL     1       4.994   0.291  -0.749  1.00  0.00    -0.279 N 
HETATM   14  N   UNL     1       6.290   0.105  -1.190  1.00  0.00    -0.303 N 
ATOM     15  HN  UNL     1       4.552   1.203  -0.639  1.00  0.00     0.189 HD
HETATM   16  C   UNL     1       6.613  -1.171  -1.220  1.00  0.00     0.160 A 
ATOM     17  HN  UNL     1       6.918   0.862  -1.459  1.00  0.00     0.186 HD
HETATM   18  S   UNL     1       5.344  -2.242  -0.783  1.00  0.00    -0.046 SA
ENDBRANCH   4  12
TORSDOF 3
