REMARK  5 active torsions:
REMARK  status: ('A' for Active; 'I' for Inactive)
REMARK    1  A    between atoms: O_1  and  C_2 
REMARK    2  A    between atoms: C_2  and  C_3 
REMARK    3  A    between atoms: C_3  and  N_4 
REMARK    4  A    between atoms: C_6  and  C_7 
REMARK    5  A    between atoms: C_7  and  O_9 
ROOT
HETATM    1  N   UNL     1       4.416   1.003   0.860  1.00  0.00    -0.306 N 
HETATM    2  C   UNL     1       5.086   2.210   0.761  1.00  0.00     0.119 A 
HETATM    3  C   UNL     1       6.421   2.286   0.657  1.00  0.00     0.121 A 
HETATM    4  C   UNL     1       7.169   1.017   0.645  1.00  0.00     0.267 A 
HETATM    5  O   UNL     1       8.382   1.009   0.445  1.00  0.00    -0.267 OA
HETATM    6  N   UNL     1       6.454  -0.125   0.861  1.00  0.00    -0.274 N 
HETATM    7  C   UNL     1       5.090  -0.204   0.950  1.00  0.00     0.329 A 
HETATM    8  O   UNL     1       4.541  -1.293   1.090  1.00  0.00    -0.246 OA
HETATM    9  H   UNL     1       6.954  -1.001   0.873  1.00  0.00     0.173 HD
ENDROOT
BRANCH   1  10
HETATM   10  C   UNL     1       2.948   1.000   0.923  1.00  0.00     0.159 C 
BRANCH  10  11
HETATM   11  C   UNL     1       2.413   1.000   2.356  1.00  0.00     0.184 C 
BRANCH  11  12
HETATM   12  O   UNL     1       2.748   2.222   3.008  1.00  0.00    -0.399 OA
HETATM   13  H   UNL     1       2.453   2.143   3.932  1.00  0.00     0.209 HD
ENDBRANCH  11  12
ENDBRANCH  10  11
ENDBRANCH   1  10
BRANCH   3  14
HETATM   14  C   UNL     1       7.063   3.611   0.538  1.00  0.00     0.183 C 
HETATM   15  O   UNL     1       6.441   4.662   0.569  1.00  0.00    -0.646 OA
BRANCH  14  16
HETATM   16  O   UNL     1       8.405   3.579   0.390  1.00  0.00    -0.772 OA
HETATM   17  H   UNL     1       8.800   2.674   0.356  1.00  0.00     0.167 HD
ENDBRANCH  14  16
ENDBRANCH   3  14
TORSDOF 5
