REMARK  7 active torsions:
REMARK  status: ('A' for Active; 'I' for Inactive)
REMARK       I    between atoms: N_2  and  C_3 
REMARK    1  A    between atoms: C_3  and  C_5 
REMARK    2  A    between atoms: C_5  and  C_6 
REMARK    3  A    between atoms: C_5  and  N_10 
REMARK    4  A    between atoms: C_6  and  C_7 
REMARK       I    between atoms: N_10  and  C_11 
REMARK    5  A    between atoms: C_11  and  C_13 
REMARK    6  A    between atoms: C_13  and  N_14 
REMARK    7  A    between atoms: C_16  and  C_21 
ROOT
HETATM    1  N   UNL     1       5.352   2.074  -1.644  1.00  0.00    -0.346 N 
HETATM    2  C   UNL     1       6.567   2.640  -1.332  1.00  0.00     0.236 C 
HETATM    3  O   UNL     1       7.273   2.249  -0.404  1.00  0.00    -0.272 OA
HETATM    4  H   UNL     1       4.794   2.467  -2.398  1.00  0.00     0.163 HD
ENDROOT
BRANCH   2   5
HETATM    5  C   UNL     1       7.001   3.788  -2.248  1.00  0.00     0.234 C 
BRANCH   5   6
HETATM    6  N   UNL     1       8.183   3.450  -3.039  1.00  0.00    -0.315 N 
HETATM    7  C   UNL     1       9.454   3.719  -2.545  1.00  0.00     0.110 A 
HETATM    8  C   UNL     1      10.565   3.473  -3.269  1.00  0.00     0.063 A 
HETATM    9  C   UNL     1      10.414   2.890  -4.591  1.00  0.00     0.023 A 
HETATM   10  C   UNL     1       9.204   2.608  -5.087  1.00  0.00     0.075 A 
HETATM   11  C   UNL     1       7.974   2.884  -4.293  1.00  0.00     0.247 A 
HETATM   12  O   UNL     1       6.873   2.622  -4.771  1.00  0.00    -0.268 OA
BRANCH   8  13
HETATM   13  C   UNL     1      11.939   3.808  -2.759  1.00  0.00     0.418 C 
HETATM   14  F   UNL     1      12.921   3.513  -3.652  1.00  0.00    -0.166 F 
HETATM   15  F   UNL     1      12.057   5.132  -2.481  1.00  0.00    -0.166 F 
HETATM   16  F   UNL     1      12.238   3.138  -1.617  1.00  0.00    -0.166 F 
ENDBRANCH   8  13
ENDBRANCH   5   6
ENDBRANCH   2   5
BRANCH   1  17
HETATM   17  C   UNL     1       4.717   1.005  -0.868  1.00  0.00     0.177 C 
BRANCH  17  18
HETATM   18  C   UNL     1       3.183   1.255  -0.913  1.00  0.00     0.240 C 
HETATM   19  N   UNL     1       2.407   0.325  -0.250  1.00  0.00    -0.364 N 
HETATM   20  C   UNL     1       0.972   0.456  -0.165  1.00  0.00     0.149 C 
HETATM   21  H   UNL     1       2.852  -0.390   0.310  1.00  0.00     0.161 HD
HETATM   22  O   UNL     1       2.698   2.229  -1.489  1.00  0.00    -0.271 OA
ENDBRANCH  17  18
BRANCH  17  23
HETATM   23  C   UNL     1       5.058  -0.391  -1.430  1.00  0.00     0.038 C 
BRANCH  23  24
HETATM   24  C   UNL     1       6.555  -0.762  -1.446  1.00  0.00    -0.020 C 
HETATM   25  C   UNL     1       7.182  -0.821  -0.050  1.00  0.00     0.009 C 
HETATM   26  C   UNL     1       6.751  -2.114  -2.140  1.00  0.00     0.009 C 
ENDBRANCH  23  24
ENDBRANCH  17  23
ENDBRANCH   1  17
TORSDOF 7
