REMARK  3 active torsions:
REMARK  status: ('A' for Active; 'I' for Inactive)
REMARK    1  A    between atoms: N_2  and  C_4 
REMARK    2  A    between atoms: C_10  and  N_11 
REMARK       I    between atoms: N_11  and  C_12 
REMARK       I    between atoms: C_12  and  N_14 
REMARK    3  A    between atoms: N_14  and  C_15 
ROOT
HETATM    1  N   UNL     1       2.122  -2.778   0.069  1.00  0.00    -0.306 N 
HETATM    2  C   UNL     1       1.676  -2.159  -1.079  1.00  0.00     0.321 C 
HETATM    3  O   UNL     1       2.210  -1.197  -1.622  1.00  0.00    -0.247 OA
HETATM    4  N   UNL     1       0.543  -2.730  -1.606  1.00  0.00    -0.335 N 
HETATM    5  H   UNL     1       1.734  -3.695   0.274  1.00  0.00     0.170 HD
HETATM    6  H   UNL     1       0.092  -3.507  -1.147  1.00  0.00     0.164 HD
ENDROOT
BRANCH   1   7
HETATM    7  C   UNL     1       3.226  -2.350   0.868  1.00  0.00     0.072 A 
HETATM    8  C   UNL     1       3.832  -3.172   1.837  1.00  0.00     0.144 A 
HETATM    9  C   UNL     1       4.910  -2.677   2.568  1.00  0.00     0.126 A 
HETATM   10  N   UNL     1       5.421  -1.435   2.412  1.00  0.00    -0.373 N 
HETATM   11  C   UNL     1       4.830  -0.654   1.489  1.00  0.00     0.090 A 
ATOM     12  HN  UNL     1       6.213  -1.107   2.965  1.00  0.00     0.164 HD
HETATM   13  C   UNL     1       3.748  -1.057   0.723  1.00  0.00     0.049 A 
BRANCH   8  14
HETATM   14  N   UNL     1       3.411  -4.540   2.103  1.00  0.00    -0.112 N 
HETATM   15  O   UNL     1       4.113  -5.230   2.860  1.00  0.00    -0.532 OA
HETATM   16  O   UNL     1       2.368  -4.938   1.559  1.00  0.00    -0.532 OA
ENDBRANCH   8  14
ENDBRANCH   1   7
BRANCH   4  17
HETATM   17  C   UNL     1      -0.066  -2.163  -2.800  1.00  0.00     0.109 A 
HETATM   18  C   UNL     1      -1.002  -0.985  -2.478  1.00  0.00     0.029 A 
HETATM   19  C   UNL     1      -2.495  -1.120  -2.799  1.00  0.00     0.006 A 
HETATM   20  C   UNL     1      -2.991  -2.389  -3.491  1.00  0.00     0.027 A 
HETATM   21  C   UNL     1      -1.962  -3.397  -3.867  1.00  0.00    -0.029 A 
HETATM   22  C   UNL     1      -0.668  -3.298  -3.555  1.00  0.00    -0.006 A 
ENDBRANCH   4  17
TORSDOF 3
