REMARK  5 active torsions:
REMARK  status: ('A' for Active; 'I' for Inactive)
REMARK    1  A    between atoms: C_2  and  N_3 
REMARK    2  A    between atoms: C_7  and  C_8 
REMARK    3  A    between atoms: C_8  and  N_9 
REMARK       I    between atoms: N_9  and  C_10 
REMARK    4  A    between atoms: C_10  and  C_12 
REMARK    5  A    between atoms: C_12  and  N_13 
ROOT
HETATM    1  N   UNL     1       6.849  -0.739   0.085  1.00  0.00    -0.359 N 
HETATM    2  C   UNL     1       6.794  -1.822  -0.771  1.00  0.00     0.237 C 
HETATM    3  O   UNL     1       6.540  -1.717  -1.971  1.00  0.00    -0.272 OA
HETATM    4  H   UNL     1       7.221  -0.889   1.020  1.00  0.00     0.162 HD
ENDROOT
BRANCH   1   5
HETATM    5  C   UNL     1       6.585   0.616  -0.351  1.00  0.00     0.129 C 
BRANCH   5   6
HETATM    6  C   UNL     1       5.080   0.905  -0.465  1.00  0.00     0.032 C 
HETATM    7  C   UNL     1       4.829   2.323  -0.997  1.00  0.00     0.010 C 
HETATM    8  C   UNL     1       3.337   2.659  -0.999  1.00  0.00     0.031 C 
HETATM    9  C   UNL     1       2.693   2.366   0.357  1.00  0.00     0.272 C 
HETATM   10  N   UNL     1       2.916   0.995   0.837  1.00  0.00     0.088 N 
HETATM   11  C   UNL     1       4.365   0.717   0.889  1.00  0.00     0.278 C 
BRANCH  10  12
HETATM   12  C   UNL     1       2.211  -0.042   0.065  1.00  0.00     0.268 C 
HETATM   13  C   UNL     1       0.692   0.077   0.102  1.00  0.00     0.037 C 
ENDBRANCH  10  12
ENDBRANCH   5   6
ENDBRANCH   1   5
BRANCH   2  14
HETATM   14  C   UNL     1       7.021  -3.159  -0.111  1.00  0.00     0.250 C 
BRANCH  14  15
HETATM   15  N   UNL     1       8.433  -3.428   0.032  1.00  0.00    -0.294 N 
HETATM   16  C   UNL     1       9.233  -4.096  -0.849  1.00  0.00     0.118 A 
HETATM   17  C   UNL     1      10.500  -4.091  -0.306  1.00  0.00    -0.028 A 
HETATM   18  C   UNL     1      11.743  -4.650  -0.882  1.00  0.00     0.051 C 
HETATM   19  C   UNL     1      10.342  -3.417   0.926  1.00  0.00     0.115 A 
HETATM   20  N   UNL     1       9.084  -3.020   1.141  1.00  0.00    -0.309 N 
ATOM     21  HN  UNL     1       8.706  -2.527   1.950  1.00  0.00     0.186 HD
ENDBRANCH  14  15
ENDBRANCH   2  14
TORSDOF 5
