REMARK  5 active torsions:
REMARK  status: ('A' for Active; 'I' for Inactive)
REMARK    1  A    between atoms: C_2  and  C_3 
REMARK    2  A    between atoms: C_2  and  N_14 
REMARK       I    between atoms: C_3  and  N_5 
REMARK    3  A    between atoms: N_5  and  C_6 
REMARK    4  A    between atoms: C_6  and  C_7 
REMARK    5  A    between atoms: C_7  and  N_8 
ROOT
HETATM    1  C   UNL     1       2.069  -0.366   1.358  1.00  0.00     0.242 C 
HETATM    2  O   UNL     1       2.007  -1.591   1.482  1.00  0.00    -0.271 OA
HETATM    3  N   UNL     1       2.365   0.465   2.422  1.00  0.00    -0.358 N 
HETATM    4  H   UNL     1       2.598   1.437   2.214  1.00  0.00     0.162 HD
ENDROOT
BRANCH   1   5
HETATM    5  C   UNL     1       1.890   0.262  -0.016  1.00  0.00     0.196 C 
HETATM    6  C   UNL     1       3.190   0.202  -0.811  1.00  0.00     0.044 C 
BRANCH   5   7
HETATM    7  N   UNL     1       1.333   1.601   0.041  1.00  0.00    -0.273 N 
HETATM    8  C   UNL     1       0.105   2.004  -0.385  1.00  0.00     0.202 A 
HETATM    9  N   UNL     1      -0.011   3.301  -0.219  1.00  0.00    -0.346 N 
HETATM   10  C   UNL     1       1.191   3.655   0.319  1.00  0.00     0.198 A 
ATOM     11  HN  UNL     1      -0.807   3.899  -0.439  1.00  0.00     0.167 HD
HETATM   12  N   UNL     1       2.046   2.646   0.517  1.00  0.00    -0.292 N 
ATOM     13  HN  UNL     1       2.983   2.661   0.919  1.00  0.00     0.188 HD
ENDBRANCH   5   7
ENDBRANCH   1   5
BRANCH   3  14
HETATM   14  C   UNL     1       2.760  -0.106   3.699  1.00  0.00     0.152 C 
BRANCH  14  15
HETATM   15  C   UNL     1       2.486   0.796   4.921  1.00  0.00     0.292 C 
BRANCH  15  16
HETATM   16  N   UNL     1       2.890   0.151   6.188  1.00  0.00     0.094 N 
HETATM   17  C   UNL     1       2.075  -1.036   6.544  1.00  0.00     0.298 C 
HETATM   18  C   UNL     1       0.677  -0.705   7.090  1.00  0.00     0.198 C 
HETATM   19  O   UNL     1       0.762   0.157   8.230  1.00  0.00    -0.388 OA
HETATM   20  C   UNL     1       1.451   1.367   7.893  1.00  0.00     0.198 C 
HETATM   21  C   UNL     1       2.858   1.085   7.335  1.00  0.00     0.298 C 
ENDBRANCH  15  16
ENDBRANCH  14  15
ENDBRANCH   3  14
TORSDOF 5
