REMARK  5 active torsions:
REMARK  status: ('A' for Active; 'I' for Inactive)
REMARK       I    between atoms: N_4  and  C_9 
REMARK    1  A    between atoms: C_9  and  C_11 
REMARK    2  A    between atoms: C_11  and  N_12 
REMARK    3  A    between atoms: N_12  and  C_13 
REMARK    4  A    between atoms: C_13  and  C_14 
REMARK    5  A    between atoms: C_14  and  N_15 
ROOT
HETATM    1  C   UNL     1       1.392   2.689  -2.883  1.00  0.00     0.372 C 
ENDROOT
BRANCH   1   2
HETATM    2  C   UNL     1       1.832   1.279  -3.284  1.00  0.00     0.248 C 
HETATM    3  N   UNL     1       2.687   0.589  -2.440  1.00  0.00    -0.346 N 
HETATM    4  C   UNL     1       3.260   1.088  -1.189  1.00  0.00     0.157 C 
HETATM    5  C   UNL     1       2.920  -0.837  -2.648  1.00  0.00     0.157 C 
HETATM    6  C   UNL     1       2.740   0.267   0.008  1.00  0.00     0.136 C 
HETATM    7  C   UNL     1       1.287   0.585   0.357  1.00  0.00     0.041 C 
HETATM    8  O   UNL     1       2.930  -1.146  -0.205  1.00  0.00    -0.378 OA
HETATM    9  C   UNL     1       2.368  -1.626  -1.445  1.00  0.00     0.136 C 
HETATM   10  C   UNL     1       2.706  -3.105  -1.558  1.00  0.00     0.041 C 
HETATM   11  O   UNL     1       1.407   0.783  -4.330  1.00  0.00    -0.271 OA
ENDBRANCH   1   2
BRANCH   1  12
HETATM   12  N   UNL     1       2.417   3.675  -3.273  1.00  0.00     0.093 N 
HETATM   13  H   UNL     1       2.506   3.623  -4.292  1.00  0.00     0.316 HD
BRANCH  12  14
HETATM   14  C   UNL     1       2.007   5.042  -2.909  1.00  0.00     0.291 C 
BRANCH  14  15
HETATM   15  C   UNL     1       2.011   5.287  -1.398  1.00  0.00     0.178 C 
BRANCH  15  16
HETATM   16  N   UNL     1       1.640   6.650  -1.077  1.00  0.00    -0.302 N 
HETATM   17  C   UNL     1       2.485   7.699  -0.867  1.00  0.00     0.118 A 
HETATM   18  C   UNL     1       1.686   8.787  -0.585  1.00  0.00    -0.028 A 
HETATM   19  C   UNL     1       2.100  10.175  -0.294  1.00  0.00     0.051 C 
HETATM   20  C   UNL     1       0.372   8.270  -0.636  1.00  0.00     0.115 A 
HETATM   21  N   UNL     1       0.341   6.971  -0.938  1.00  0.00    -0.310 N 
ATOM     22  HN  UNL     1      -0.474   6.365  -1.039  1.00  0.00     0.186 HD
ENDBRANCH  15  16
ENDBRANCH  14  15
ENDBRANCH  12  14
ENDBRANCH   1  12
TORSDOF 5
