REMARK  6 active torsions:
REMARK  status: ('A' for Active; 'I' for Inactive)
REMARK    1  A    between atoms: O_1  and  C_2 
REMARK    2  A    between atoms: C_2  and  C_3 
REMARK    3  A    between atoms: C_2  and  C_14 
REMARK    4  A    between atoms: C_3  and  N_4 
REMARK    5  A    between atoms: C_17  and  O_18 
REMARK    6  A    between atoms: O_18  and  C_19 
ROOT
HETATM    1  C   UNL     1       2.397  -0.003  -0.163  1.00  0.00     0.169 C 
ENDROOT
BRANCH   1   2
HETATM    2  O   UNL     1       0.969   0.113  -0.086  1.00  0.00    -0.389 OA
HETATM    3  H   UNL     1       0.729   0.344   0.826  1.00  0.00     0.210 HD
ENDBRANCH   1   2
BRANCH   1   4
HETATM    4  C   UNL     1       2.880  -1.132   0.775  1.00  0.00     0.166 C 
BRANCH   4   5
HETATM    5  N   UNL     1       2.510  -2.480   0.388  1.00  0.00    -0.338 N 
HETATM    6  C   UNL     1       1.225  -2.944   0.295  1.00  0.00     0.184 A 
HETATM    7  N   UNL     1       1.180  -4.228   0.028  1.00  0.00    -0.350 N 
HETATM    8  C   UNL     1       2.490  -4.617  -0.063  1.00  0.00     0.060 A 
ATOM      9  HN  UNL     1       0.350  -4.810  -0.087  1.00  0.00     0.166 HD
HETATM   10  C   UNL     1       3.014  -5.890  -0.331  1.00  0.00     0.032 A 
HETATM   11  C   UNL     1       3.358  -3.547   0.164  1.00  0.00     0.062 A 
HETATM   12  C   UNL     1       4.403  -6.055  -0.368  1.00  0.00     0.002 A 
HETATM   13  C   UNL     1       5.252  -4.974  -0.139  1.00  0.00     0.002 A 
HETATM   14  C   UNL     1       4.749  -3.695   0.138  1.00  0.00     0.032 A 
ENDBRANCH   4   5
ENDBRANCH   1   4
BRANCH   1  15
HETATM   15  C   UNL     1       2.834  -0.086  -1.617  1.00  0.00    -0.028 A 
HETATM   16  C   UNL     1       2.038   0.469  -2.630  1.00  0.00     0.012 A 
HETATM   17  C   UNL     1       2.415   0.385  -3.973  1.00  0.00     0.037 A 
HETATM   18  C   UNL     1       3.609  -0.235  -4.337  1.00  0.00     0.074 A 
HETATM   19  C   UNL     1       4.425  -0.770  -3.344  1.00  0.00     0.037 A 
HETATM   20  C   UNL     1       4.052  -0.670  -1.998  1.00  0.00     0.012 A 
BRANCH  18  21
HETATM   21  O   UNL     1       3.854  -0.280  -5.679  1.00  0.00    -0.290 OA
BRANCH  21  22
HETATM   22  C   UNL     1       5.216  -0.409  -6.049  1.00  0.00     0.505 C 
HETATM   23  F   UNL     1       5.581  -1.712  -5.963  1.00  0.00    -0.184 F 
HETATM   24  F   UNL     1       5.314  -0.062  -7.358  1.00  0.00    -0.184 F 
ENDBRANCH  21  22
ENDBRANCH  18  21
ENDBRANCH   1  15
TORSDOF 6
