REMARK  6 active torsions:
REMARK  status: ('A' for Active; 'I' for Inactive)
REMARK    1  A    between atoms: N_2  and  C_3 
REMARK    2  A    between atoms: N_2  and  C_16 
REMARK    3  A    between atoms: C_3  and  C_4 
REMARK       I    between atoms: C_4  and  N_6 
REMARK    4  A    between atoms: N_6  and  C_7 
REMARK    5  A    between atoms: C_7  and  C_8 
REMARK    6  A    between atoms: C_8  and  C_9 
ROOT
HETATM    1  C   UNL     1       2.284   0.756   2.366  1.00  0.00     0.246 C 
HETATM    2  O   UNL     1       2.508   1.950   2.202  1.00  0.00    -0.272 OA
HETATM    3  N   UNL     1       1.547   0.267   3.432  1.00  0.00    -0.359 N 
HETATM    4  H   UNL     1       1.610  -0.719   3.650  1.00  0.00     0.162 HD
ENDROOT
BRANCH   1   5
HETATM    5  C   UNL     1       2.778  -0.335   1.398  1.00  0.00     0.374 C 
BRANCH   5   6
HETATM    6  N   UNL     1       2.343  -0.078   0.001  1.00  0.00     0.098 N 
HETATM    7  C   UNL     1       0.877  -0.026  -0.077  1.00  0.00     0.310 C 
BRANCH   6   8
HETATM    8  C   UNL     1       2.920  -1.052  -0.954  1.00  0.00     0.237 C 
HETATM    9  C   UNL     1       4.470  -1.057  -0.929  1.00  0.00     0.051 C 
HETATM   10  C   UNL     1       5.032  -1.524  -2.271  1.00  0.00     0.142 C 
HETATM   11  S   UNL     1       3.653  -1.744  -3.361  1.00  0.00     0.146 S 
HETATM   12  O   UNL     1       3.917  -1.078  -4.619  1.00  0.00    -0.228 OA
HETATM   13  O   UNL     1       3.234  -3.130  -3.294  1.00  0.00    -0.228 OA
HETATM   14  C   UNL     1       2.522  -0.774  -2.409  1.00  0.00     0.176 C 
ENDBRANCH   6   8
ENDBRANCH   5   6
ENDBRANCH   1   5
BRANCH   3  15
HETATM   15  C   UNL     1       1.091   1.175   4.472  1.00  0.00     0.128 C 
BRANCH  15  16
HETATM   16  C   UNL     1       0.230   0.476   5.520  1.00  0.00     0.076 C 
BRANCH  16  17
HETATM   17  C   UNL     1      -0.239   1.455   6.561  1.00  0.00     0.010 A 
HETATM   18  C   UNL     1      -1.448   2.131   6.407  1.00  0.00     0.025 A 
HETATM   19  C   UNL     1      -1.817   3.072   7.363  1.00  0.00     0.003 A 
HETATM   20  C   UNL     1      -0.974   3.315   8.440  1.00  0.00     0.017 A 
HETATM   21  C   UNL     1       0.207   2.599   8.520  1.00  0.00     0.088 A 
HETATM   22  N   UNL     1       0.592   1.678   7.607  1.00  0.00    -0.369 N 
ATOM     23  HN  UNL     1       1.472   1.172   7.702  1.00  0.00     0.165 HD
ENDBRANCH  16  17
ENDBRANCH  15  16
ENDBRANCH   3  15
TORSDOF 6
