REMARK  5 active torsions:
REMARK  status: ('A' for Active; 'I' for Inactive)
REMARK    1  A    between atoms: S_2  and  N_5 
REMARK    2  A    between atoms: C_9  and  C_11 
REMARK       I    between atoms: C_11  and  N_13 
REMARK    3  A    between atoms: N_13  and  C_14 
REMARK    4  A    between atoms: C_14  and  C_15 
REMARK    5  A    between atoms: C_15  and  C_16 
ROOT
HETATM    1  C   UNL     1       0.138   2.325  -3.060  1.00  0.00     0.223 C 
HETATM    2  O   UNL     1       0.389   1.935  -4.195  1.00  0.00    -0.273 OA
HETATM    3  N   UNL     1      -1.015   3.014  -2.737  1.00  0.00    -0.360 N 
HETATM    4  H   UNL     1      -1.251   3.118  -1.758  1.00  0.00     0.162 HD
ENDROOT
BRANCH   1   5
HETATM    5  C   UNL     1       1.077   2.128  -1.878  1.00  0.00     0.096 C 
HETATM    6  C   UNL     1       1.636   3.484  -1.427  1.00  0.00     0.017 C 
HETATM    7  C   UNL     1       2.673   3.321  -0.321  1.00  0.00     0.021 C 
HETATM    8  C   UNL     1       3.764   2.329  -0.712  1.00  0.00     0.135 C 
HETATM    9  N   UNL     1       3.187   1.031  -1.137  1.00  0.00    -0.310 N 
HETATM   10  C   UNL     1       2.214   1.179  -2.258  1.00  0.00     0.149 C 
BRANCH   9  11
HETATM   11  S   UNL     1       2.826  -0.119   0.055  1.00  0.00     0.224 S 
HETATM   12  C   UNL     1       4.454  -0.647   0.554  1.00  0.00     0.186 C 
HETATM   13  O   UNL     1       2.181  -1.247  -0.582  1.00  0.00    -0.206 OA
HETATM   14  O   UNL     1       2.198   0.560   1.166  1.00  0.00    -0.206 OA
ENDBRANCH   9  11
ENDBRANCH   1   5
BRANCH   3  15
HETATM   15  C   UNL     1      -2.049   3.226  -3.732  1.00  0.00     0.127 C 
BRANCH  15  16
HETATM   16  C   UNL     1      -3.210   4.059  -3.188  1.00  0.00     0.059 C 
BRANCH  16  17
HETATM   17  C   UNL     1      -4.274   4.246  -4.230  1.00  0.00    -0.041 A 
HETATM   18  C   UNL     1      -5.309   3.321  -4.386  1.00  0.00     0.010 A 
HETATM   19  C   UNL     1      -6.231   3.487  -5.415  1.00  0.00     0.018 A 
HETATM   20  C   UNL     1      -6.088   4.578  -6.255  1.00  0.00     0.087 A 
HETATM   21  N   UNL     1      -5.110   5.500  -6.128  1.00  0.00    -0.375 N 
HETATM   22  C   UNL     1      -4.226   5.313  -5.123  1.00  0.00     0.094 A 
ATOM     23  HN  UNL     1      -5.042   6.298  -6.759  1.00  0.00     0.164 HD
ENDBRANCH  16  17
ENDBRANCH  15  16
ENDBRANCH   3  15
TORSDOF 5
