REMARK  3 active torsions:
REMARK  status: ('A' for Active; 'I' for Inactive)
REMARK    1  A    between atoms: C_2  and  C_5 
REMARK    2  A    between atoms: C_9  and  N_10 
REMARK       I    between atoms: N_10  and  C_11 
REMARK       I    between atoms: C_11  and  N_13 
REMARK    3  A    between atoms: N_13  and  C_14 
ROOT
HETATM    1  C   UNL     1       3.038  -0.506  -1.312  1.00  0.00     0.088 A 
HETATM    2  N   UNL     1       2.827  -1.819  -1.496  1.00  0.00    -0.353 N 
ATOM      3  HN  UNL     1       2.399  -2.393  -0.769  1.00  0.00     0.166 HD
HETATM    4  C   UNL     1       3.202  -2.352  -2.678  1.00  0.00     0.120 A 
HETATM    5  C   UNL     1       3.764  -1.635  -3.710  1.00  0.00     0.067 A 
HETATM    6  C   UNL     1       3.908  -0.288  -3.434  1.00  0.00     0.120 A 
HETATM    7  N   UNL     1       3.556   0.300  -2.262  1.00  0.00    -0.353 N 
ATOM      8  HN  UNL     1       3.677   1.301  -2.107  1.00  0.00     0.166 HD
ENDROOT
BRANCH   5   9
HETATM    9  N   UNL     1       4.147  -2.180  -4.962  1.00  0.00    -0.306 N 
HETATM   10  C   UNL     1       4.043  -3.509  -5.305  1.00  0.00     0.321 C 
HETATM   11  O   UNL     1       3.698  -4.412  -4.554  1.00  0.00    -0.247 OA
HETATM   12  N   UNL     1       4.304  -3.740  -6.637  1.00  0.00    -0.338 N 
HETATM   13  H   UNL     1       4.938  -3.114  -7.111  1.00  0.00     0.164 HD
HETATM   14  H   UNL     1       4.500  -1.542  -5.663  1.00  0.00     0.171 HD
BRANCH  12  15
HETATM   15  C   UNL     1       4.174  -5.092  -7.154  1.00  0.00     0.086 C 
HETATM   16  C   UNL     1       5.426  -5.953  -6.937  1.00  0.00     0.025 C 
HETATM   17  C   UNL     1       5.645  -6.717  -8.244  1.00  0.00     0.002 C 
HETATM   18  C   UNL     1       4.372  -6.519  -9.053  1.00  0.00     0.002 C 
HETATM   19  C   UNL     1       3.908  -5.128  -8.654  1.00  0.00     0.025 C 
ENDBRANCH  12  15
ENDBRANCH   5   9
BRANCH   1  20
HETATM   20  C   UNL     1       2.607   0.077   0.032  1.00  0.00     0.007 C 
HETATM   21  C   UNL     1       2.725  -0.997   1.137  1.00  0.00     0.022 C 
HETATM   22  C   UNL     1       1.143   0.534  -0.061  1.00  0.00     0.022 C 
HETATM   23  C   UNL     1       3.491   1.269   0.436  1.00  0.00     0.022 C 
ENDBRANCH   1  20
TORSDOF 3
