REMARK  4 active torsions:
REMARK  status: ('A' for Active; 'I' for Inactive)
REMARK       I    between atoms: C_2  and  N_3 
REMARK       I    between atoms: C_2  and  N_16 
REMARK    1  A    between atoms: N_3  and  C_4 
REMARK    2  A    between atoms: C_4  and  C_5 
REMARK    3  A    between atoms: C_5  and  N_10 
REMARK    4  A    between atoms: N_16  and  C_17 
ROOT
HETATM    1  O   UNL     1       0.151  -4.068  -0.420  1.00  0.00    -0.247 OA
HETATM    2  C   UNL     1       0.876  -3.256  -0.994  1.00  0.00     0.321 C 
HETATM    3  N   UNL     1       1.764  -2.466  -0.335  1.00  0.00    -0.340 N 
HETATM    4  N   UNL     1       0.821  -3.180  -2.349  1.00  0.00    -0.295 N 
HETATM    5  H   UNL     1       2.096  -1.675  -0.888  1.00  0.00     0.164 HD
HETATM    6  H   UNL     1       0.189  -3.864  -2.739  1.00  0.00     0.172 HD
ENDROOT
BRANCH   3   7
HETATM    7  C   UNL     1       1.877  -2.407   1.114  1.00  0.00     0.167 C 
BRANCH   7   8
HETATM    8  C   UNL     1       2.935  -3.325   1.865  1.00  0.00     0.184 C 
HETATM    9  C   UNL     1       2.489  -4.811   1.758  1.00  0.00     0.054 C 
HETATM   10  C   UNL     1       3.152  -5.620   2.870  1.00  0.00     0.076 C 
HETATM   11  S   UNL     1       3.231  -4.522   4.309  1.00  0.00    -0.166 SA
HETATM   12  C   UNL     1       2.672  -3.059   3.392  1.00  0.00     0.117 C 
BRANCH   8  13
HETATM   13  N   UNL     1       4.410  -3.210   1.597  1.00  0.00     0.104 N 
HETATM   14  C   UNL     1       5.084  -1.940   1.907  1.00  0.00     0.299 C 
HETATM   15  C   UNL     1       4.829  -0.870   0.848  1.00  0.00     0.198 C 
HETATM   16  O   UNL     1       5.217  -1.287  -0.464  1.00  0.00    -0.388 OA
HETATM   17  C   UNL     1       4.823  -2.619  -0.820  1.00  0.00     0.198 C 
HETATM   18  C   UNL     1       4.940  -3.655   0.301  1.00  0.00     0.299 C 
ENDBRANCH   8  13
ENDBRANCH   7   8
ENDBRANCH   3   7
BRANCH   4  19
HETATM   19  C   UNL     1       1.463  -2.327  -3.256  1.00  0.00     0.108 A 
HETATM   20  C   UNL     1       1.280  -2.592  -4.613  1.00  0.00     0.049 A 
HETATM   21  C   UNL     1       1.898  -1.771  -5.559  1.00  0.00     0.005 A 
HETATM   22  C   UNL     1       2.675  -0.710  -5.122  1.00  0.00     0.017 A 
HETATM   23  C   UNL     1       2.806  -0.516  -3.759  1.00  0.00     0.089 A 
HETATM   24  N   UNL     1       2.221  -1.305  -2.817  1.00  0.00    -0.352 N 
ATOM     25  HN  UNL     1       2.351  -1.129  -1.821  1.00  0.00     0.166 HD
ENDBRANCH   4  19
TORSDOF 4
