REMARK  3 active torsions:
REMARK  status: ('A' for Active; 'I' for Inactive)
REMARK    1  A    between atoms: C_8  and  C_9 
REMARK    2  A    between atoms: C_9  and  C_10 
REMARK       I    between atoms: C_10  and  N_12 
REMARK    3  A    between atoms: N_12  and  C_13 
ROOT
HETATM    1  C   UNL     1       2.075   3.753   1.022  1.00  0.00     0.222 C 
HETATM    2  O   UNL     1       1.422   3.173   1.883  1.00  0.00    -0.273 OA
HETATM    3  N   UNL     1       1.505   4.592   0.085  1.00  0.00    -0.354 N 
HETATM    4  H   UNL     1       2.089   4.960  -0.656  1.00  0.00     0.162 HD
ENDROOT
BRANCH   1   5
HETATM    5  C   UNL     1       3.574   3.560   0.890  1.00  0.00     0.146 C 
BRANCH   5   6
HETATM    6  C   UNL     1       4.415   4.549   1.625  1.00  0.00     0.006 A 
HETATM    7  C   UNL     1       4.189   5.228   2.860  1.00  0.00     0.038 A 
HETATM    8  C   UNL     1       3.029   5.157   3.781  1.00  0.00     0.071 C 
HETATM    9  N   UNL     1       5.224   6.013   3.183  1.00  0.00    -0.265 N 
HETATM   10  O   UNL     1       6.161   5.836   2.192  1.00  0.00    -0.242 OA
ATOM     11  HN  UNL     1       5.302   6.620   3.999  1.00  0.00     0.194 HD
HETATM   12  C   UNL     1       5.690   4.956   1.274  1.00  0.00     0.081 A 
HETATM   13  C   UNL     1       6.612   4.622   0.171  1.00  0.00     0.079 C 
ENDBRANCH   5   6
ENDBRANCH   1   5
BRANCH   3  14
HETATM   14  C   UNL     1       0.053   4.695  -0.073  1.00  0.00     0.119 C 
HETATM   15  C   UNL     1      -0.363   6.057  -0.653  1.00  0.00     0.057 C 
HETATM   16  C   UNL     1      -1.233   5.757  -1.877  1.00  0.00     0.275 C 
HETATM   17  N   UNL     1      -1.659   4.380  -1.668  1.00  0.00     0.095 N 
HETATM   18  C   UNL     1      -2.143   3.700  -2.867  1.00  0.00     0.273 C 
HETATM   19  C   UNL     1      -0.492   3.692  -1.103  1.00  0.00     0.245 C 
HETATM   20  C   UNL     1      -2.542   2.254  -2.534  1.00  0.00     0.030 C 
HETATM   21  C   UNL     1      -1.469   1.502  -1.738  1.00  0.00     0.004 C 
HETATM   22  C   UNL     1      -0.948   2.340  -0.565  1.00  0.00     0.038 C 
ENDBRANCH   3  14
TORSDOF 3
