REMARK  6 active torsions:
REMARK  status: ('A' for Active; 'I' for Inactive)
REMARK    1  A    between atoms: C_2  and  C_3 
REMARK    2  A    between atoms: C_7  and  C_8 
REMARK    3  A    between atoms: C_8  and  C_9 
REMARK    4  A    between atoms: C_9  and  N_10 
REMARK       I    between atoms: N_10  and  C_11 
REMARK       I    between atoms: C_11  and  N_13 
REMARK    5  A    between atoms: N_13  and  C_14 
REMARK    6  A    between atoms: C_19  and  O_20 
ROOT
HETATM    1  N   UNL     1       5.835   1.615  -5.987  1.00  0.00    -0.343 N 
HETATM    2  C   UNL     1       6.179   0.492  -6.704  1.00  0.00     0.316 C 
HETATM    3  O   UNL     1       5.972  -0.649  -6.307  1.00  0.00    -0.247 OA
HETATM    4  N   UNL     1       6.758   0.789  -7.912  1.00  0.00    -0.336 N 
HETATM    5  H   UNL     1       5.551   2.409  -6.551  1.00  0.00     0.164 HD
HETATM    6  H   UNL     1       7.295   1.647  -7.918  1.00  0.00     0.164 HD
ENDROOT
BRANCH   1   7
HETATM    7  C   UNL     1       5.078   1.420  -4.756  1.00  0.00     0.131 C 
BRANCH   7   8
HETATM    8  C   UNL     1       4.823   2.696  -3.955  1.00  0.00     0.084 C 
BRANCH   8   9
HETATM    9  C   UNL     1       3.849   3.599  -4.647  1.00  0.00     0.052 A 
HETATM   10  N   UNL     1       4.094   4.215  -5.786  1.00  0.00    -0.363 N 
HETATM   11  C   UNL     1       2.989   4.963  -6.154  1.00  0.00     0.103 A 
ATOM     12  HN  UNL     1       4.964   4.151  -6.315  1.00  0.00     0.165 HD
HETATM   13  C   UNL     1       1.907   4.897  -5.302  1.00  0.00    -0.001 A 
HETATM   14  S   UNL     1       2.292   3.888  -3.971  1.00  0.00    -0.080 SA
BRANCH  13  15
HETATM   15  C   UNL     1       0.569   5.550  -5.429  1.00  0.00     0.043 C 
HETATM   16  C   UNL     1      -0.411   4.661  -6.179  1.00  0.00     0.010 C 
ENDBRANCH  13  15
ENDBRANCH   8   9
ENDBRANCH   7   8
ENDBRANCH   1   7
BRANCH   4  17
HETATM   17  C   UNL     1       7.194  -0.310  -8.791  1.00  0.00     0.114 C 
HETATM   18  C   UNL     1       8.593  -0.830  -8.432  1.00  0.00     0.028 C 
HETATM   19  C   UNL     1       9.723   0.100  -8.878  1.00  0.00     0.002 C 
HETATM   20  C   UNL     1       9.605   0.542 -10.335  1.00  0.00     0.003 C 
HETATM   21  C   UNL     1       8.217   1.056 -10.690  1.00  0.00     0.034 C 
HETATM   22  C   UNL     1       7.124   0.074 -10.283  1.00  0.00     0.140 C 
BRANCH  22  23
HETATM   23  O   UNL     1       5.854   0.642 -10.602  1.00  0.00    -0.394 OA
HETATM   24  H   UNL     1       5.601   1.195  -9.840  1.00  0.00     0.210 HD
ENDBRANCH  22  23
ENDBRANCH   4  17
TORSDOF 6
