REMARK  7 active torsions:
REMARK  status: ('A' for Active; 'I' for Inactive)
REMARK    1  A    between atoms: C_2  and  N_3 
REMARK    2  A    between atoms: N_3  and  C_4 
REMARK       I    between atoms: N_3  and  C_7 
REMARK    3  A    between atoms: C_7  and  C_9 
REMARK    4  A    between atoms: C_9  and  N_10 
REMARK    5  A    between atoms: N_10  and  C_11 
REMARK    6  A    between atoms: C_11  and  C_13 
REMARK    7  A    between atoms: C_13  and  N_14 
ROOT
HETATM    1  N   UNL     1       6.548  -2.118  -2.256  1.00  0.00     0.098 N 
HETATM    2  H   UNL     1       6.880  -2.453  -1.344  1.00  0.00     0.317 HD
ENDROOT
BRANCH   1   3
HETATM    3  C   UNL     1       5.075  -2.089  -2.178  1.00  0.00     0.372 C 
BRANCH   3   4
HETATM    4  C   UNL     1       4.622  -1.196  -1.013  1.00  0.00     0.248 C 
HETATM    5  N   UNL     1       4.307   0.137  -1.301  1.00  0.00    -0.346 N 
HETATM    6  O   UNL     1       4.539  -1.667   0.126  1.00  0.00    -0.271 OA
BRANCH   5   7
HETATM    7  C   UNL     1       3.663   0.930  -0.256  1.00  0.00     0.122 C 
HETATM    8  C   UNL     1       4.657   1.568   0.702  1.00  0.00     0.026 C 
ENDBRANCH   5   7
BRANCH   5   9
HETATM    9  C   UNL     1       4.427   0.724  -2.613  1.00  0.00     0.087 A 
HETATM   10  C   UNL     1       5.777   0.928  -3.256  1.00  0.00     0.027 A 
HETATM   11  C   UNL     1       4.965   2.115  -2.849  1.00  0.00     0.027 A 
ENDBRANCH   5   9
ENDBRANCH   3   4
ENDBRANCH   1   3
BRANCH   1  12
HETATM   12  C   UNL     1       7.045  -3.037  -3.303  1.00  0.00     0.236 C 
HETATM   13  C   UNL     1       6.606  -2.576  -4.701  1.00  0.00     0.044 C 
BRANCH  12  14
HETATM   14  C   UNL     1       8.589  -3.110  -3.297  1.00  0.00     0.183 C 
BRANCH  14  15
HETATM   15  N   UNL     1       9.157  -3.695  -2.099  1.00  0.00    -0.302 N 
HETATM   16  C   UNL     1       9.993  -3.083  -1.209  1.00  0.00     0.111 A 
HETATM   17  C   UNL     1      10.330  -4.040  -0.282  1.00  0.00     0.037 A 
HETATM   18  C   UNL     1       9.645  -5.195  -0.700  1.00  0.00     0.108 A 
HETATM   19  N   UNL     1       8.936  -4.994  -1.814  1.00  0.00    -0.310 N 
ATOM     20  HN  UNL     1       8.363  -5.664  -2.327  1.00  0.00     0.186 HD
ENDBRANCH  14  15
ENDBRANCH  12  14
ENDBRANCH   1  12
TORSDOF 7
