REMARK  8 active torsions:
REMARK  status: ('A' for Active; 'I' for Inactive)
REMARK    1  A    between atoms: O_2  and  C_3 
REMARK    2  A    between atoms: C_8  and  O_9 
REMARK    3  A    between atoms: O_9  and  C_10 
REMARK    4  A    between atoms: C_10  and  C_11 
REMARK    5  A    between atoms: C_11  and  N_12 
REMARK    6  A    between atoms: C_13  and  C_22 
REMARK    7  A    between atoms: C_22  and  N_24 
REMARK    8  A    between atoms: N_24  and  C_25 
ROOT
HETATM    1  N   UNL     1       4.623  -3.791   0.191  1.00  0.00    -0.331 N 
HETATM    2  C   UNL     1       5.036  -5.096   0.439  1.00  0.00     0.107 A 
HETATM    3  N   UNL     1       4.541  -5.923  -0.463  1.00  0.00    -0.342 N 
ATOM      4  HN  UNL     1       4.726  -6.923  -0.544  1.00  0.00     0.167 HD
HETATM    5  C   UNL     1       3.732  -5.172  -1.265  1.00  0.00     0.060 A 
HETATM    6  C   UNL     1       2.932  -5.594  -2.340  1.00  0.00     0.032 A 
HETATM    7  C   UNL     1       2.184  -4.651  -3.049  1.00  0.00     0.002 A 
HETATM    8  C   UNL     1       2.227  -3.311  -2.686  1.00  0.00     0.002 A 
HETATM    9  C   UNL     1       2.999  -2.879  -1.600  1.00  0.00     0.032 A 
HETATM   10  C   UNL     1       3.759  -3.828  -0.894  1.00  0.00     0.062 A 
ENDROOT
BRANCH   1  11
HETATM   11  C   UNL     1       5.017  -2.632   0.988  1.00  0.00     0.157 C 
BRANCH  11  12
HETATM   12  C   UNL     1       5.127  -1.318   0.222  1.00  0.00     0.196 C 
BRANCH  12  13
HETATM   13  O   UNL     1       5.694  -0.278   1.017  1.00  0.00    -0.347 OA
BRANCH  13  14
HETATM   14  C   UNL     1       5.708   0.984   0.456  1.00  0.00     0.102 A 
HETATM   15  C   UNL     1       5.396   1.362  -0.870  1.00  0.00     0.101 A 
HETATM   16  C   UNL     1       5.525   2.709  -1.246  1.00  0.00     0.039 A 
HETATM   17  C   UNL     1       5.931   3.676  -0.326  1.00  0.00     0.003 A 
HETATM   18  C   UNL     1       6.212   3.310   0.985  1.00  0.00     0.003 A 
HETATM   19  C   UNL     1       6.101   1.974   1.370  1.00  0.00     0.039 A 
BRANCH  15  20
HETATM   20  O   UNL     1       5.032   0.395  -1.770  1.00  0.00    -0.353 OA
HETATM   21  C   UNL     1       4.313   0.795  -2.930  1.00  0.00     0.210 C 
ENDBRANCH  15  20
ENDBRANCH  13  14
ENDBRANCH  12  13
ENDBRANCH  11  12
ENDBRANCH   1  11
BRANCH   2  22
HETATM   22  C   UNL     1       5.928  -5.522   1.576  1.00  0.00     0.147 C 
HETATM   23  C   UNL     1       5.592  -6.942   2.039  1.00  0.00     0.040 C 
BRANCH  22  24
HETATM   24  N   UNL     1       7.301  -5.469   1.106  1.00  0.00    -0.357 N 
HETATM   25  H   UNL     1       7.489  -5.837   0.181  1.00  0.00     0.162 HD
BRANCH  24  26
HETATM   26  C   UNL     1       8.342  -5.294   1.975  1.00  0.00     0.349 C 
HETATM   27  O   UNL     1       8.235  -5.036   3.166  1.00  0.00    -0.284 OA
ENDBRANCH  24  26
ENDBRANCH  22  24
ENDBRANCH   2  22
TORSDOF 8
