REMARK  5 active torsions:
REMARK  status: ('A' for Active; 'I' for Inactive)
REMARK    1  A    between atoms: N_6  and  C_7 
REMARK    2  A    between atoms: C_7  and  C_8 
REMARK    3  A    between atoms: C_8  and  O_9 
REMARK    4  A    between atoms: C_8  and  C_10 
REMARK    5  A    between atoms: C_10  and  N_11 
ROOT
HETATM    1  C   UNL     1       7.187  -1.251  -0.237  1.00  0.00     0.164 C 
ENDROOT
BRANCH   1   2
HETATM    2  C   UNL     1       6.652   0.189  -0.138  1.00  0.00     0.166 C 
BRANCH   2   3
HETATM    3  N   UNL     1       5.185   0.220  -0.109  1.00  0.00    -0.307 N 
HETATM    4  C   UNL     1       4.475   0.257  -1.277  1.00  0.00     0.186 A 
HETATM    5  N   UNL     1       3.187   0.248  -1.359  1.00  0.00    -0.355 N 
HETATM    6  C   UNL     1       2.478   0.176  -0.186  1.00  0.00     0.017 A 
ATOM      7  HN  UNL     1       2.714   0.293  -2.262  1.00  0.00     0.166 HD
HETATM    8  C   UNL     1       0.981   0.219  -0.359  1.00  0.00     0.069 C 
HETATM    9  C   UNL     1       3.047   0.070   1.029  1.00  0.00     0.028 A 
HETATM   10  C   UNL     1       4.535   0.048   1.092  1.00  0.00     0.256 A 
HETATM   11  C   UNL     1       2.284  -0.034   2.314  1.00  0.00     0.056 C 
HETATM   12  O   UNL     1       5.124  -0.118   2.158  1.00  0.00    -0.267 OA
ENDBRANCH   2   3
ENDBRANCH   1   2
BRANCH   1  13
HETATM   13  O   UNL     1       6.832  -1.758  -1.534  1.00  0.00    -0.392 OA
HETATM   14  H   UNL     1       7.658  -1.895  -2.033  1.00  0.00     0.210 HD
ENDBRANCH   1  13
BRANCH   1  15
HETATM   15  C   UNL     1       8.730  -1.309  -0.024  1.00  0.00     0.306 C 
BRANCH  15  16
HETATM   16  N   UNL     1       9.312  -2.660  -0.190  1.00  0.00     0.095 N 
HETATM   17  C   UNL     1       8.814  -3.610   0.829  1.00  0.00     0.277 C 
HETATM   18  C   UNL     1       9.262  -5.039   0.492  1.00  0.00     0.069 C 
HETATM   19  C   UNL     1      10.747  -5.127   0.251  1.00  0.00    -0.049 A 
HETATM   20  C   UNL     1      11.390  -6.375   0.297  1.00  0.00     0.007 A 
HETATM   21  C   UNL     1      11.472  -3.970  -0.070  1.00  0.00    -0.024 A 
HETATM   22  C   UNL     1      12.757  -6.467   0.059  1.00  0.00     0.001 A 
HETATM   23  C   UNL     1      13.490  -5.313  -0.228  1.00  0.00     0.001 A 
HETATM   24  C   UNL     1      12.849  -4.074  -0.291  1.00  0.00     0.009 A 
HETATM   25  C   UNL     1      10.791  -2.607  -0.098  1.00  0.00     0.311 C 
ENDBRANCH  15  16
ENDBRANCH   1  15
TORSDOF 5
