REMARK  5 active torsions:
REMARK  status: ('A' for Active; 'I' for Inactive)
REMARK    1  A    between atoms: N_2  and  C_17 
REMARK    2  A    between atoms: C_6  and  N_9 
REMARK    3  A    between atoms: C_7  and  N_8 
REMARK    4  A    between atoms: C_17  and  C_21 
REMARK    5  A    between atoms: C_21  and  O_28 
ROOT
HETATM    1  C   UNL     1      -1.836  -0.616   0.186  1.00  0.00     0.122 A 
HETATM    2  N   UNL     1      -2.663   1.421   0.257  1.00  0.00    -0.324 N 
HETATM    3  C   UNL     1      -1.497   0.726   0.091  1.00  0.00     0.140 A 
HETATM    4  N   UNL     1      -3.197  -0.730   0.439  1.00  0.00    -0.346 N 
ATOM      5  HN  UNL     1      -3.726  -1.589   0.591  1.00  0.00     0.167 HD
HETATM    6  C   UNL     1      -0.790  -1.566   0.006  1.00  0.00     0.135 A 
HETATM    7  C   UNL     1      -3.661   0.502   0.441  1.00  0.00     0.185 A 
HETATM    8  N   UNL     1      -0.289   1.264  -0.138  1.00  0.00    -0.336 N 
ATOM      9  HN  UNL     1      -0.100   2.265  -0.195  1.00  0.00     0.168 HD
HETATM   10  N   UNL     1       0.456  -1.032  -0.236  1.00  0.00    -0.337 N 
ATOM     11  HN  UNL     1       1.252  -1.653  -0.382  1.00  0.00     0.168 HD
HETATM   12  C   UNL     1       0.635   0.301  -0.282  1.00  0.00     0.183 A 
ENDROOT
BRANCH   6  13
HETATM   13  N   UNL     1      -0.914  -2.958   0.043  1.00  0.00    -0.363 N 
HETATM   14  C   UNL     1       0.293  -3.756  -0.140  1.00  0.00     0.130 C 
HETATM   15  C   UNL     1       0.347  -5.024   0.723  1.00  0.00     0.028 C 
HETATM   16  C   UNL     1      -0.405  -6.209   0.095  1.00  0.00     0.279 C 
HETATM   17  C   UNL     1      -0.006  -4.784   2.191  1.00  0.00     0.013 C 
HETATM   18  N   UNL     1      -1.876  -6.146  -0.002  1.00  0.00     0.095 N 
HETATM   19  C   UNL     1      -2.331  -4.923  -0.711  1.00  0.00     0.292 C 
HETATM   20  C   UNL     1      -2.241  -3.576   0.037  1.00  0.00     0.154 C 
BRANCH  18  21
HETATM   21  C   UNL     1      -2.373  -7.344  -0.743  1.00  0.00     0.227 A 
HETATM   22  C   UNL     1      -3.849  -7.657  -0.709  1.00  0.00     0.042 A 
HETATM   23  C   UNL     1      -2.871  -8.611  -0.092  1.00  0.00     0.017 A 
HETATM   24  C   UNL     1      -2.938  -8.856   1.374  1.00  0.00     0.012 C 
ENDBRANCH  18  21
ENDBRANCH   6  13
BRANCH   2  25
HETATM   25  C   UNL     1      -2.832   2.854   0.086  1.00  0.00     0.169 C 
BRANCH  25  26
HETATM   26  C   UNL     1      -2.827   3.701   1.384  1.00  0.00     0.078 C 
HETATM   27  C   UNL     1      -3.044   5.184   1.018  1.00  0.00     0.066 C 
HETATM   28  C   UNL     1      -1.776   5.839   0.498  1.00  0.00     0.170 C 
HETATM   29  O   UNL     1      -0.754   5.748   1.483  1.00  0.00    -0.391 OA
HETATM   30  C   UNL     1      -0.380   4.398   1.751  1.00  0.00     0.170 C 
HETATM   31  C   UNL     1      -1.562   3.575   2.254  1.00  0.00     0.066 C 
BRANCH  26  32
HETATM   32  O   UNL     1      -3.980   3.325   2.160  1.00  0.00    -0.388 OA
HETATM   33  H   UNL     1      -3.906   2.388   2.412  1.00  0.00     0.210 HD
ENDBRANCH  26  32
ENDBRANCH  25  26
ENDBRANCH   2  25
TORSDOF 5
