REMARK  7 active torsions:
REMARK  status: ('A' for Active; 'I' for Inactive)
REMARK    1  A    between atoms: O_2  and  C_3 
REMARK    2  A    between atoms: C_3  and  C_4 
REMARK    3  A    between atoms: C_4  and  O_5 
REMARK    4  A    between atoms: O_5  and  C_6 
REMARK    5  A    between atoms: C_9  and  C_10 
REMARK    6  A    between atoms: C_10  and  N_11 
REMARK    7  A    between atoms: N_11  and  C_12 
ROOT
HETATM    1  C   UNL     1       6.099   2.621   0.779  1.00  0.00     0.141 A 
HETATM    2  C   UNL     1       6.883   2.398   1.899  1.00  0.00     0.057 A 
HETATM    3  C   UNL     1       8.252   2.632   1.800  1.00  0.00     0.014 A 
HETATM    4  C   UNL     1       8.791   3.099   0.597  1.00  0.00    -0.015 A 
HETATM    5  C   UNL     1       7.910   3.295  -0.462  1.00  0.00     0.099 A 
HETATM    6  N   UNL     1       6.579   3.062  -0.402  1.00  0.00    -0.346 N 
ATOM      7  HN  UNL     1       5.971   3.212  -1.207  1.00  0.00     0.167 HD
ENDROOT
BRANCH   4   8
HETATM    8  C   UNL     1      10.249   3.456   0.479  1.00  0.00     0.310 C 
BRANCH   8   9
HETATM    9  N   UNL     1      11.106   2.322   0.806  1.00  0.00     0.095 N 
HETATM   10  H   UNL     1      10.892   1.554   0.168  1.00  0.00     0.316 HD
BRANCH   9  11
HETATM   11  C   UNL     1      12.544   2.614   0.749  1.00  0.00     0.257 C 
HETATM   12  C   UNL     1      13.328   1.342   1.071  1.00  0.00     0.076 C 
HETATM   13  C   UNL     1      14.669   1.831   1.628  1.00  0.00     0.057 C 
HETATM   14  C   UNL     1      15.011   1.165   2.964  1.00  0.00     0.045 C 
HETATM   15  C   UNL     1      15.821   1.601   0.649  1.00  0.00     0.045 C 
HETATM   16  O   UNL     1      14.549   3.247   1.847  1.00  0.00    -0.368 OA
HETATM   17  C   UNL     1      13.162   3.641   1.728  1.00  0.00     0.085 C 
HETATM   18  C   UNL     1      13.156   5.074   1.188  1.00  0.00     0.048 C 
HETATM   19  C   UNL     1      12.548   3.616   3.134  1.00  0.00     0.048 C 
ENDBRANCH   9  11
ENDBRANCH   8   9
ENDBRANCH   4   8
BRANCH   1  20
HETATM   20  O   UNL     1       4.743   2.435   0.945  1.00  0.00    -0.334 OA
BRANCH  20  21
HETATM   21  C   UNL     1       4.053   2.232  -0.289  1.00  0.00     0.203 C 
BRANCH  21  22
HETATM   22  C   UNL     1       2.567   2.090   0.024  1.00  0.00     0.193 C 
BRANCH  22  23
HETATM   23  O   UNL     1       1.847   1.776  -1.167  1.00  0.00    -0.394 OA
HETATM   24  C   UNL     1       0.454   1.651  -0.913  1.00  0.00     0.201 C 
ENDBRANCH  22  23
ENDBRANCH  21  22
ENDBRANCH  20  21
ENDBRANCH   1  20
TORSDOF 7
