REMARK  5 active torsions:
REMARK  status: ('A' for Active; 'I' for Inactive)
REMARK       I    between atoms: C_2  and  N_3 
REMARK       I    between atoms: C_2  and  N_17 
REMARK    1  A    between atoms: N_3  and  C_4 
REMARK    2  A    between atoms: C_4  and  C_5 
REMARK    3  A    between atoms: C_5  and  C_6 
REMARK    4  A    between atoms: C_5  and  N_11 
REMARK    5  A    between atoms: N_17  and  C_18 
ROOT
HETATM    1  O   UNL     1       1.132  -0.230   0.291  1.00  0.00    -0.247 OA
HETATM    2  C   UNL     1       2.222   0.120  -0.137  1.00  0.00     0.320 C 
HETATM    3  N   UNL     1       2.807  -0.455  -1.249  1.00  0.00    -0.341 N 
HETATM    4  N   UNL     1       3.060   1.070   0.413  1.00  0.00    -0.308 N 
HETATM    5  H   UNL     1       3.375   0.171  -1.802  1.00  0.00     0.164 HD
HETATM    6  H   UNL     1       4.031   0.995   0.158  1.00  0.00     0.170 HD
ENDROOT
BRANCH   3   7
HETATM    7  C   UNL     1       2.172  -1.555  -1.965  1.00  0.00     0.149 C 
BRANCH   7   8
HETATM    8  C   UNL     1       3.207  -2.547  -2.590  1.00  0.00     0.103 C 
BRANCH   8   9
HETATM    9  C   UNL     1       4.053  -3.322  -1.544  1.00  0.00     0.035 C 
HETATM   10  C   UNL     1       3.322  -4.114  -0.471  1.00  0.00     0.035 C 
HETATM   11  C   UNL     1       4.211  -4.016   0.760  1.00  0.00     0.168 C 
HETATM   12  O   UNL     1       5.398  -3.315   0.372  1.00  0.00    -0.391 OA
HETATM   13  C   UNL     1       5.027  -2.479  -0.728  1.00  0.00     0.174 C 
ENDBRANCH   8   9
BRANCH   8  14
HETATM   14  N   UNL     1       2.601  -3.353  -3.671  1.00  0.00    -0.402 N 
HETATM   15  C   UNL     1       1.409  -4.178  -3.443  1.00  0.00     0.143 C 
HETATM   16  C   UNL     1       1.641  -5.699  -3.317  1.00  0.00     0.187 C 
HETATM   17  O   UNL     1       2.540  -6.214  -4.305  1.00  0.00    -0.388 OA
HETATM   18  C   UNL     1       3.776  -5.493  -4.285  1.00  0.00     0.187 C 
HETATM   19  C   UNL     1       3.531  -4.012  -4.600  1.00  0.00     0.143 C 
ENDBRANCH   8  14
ENDBRANCH   7   8
ENDBRANCH   3   7
BRANCH   4  20
HETATM   20  C   UNL     1       2.737   1.983   1.443  1.00  0.00     0.051 A 
HETATM   21  C   UNL     1       1.440   2.227   1.883  1.00  0.00     0.032 A 
HETATM   22  C   UNL     1       1.203   3.205   2.850  1.00  0.00     0.019 A 
HETATM   23  C   UNL     1       2.280   3.913   3.355  1.00  0.00     0.088 A 
HETATM   24  N   UNL     1       3.557   3.698   2.973  1.00  0.00    -0.373 N 
HETATM   25  C   UNL     1       3.753   2.740   2.032  1.00  0.00     0.117 A 
ATOM     26  HN  UNL     1       4.333   4.227   3.370  1.00  0.00     0.164 HD
ENDBRANCH   4  20
TORSDOF 5
