REMARK  5 active torsions:
REMARK  status: ('A' for Active; 'I' for Inactive)
REMARK    1  A    between atoms: C_2  and  C_3 
REMARK       I    between atoms: C_2  and  N_10 
REMARK    2  A    between atoms: C_3  and  N_4 
REMARK    3  A    between atoms: N_10  and  C_11 
REMARK    4  A    between atoms: C_11  and  C_12 
REMARK    5  A    between atoms: C_12  and  C_13 
ROOT
HETATM    1  O   UNL     1       0.963  -0.431   0.054  1.00  0.00    -0.272 OA
HETATM    2  C   UNL     1       2.162  -0.180  -0.066  1.00  0.00     0.235 C 
HETATM    3  N   UNL     1       3.008  -1.252  -0.144  1.00  0.00    -0.359 N 
HETATM    4  H   UNL     1       2.519  -2.132  -0.016  1.00  0.00     0.162 HD
ENDROOT
BRANCH   3   5
HETATM    5  C   UNL     1       4.463  -1.249  -0.109  1.00  0.00     0.127 C 
BRANCH   5   6
HETATM    6  C   UNL     1       5.010  -2.678  -0.121  1.00  0.00     0.059 C 
BRANCH   6   7
HETATM    7  C   UNL     1       6.510  -2.732  -0.134  1.00  0.00    -0.041 A 
HETATM    8  C   UNL     1       7.225  -2.765  -1.333  1.00  0.00     0.010 A 
HETATM    9  C   UNL     1       8.614  -2.839  -1.306  1.00  0.00     0.018 A 
HETATM   10  C   UNL     1       9.246  -2.871  -0.074  1.00  0.00     0.087 A 
HETATM   11  N   UNL     1       8.591  -2.827   1.105  1.00  0.00    -0.375 N 
HETATM   12  C   UNL     1       7.242  -2.758   1.050  1.00  0.00     0.094 A 
ATOM     13  HN  UNL     1       9.090  -2.845   1.995  1.00  0.00     0.164 HD
ENDBRANCH   6   7
ENDBRANCH   5   6
ENDBRANCH   3   5
BRANCH   2  14
HETATM   14  C   UNL     1       2.729   1.243  -0.221  1.00  0.00     0.228 C 
BRANCH  14  15
HETATM   15  N   UNL     1       1.884   2.257   0.406  1.00  0.00    -0.343 N 
HETATM   16  C   UNL     1       0.557   2.565  -0.064  1.00  0.00     0.127 C 
HETATM   17  C   UNL     1      -0.022   3.498   0.984  1.00  0.00     0.029 C 
HETATM   18  C   UNL     1       0.836   3.297   2.222  1.00  0.00     0.104 C 
HETATM   19  C   UNL     1       2.114   2.697   1.694  1.00  0.00     0.220 C 
HETATM   20  O   UNL     1       3.148   2.569   2.331  1.00  0.00    -0.273 OA
ENDBRANCH  14  15
ENDBRANCH   2  14
TORSDOF 5
