REMARK  3 active torsions:
REMARK  status: ('A' for Active; 'I' for Inactive)
REMARK    1  A    between atoms: C_2  and  C_3 
REMARK       I    between atoms: C_2  and  N_11 
REMARK    2  A    between atoms: C_3  and  N_4 
REMARK    3  A    between atoms: N_11  and  C_12 
ROOT
HETATM    1  O   UNL     1       2.193   0.530   1.062  1.00  0.00    -0.271 OA
HETATM    2  C   UNL     1       2.374  -0.069   0.002  1.00  0.00     0.241 C 
HETATM    3  N   UNL     1       1.880  -1.333  -0.292  1.00  0.00    -0.306 N 
HETATM    4  H   UNL     1       1.692  -1.539  -1.270  1.00  0.00     0.171 HD
ENDROOT
BRANCH   2   5
HETATM    5  C   UNL     1       3.036   0.629  -1.180  1.00  0.00     0.234 C 
BRANCH   5   6
HETATM    6  N   UNL     1       2.054   1.364  -1.971  1.00  0.00    -0.316 N 
HETATM    7  C   UNL     1       1.753   2.677  -1.651  1.00  0.00     0.095 A 
HETATM    8  C   UNL     1       0.858   3.373  -2.365  1.00  0.00     0.017 A 
HETATM    9  C   UNL     1       0.200   2.758  -3.491  1.00  0.00     0.007 A 
HETATM   10  C   UNL     1       0.452   1.482  -3.812  1.00  0.00     0.074 A 
HETATM   11  C   UNL     1       1.411   0.688  -3.002  1.00  0.00     0.247 A 
HETATM   12  O   UNL     1       1.589  -0.506  -3.242  1.00  0.00    -0.268 OA
ENDBRANCH   5   6
ENDBRANCH   2   5
BRANCH   3  13
HETATM   13  C   UNL     1       1.439  -2.294   0.573  1.00  0.00     0.142 C 
HETATM   14  N   UNL     1       0.734  -3.283   0.139  1.00  0.00    -0.370 N 
HETATM   15  C   UNL     1       0.293  -4.084   1.305  1.00  0.00     0.132 C 
ATOM     16  HN  UNL     1       0.517  -3.480  -0.838  1.00  0.00     0.161 HD
HETATM   17  C   UNL     1       1.319  -3.979   2.420  1.00  0.00     0.102 C 
HETATM   18  S   UNL     1       1.882  -2.278   2.251  1.00  0.00    -0.092 SA
ENDBRANCH   3  13
TORSDOF 3
