REMARK  5 active torsions:
REMARK  status: ('A' for Active; 'I' for Inactive)
REMARK    1  A    between atoms: C_2  and  N_3 
REMARK    2  A    between atoms: C_2  and  C_17 
REMARK       I    between atoms: N_3  and  C_4 
REMARK       I    between atoms: C_4  and  N_6 
REMARK    3  A    between atoms: N_6  and  C_7 
REMARK    4  A    between atoms: C_7  and  C_8 
REMARK    5  A    between atoms: C_8  and  C_9 
REMARK       I    between atoms: C_17  and  N_19 
ROOT
HETATM    1  N   UNL     1       2.990  -0.620   1.480  1.00  0.00    -0.330 N 
HETATM    2  C   UNL     1       3.195   0.244   2.513  1.00  0.00     0.316 C 
HETATM    3  O   UNL     1       3.091   1.461   2.400  1.00  0.00    -0.247 OA
HETATM    4  N   UNL     1       3.489  -0.379   3.690  1.00  0.00    -0.343 N 
HETATM    5  H   UNL     1       3.002  -1.622   1.614  1.00  0.00     0.165 HD
HETATM    6  H   UNL     1       4.012  -1.237   3.593  1.00  0.00     0.164 HD
ENDROOT
BRANCH   1   7
HETATM    7  C   UNL     1       2.556  -0.097   0.195  1.00  0.00     0.174 C 
HETATM    8  C   UNL     1       1.034  -0.092   0.096  1.00  0.00     0.042 C 
BRANCH   7   9
HETATM    9  C   UNL     1       3.147  -0.895  -0.983  1.00  0.00     0.242 C 
HETATM   10  O   UNL     1       3.412  -2.089  -0.813  1.00  0.00    -0.271 OA
HETATM   11  N   UNL     1       3.248  -0.238  -2.215  1.00  0.00    -0.346 N 
HETATM   12  C   UNL     1       3.156   1.224  -2.370  1.00  0.00     0.126 C 
HETATM   13  C   UNL     1       3.508  -0.935  -3.497  1.00  0.00     0.083 C 
HETATM   14  C   UNL     1       2.009   1.594  -3.299  1.00  0.00     0.020 C 
HETATM   15  C   UNL     1       2.198   0.923  -4.651  1.00  0.00     0.004 C 
HETATM   16  C   UNL     1       2.371  -0.588  -4.484  1.00  0.00     0.025 C 
HETATM   17  C   UNL     1       3.689  -2.453  -3.469  1.00  0.00     0.032 C 
ENDBRANCH   7   9
ENDBRANCH   1   7
BRANCH   4  18
HETATM   18  C   UNL     1       3.758   0.431   4.869  1.00  0.00     0.129 C 
BRANCH  18  19
HETATM   19  C   UNL     1       2.530   1.229   5.330  1.00  0.00     0.059 C 
BRANCH  19  20
HETATM   20  C   UNL     1       2.800   2.045   6.571  1.00  0.00    -0.048 A 
HETATM   21  C   UNL     1       2.561   1.460   7.820  1.00  0.00     0.024 A 
HETATM   22  C   UNL     1       2.782   2.207   8.965  1.00  0.00     0.088 A 
HETATM   23  N   UNL     1       3.222   3.480   8.954  1.00  0.00    -0.375 N 
HETATM   24  C   UNL     1       3.452   4.028   7.740  1.00  0.00     0.094 A 
ATOM     25  HN  UNL     1       3.374   4.003   9.816  1.00  0.00     0.164 HD
HETATM   26  C   UNL     1       3.275   3.368   6.524  1.00  0.00    -0.040 A 
HETATM   27  C   UNL     1       3.528   4.109   5.243  1.00  0.00     0.050 C 
ENDBRANCH  19  20
ENDBRANCH  18  19
ENDBRANCH   4  18
TORSDOF 5
