REMARK  4 active torsions:
REMARK  status: ('A' for Active; 'I' for Inactive)
REMARK    1  A    between atoms: O_1  and  C_2 
REMARK    2  A    between atoms: C_7  and  N_8 
REMARK       I    between atoms: N_8  and  C_9 
REMARK    3  A    between atoms: C_9  and  C_11 
REMARK    4  A    between atoms: C_11  and  C_14 
ROOT
HETATM    1  N   UNL     1       4.444  -1.450  -0.121  1.00  0.00    -0.348 N 
HETATM    2  C   UNL     1       5.015  -1.671   1.127  1.00  0.00     0.297 C 
HETATM    3  O   UNL     1       4.330  -1.838   2.137  1.00  0.00    -0.266 OA
HETATM    4  H   UNL     1       5.075  -1.190  -0.874  1.00  0.00     0.163 HD
ENDROOT
BRANCH   2   5
HETATM    5  C   UNL     1       6.570  -1.715   1.130  1.00  0.00     0.364 C 
HETATM    6  F   UNL     1       7.002  -2.962   1.509  1.00  0.00    -0.188 F 
HETATM    7  F   UNL     1       7.045  -1.573  -0.156  1.00  0.00    -0.188 F 
BRANCH   5   8
HETATM    8  C   UNL     1       7.088  -0.622   2.059  1.00  0.00     0.091 A 
HETATM    9  C   UNL     1       7.269  -0.900   3.416  1.00  0.00     0.032 A 
HETATM   10  C   UNL     1       7.683   0.121   4.267  1.00  0.00     0.003 A 
HETATM   11  C   UNL     1       7.915   1.388   3.748  1.00  0.00     0.017 A 
HETATM   12  C   UNL     1       7.725   1.585   2.391  1.00  0.00     0.088 A 
HETATM   13  N   UNL     1       7.312   0.620   1.541  1.00  0.00    -0.364 N 
ATOM     14  HN  UNL     1       7.173   0.813   0.549  1.00  0.00     0.165 HD
ENDBRANCH   5   8
ENDBRANCH   2   5
BRANCH   1  15
HETATM   15  C   UNL     1       3.001  -1.319  -0.307  1.00  0.00     0.113 C 
HETATM   16  C   UNL     1       2.489   0.096   0.054  1.00  0.00     0.140 C 
HETATM   17  C   UNL     1       2.929   1.138  -0.978  1.00  0.00     0.034 C 
HETATM   18  C   UNL     1       2.527   0.744  -2.399  1.00  0.00     0.003 C 
HETATM   19  C   UNL     1       3.022  -0.651  -2.769  1.00  0.00     0.002 C 
HETATM   20  C   UNL     1       2.605  -1.702  -1.740  1.00  0.00     0.028 C 
BRANCH  16  21
HETATM   21  O   UNL     1       1.059   0.077   0.110  1.00  0.00    -0.394 OA
HETATM   22  H   UNL     1       0.769   0.949   0.428  1.00  0.00     0.210 HD
ENDBRANCH  16  21
ENDBRANCH   1  15
TORSDOF 4
