REMARK  4 active torsions:
REMARK  status: ('A' for Active; 'I' for Inactive)
REMARK    1  A    between atoms: C_2  and  N_4 
REMARK       I    between atoms: N_4  and  C_5 
REMARK    2  A    between atoms: C_5  and  C_7 
REMARK    3  A    between atoms: C_11  and  N_13 
REMARK       I    between atoms: N_13  and  C_14 
REMARK       I    between atoms: C_14  and  N_16 
REMARK    4  A    between atoms: N_16  and  C_17 
ROOT
HETATM    1  C   UNL     1       4.849  -1.328  -2.777  1.00  0.00     0.080 C 
HETATM    2  C   UNL     1       3.721  -1.903  -3.650  1.00  0.00     0.014 C 
HETATM    3  C   UNL     1       3.011  -3.084  -2.995  1.00  0.00     0.003 C 
HETATM    4  C   UNL     1       3.997  -4.169  -2.584  1.00  0.00     0.025 C 
HETATM    5  C   UNL     1       5.114  -3.607  -1.694  1.00  0.00     0.087 C 
HETATM    6  C   UNL     1       5.842  -2.458  -2.410  1.00  0.00     0.039 C 
ENDROOT
BRANCH   5   7
HETATM    7  N   UNL     1       6.004  -4.689  -1.282  1.00  0.00    -0.338 N 
HETATM    8  C   UNL     1       5.619  -5.459  -0.199  1.00  0.00     0.321 C 
HETATM    9  O   UNL     1       4.570  -5.262   0.401  1.00  0.00    -0.247 OA
HETATM   10  N   UNL     1       6.516  -6.467   0.070  1.00  0.00    -0.308 N 
HETATM   11  H   UNL     1       7.089  -6.761  -0.706  1.00  0.00     0.170 HD
HETATM   12  H   UNL     1       6.997  -4.578  -1.430  1.00  0.00     0.164 HD
BRANCH  10  13
HETATM   13  C   UNL     1       6.425  -7.333   1.187  1.00  0.00     0.051 A 
HETATM   14  C   UNL     1       5.701  -7.023   2.339  1.00  0.00     0.032 A 
HETATM   15  C   UNL     1       5.643  -7.928   3.396  1.00  0.00     0.019 A 
HETATM   16  C   UNL     1       6.327  -9.123   3.274  1.00  0.00     0.088 A 
HETATM   17  N   UNL     1       7.057  -9.460   2.189  1.00  0.00    -0.373 N 
HETATM   18  C   UNL     1       7.089  -8.557   1.175  1.00  0.00     0.117 A 
ATOM     19  HN  UNL     1       7.558 -10.347   2.134  1.00  0.00     0.164 HD
ENDBRANCH  10  13
ENDBRANCH   5   7
BRANCH   1  20
HETATM   20  C   UNL     1       4.388  -0.595  -1.501  1.00  0.00     0.222 C 
HETATM   21  N   UNL     1       3.208   0.107  -1.591  1.00  0.00    -0.357 N 
HETATM   22  H   UNL     1       2.798   0.274  -2.499  1.00  0.00     0.162 HD
HETATM   23  O   UNL     1       5.073  -0.589  -0.480  1.00  0.00    -0.273 OA
BRANCH  21  24
HETATM   24  C   UNL     1       2.675   0.871  -0.468  1.00  0.00     0.076 C 
HETATM   25  C   UNL     1       3.176   2.312  -0.520  1.00  0.00     0.032 C 
HETATM   26  C   UNL     1       1.150   0.827  -0.478  1.00  0.00     0.032 C 
ENDBRANCH  21  24
ENDBRANCH   1  20
TORSDOF 4
