REMARK  4 active torsions:
REMARK  status: ('A' for Active; 'I' for Inactive)
REMARK    1  A    between atoms: O_3  and  C_4 
REMARK    2  A    between atoms: C_4  and  C_5 
REMARK    3  A    between atoms: C_4  and  C_8 
REMARK    4  A    between atoms: C_5  and  O_7 
ROOT
HETATM    1  C   UNL     2       3.160   1.044  -0.970  1.00  0.00    -0.004 A 
HETATM    2  C   UNL     2       2.927   2.375  -0.585  1.00  0.00     0.013 A 
HETATM    3  C   UNL     2       3.022   3.410  -1.515  1.00  0.00     0.018 A 
HETATM    4  C   UNL     2       3.348   3.112  -2.836  1.00  0.00     0.087 A 
HETATM    5  N   UNL     2       3.571   1.825  -3.207  1.00  0.00    -0.375 N 
ATOM      6  HN  UNL     2       3.807   1.623  -4.179  1.00  0.00     0.164 HD
HETATM    7  C   UNL     2       3.489   0.797  -2.320  1.00  0.00     0.097 A 
ENDROOT
BRANCH   1   8
HETATM    8  C   UNL     2       3.060  -0.041   0.090  1.00  0.00     0.250 C 
BRANCH   8   9
HETATM    9  O   UNL     2       1.765  -0.032   0.633  1.00  0.00    -0.380 OA
HETATM   10  H   UNL     2       1.812  -0.503   1.506  1.00  0.00     0.211 HD
ENDBRANCH   8   9
BRANCH   8  11
HETATM   11  C   UNL     2       3.388  -1.438  -0.396  1.00  0.00     0.174 C 
HETATM   12  O   UNL     2       2.683  -1.981  -1.232  1.00  0.00    -0.648 OA
BRANCH  11  13
HETATM   13  O   UNL     2       4.447  -2.110   0.105  1.00  0.00    -0.774 OA
HETATM   14  H   UNL     2       5.032  -1.721   0.770  1.00  0.00     0.167 HD
ENDBRANCH  11  13
ENDBRANCH   8  11
ENDBRANCH   1   8
TORSDOF 4
