REMARK  4 active torsions:
REMARK  status: ('A' for Active; 'I' for Inactive)
REMARK    1  A    between atoms: C_2  and  C_3 
REMARK    2  A    between atoms: C_5  and  N_6 
REMARK       I    between atoms: N_6  and  C_7 
REMARK       I    between atoms: C_7  and  N_9 
REMARK    3  A    between atoms: N_9  and  C_10 
REMARK    4  A    between atoms: C_10  and  C_11 
ROOT
HETATM    1  N   UNL     1       2.717   4.886  -0.361  1.00  0.00    -0.293 N 
HETATM    2  C   UNL     1       1.558   5.347   0.321  1.00  0.00     0.321 C 
HETATM    3  O   UNL     1       0.735   4.593   0.814  1.00  0.00    -0.247 OA
HETATM    4  N   UNL     1       1.476   6.705   0.330  1.00  0.00    -0.341 N 
HETATM    5  H   UNL     1       3.302   5.561  -0.823  1.00  0.00     0.172 HD
HETATM    6  H   UNL     1       2.311   7.264   0.230  1.00  0.00     0.164 HD
ENDROOT
BRANCH   1   7
HETATM    7  C   UNL     1       3.018   3.529  -0.481  1.00  0.00     0.127 A 
HETATM    8  C   UNL     1       2.353   2.470   0.098  1.00  0.00     0.076 A 
HETATM    9  C   UNL     1       2.995   1.303  -0.362  1.00  0.00     0.029 A 
HETATM   10  N   UNL     1       4.030   1.596  -1.154  1.00  0.00    -0.301 N 
HETATM   11  N   UNL     1       4.038   2.944  -1.203  1.00  0.00    -0.281 N 
ATOM     12  HN  UNL     1       4.668   0.948  -1.616  1.00  0.00     0.187 HD
HETATM   13  C   UNL     1       5.067   3.583  -1.985  1.00  0.00     0.179 C 
BRANCH   9  14
HETATM   14  C   UNL     1       2.606  -0.104  -0.056  1.00  0.00     0.054 C 
HETATM   15  C   UNL     1       1.549  -0.625  -1.018  1.00  0.00     0.011 C 
ENDBRANCH   9  14
ENDBRANCH   1   7
BRANCH   4  16
HETATM   16  C   UNL     1       0.373   7.284   1.087  1.00  0.00     0.144 C 
BRANCH  16  17
HETATM   17  C   UNL     1       0.298   8.819   1.088  1.00  0.00     0.020 C 
HETATM   18  C   UNL     1      -0.875   9.257   1.976  1.00  0.00     0.028 C 
HETATM   19  C   UNL     1       0.186   9.429  -0.314  1.00  0.00     0.022 C 
HETATM   20  C   UNL     1       0.806  10.831  -0.343  1.00  0.00     0.012 C 
HETATM   21  C   UNL     1       1.614  11.113   0.915  1.00  0.00     0.075 C 
HETATM   22  S   UNL     1       1.872   9.511   1.696  1.00  0.00    -0.158 SA
ENDBRANCH  16  17
ENDBRANCH   4  16
TORSDOF 4
