REMARK  3 active torsions:
REMARK  status: ('A' for Active; 'I' for Inactive)
REMARK    1  A    between atoms: O_2  and  C_3 
REMARK    2  A    between atoms: C_9  and  N_10 
REMARK       I    between atoms: N_10  and  C_11 
REMARK       I    between atoms: C_11  and  N_13 
REMARK    3  A    between atoms: N_13  and  C_14 
ROOT
HETATM    1  N   UNL     1       2.917  -2.679   0.011  1.00  0.00    -0.305 N 
HETATM    2  C   UNL     1       2.764  -2.041  -1.206  1.00  0.00     0.321 C 
HETATM    3  O   UNL     1       2.907  -0.833  -1.376  1.00  0.00    -0.247 OA
HETATM    4  N   UNL     1       2.357  -2.867  -2.212  1.00  0.00    -0.330 N 
HETATM    5  H   UNL     1       3.432  -3.550  -0.008  1.00  0.00     0.171 HD
HETATM    6  H   UNL     1       2.425  -3.865  -2.060  1.00  0.00     0.165 HD
ENDROOT
BRANCH   1   7
HETATM    7  C   UNL     1       3.065  -1.903   1.192  1.00  0.00     0.087 A 
HETATM    8  C   UNL     1       4.016  -2.195   2.171  1.00  0.00     0.169 A 
HETATM    9  N   UNL     1       4.144  -1.507   3.335  1.00  0.00    -0.345 N 
HETATM   10  C   UNL     1       3.315  -0.457   3.517  1.00  0.00     0.090 A 
ATOM     11  HN  UNL     1       4.834  -1.771   4.038  1.00  0.00     0.167 HD
HETATM   12  C   UNL     1       2.362  -0.060   2.600  1.00  0.00     0.019 A 
HETATM   13  C   UNL     1       2.234  -0.800   1.425  1.00  0.00     0.035 A 
BRANCH   8  14
HETATM   14  O   UNL     1       4.939  -3.194   1.910  1.00  0.00    -0.339 OA
HETATM   15  C   UNL     1       6.190  -2.895   2.541  1.00  0.00     0.211 C 
ENDBRANCH   8  14
ENDBRANCH   1   7
BRANCH   4  16
HETATM   16  C   UNL     1       2.357  -2.417  -3.621  1.00  0.00     0.178 C 
HETATM   17  C   UNL     1       1.420  -1.238  -3.934  1.00  0.00     0.036 C 
HETATM   18  C   UNL     1      -0.052  -1.611  -3.916  1.00  0.00     0.022 C 
HETATM   19  C   UNL     1      -0.309  -2.809  -4.808  1.00  0.00     0.122 C 
HETATM   20  N   UNL     1       0.621  -3.880  -4.534  1.00  0.00    -0.359 N 
HETATM   21  C   UNL     1       1.974  -3.675  -4.403  1.00  0.00     0.240 C 
HETATM   22  H   UNL     1       0.335  -4.842  -4.653  1.00  0.00     0.162 HD
HETATM   23  O   UNL     1       2.767  -4.593  -4.608  1.00  0.00    -0.271 OA
ENDBRANCH   4  16
TORSDOF 3
