REMARK  5 active torsions:
REMARK  status: ('A' for Active; 'I' for Inactive)
REMARK    1  A    between atoms: C_2  and  C_5 
REMARK    2  A    between atoms: C_5  and  C_6 
REMARK       I    between atoms: C_6  and  N_8 
REMARK    3  A    between atoms: N_8  and  C_9 
REMARK    4  A    between atoms: C_9  and  C_10 
REMARK    5  A    between atoms: C_13  and  N_17 
ROOT
HETATM    1  C   UNL     1       7.276   3.314   2.744  1.00  0.00    -0.025 A 
HETATM    2  C   UNL     1       7.475   4.580   2.205  1.00  0.00     0.014 A 
HETATM    3  C   UNL     1       7.917   5.624   3.026  1.00  0.00     0.049 A 
HETATM    4  C   UNL     1       8.158   5.411   4.384  1.00  0.00     0.103 A 
HETATM    5  N   UNL     1       7.951   4.183   4.908  1.00  0.00    -0.352 N 
ATOM      6  HN  UNL     1       8.114   4.012   5.900  1.00  0.00     0.166 HD
HETATM    7  C   UNL     1       7.524   3.179   4.099  1.00  0.00     0.098 A 
ENDROOT
BRANCH   1   8
HETATM    8  C   UNL     1       6.813   2.160   1.909  1.00  0.00     0.162 C 
BRANCH   8   9
HETATM    9  N   UNL     1       5.375   2.072   1.823  1.00  0.00    -0.357 N 
HETATM   10  C   UNL     1       4.792   1.078   1.069  1.00  0.00     0.218 C 
HETATM   11  O   UNL     1       5.446   0.228   0.473  1.00  0.00    -0.274 OA
HETATM   12  H   UNL     1       4.801   2.758   2.297  1.00  0.00     0.162 HD
BRANCH  10  13
HETATM   13  C   UNL     1       3.275   1.114   1.010  1.00  0.00     0.111 C 
BRANCH  13  14
HETATM   14  C   UNL     1       2.692   1.937  -0.165  1.00  0.00    -0.043 C 
HETATM   15  C   UNL     1       3.164   1.384  -1.520  1.00  0.00     0.015 C 
HETATM   16  C   UNL     1       3.082   3.419  -0.056  1.00  0.00     0.015 C 
HETATM   17  C   UNL     1       1.154   1.831  -0.114  1.00  0.00     0.015 C 
ENDBRANCH  13  14
ENDBRANCH  10  13
ENDBRANCH   8   9
ENDBRANCH   1   8
BRANCH   4  18
HETATM   18  N   UNL     1       8.530   6.442   5.226  1.00  0.00    -0.363 N 
HETATM   19  C   UNL     1       9.402   7.543   4.796  1.00  0.00     0.150 C 
HETATM   20  C   UNL     1      10.790   7.436   5.451  1.00  0.00     0.187 C 
HETATM   21  O   UNL     1      10.703   7.327   6.880  1.00  0.00    -0.388 OA
HETATM   22  C   UNL     1       9.952   6.152   7.236  1.00  0.00     0.187 C 
HETATM   23  C   UNL     1       8.522   6.217   6.681  1.00  0.00     0.150 C 
ENDBRANCH   4  18
TORSDOF 5
