REMARK  3 active torsions:
REMARK  status: ('A' for Active; 'I' for Inactive)
REMARK       I    between atoms: C_2  and  N_3 
REMARK       I    between atoms: C_2  and  N_11 
REMARK    1  A    between atoms: N_3  and  C_4 
REMARK    2  A    between atoms: N_11  and  C_12 
REMARK    3  A    between atoms: C_16  and  C_20 
ROOT
HETATM    1  O   UNL     1       0.971  -0.258   0.029  1.00  0.00    -0.247 OA
HETATM    2  C   UNL     1       2.193  -0.185   0.057  1.00  0.00     0.321 C 
HETATM    3  N   UNL     1       2.953  -0.348  -1.078  1.00  0.00    -0.336 N 
HETATM    4  N   UNL     1       2.954   0.090   1.168  1.00  0.00    -0.306 N 
HETATM    5  H   UNL     1       3.864   0.084  -1.088  1.00  0.00     0.164 HD
HETATM    6  H   UNL     1       3.947  -0.082   1.094  1.00  0.00     0.171 HD
ENDROOT
BRANCH   4   7
HETATM    7  C   UNL     1       2.440   0.458   2.432  1.00  0.00     0.067 A 
HETATM    8  C   UNL     1       1.110   0.655   2.730  1.00  0.00     0.120 A 
HETATM    9  N   UNL     1       0.650   1.025   3.946  1.00  0.00    -0.353 N 
HETATM   10  C   UNL     1       1.552   1.204   4.928  1.00  0.00     0.085 A 
ATOM     11  HN  UNL     1      -0.347   1.164   4.113  1.00  0.00     0.166 HD
HETATM   12  N   UNL     1       2.880   1.048   4.738  1.00  0.00    -0.353 N 
HETATM   13  C   UNL     1       3.287   0.680   3.500  1.00  0.00     0.120 A 
ATOM     14  HN  UNL     1       3.547   1.201   5.494  1.00  0.00     0.166 HD
BRANCH  10  15
HETATM   15  C   UNL     1       1.038   1.605   6.287  1.00  0.00     0.053 A 
HETATM   16  C   UNL     1       1.297   0.738   7.497  1.00  0.00     0.013 A 
HETATM   17  C   UNL     1      -0.085   0.811   6.922  1.00  0.00     0.013 A 
ENDBRANCH  10  15
ENDBRANCH   4   7
BRANCH   3  18
HETATM   18  C   UNL     1       2.262  -0.510  -2.351  1.00  0.00     0.117 C 
HETATM   19  C   UNL     1       3.202  -0.732  -3.543  1.00  0.00     0.059 C 
HETATM   20  C   UNL     1       2.766   0.378  -4.503  1.00  0.00     0.124 C 
HETATM   21  C   UNL     1       3.222   1.745  -3.995  1.00  0.00     0.034 C 
HETATM   22  O   UNL     1       1.346   0.442  -4.250  1.00  0.00    -0.378 OA
HETATM   23  C   UNL     1       2.257   1.994  -2.835  1.00  0.00     0.036 C 
HETATM   24  C   UNL     1       1.435   0.705  -2.825  1.00  0.00     0.144 C 
ENDBRANCH   3  18
TORSDOF 3
