REMARK  6 active torsions:
REMARK  status: ('A' for Active; 'I' for Inactive)
REMARK    1  A    between atoms: C_2  and  C_3 
REMARK    2  A    between atoms: C_3  and  N_4 
REMARK    3  A    between atoms: N_7  and  C_8 
REMARK    4  A    between atoms: C_8  and  C_9 
REMARK    5  A    between atoms: C_9  and  O_10 
REMARK    6  A    between atoms: C_9  and  C_11 
ROOT
HETATM    1  N   UNL     1       4.491  -1.128  -1.007  1.00  0.00    -0.297 N 
HETATM    2  C   UNL     1       5.259   0.058  -1.053  1.00  0.00     0.330 A 
HETATM    3  O   UNL     1       4.850   1.207  -1.105  1.00  0.00    -0.246 OA
HETATM    4  N   UNL     1       6.612  -0.343  -1.002  1.00  0.00    -0.295 N 
HETATM    5  C   UNL     1       6.672  -1.743  -0.961  1.00  0.00     0.066 A 
HETATM    6  C   UNL     1       7.761  -2.588  -0.909  1.00  0.00     0.032 A 
HETATM    7  C   UNL     1       7.502  -3.963  -0.860  1.00  0.00     0.002 A 
HETATM    8  C   UNL     1       6.180  -4.453  -0.864  1.00  0.00     0.002 A 
HETATM    9  C   UNL     1       5.089  -3.580  -0.918  1.00  0.00     0.032 A 
HETATM   10  C   UNL     1       5.361  -2.229  -0.963  1.00  0.00     0.066 A 
ENDROOT
BRANCH   4  11
HETATM   11  C   UNL     1       7.734   0.565  -0.982  1.00  0.00     0.175 C 
BRANCH  11  12
HETATM   12  C   UNL     1       8.354   0.806  -2.363  1.00  0.00     0.244 C 
BRANCH  12  13
HETATM   13  O   UNL     1       7.372   1.324  -3.284  1.00  0.00    -0.385 OA
HETATM   14  H   UNL     1       6.957   2.111  -2.883  1.00  0.00     0.210 HD
ENDBRANCH  12  13
BRANCH  12  15
HETATM   15  C   UNL     1       9.586   1.720  -2.224  1.00  0.00     0.414 C 
HETATM   16  F   UNL     1       9.842   2.047  -0.936  1.00  0.00    -0.168 F 
HETATM   17  F   UNL     1      10.695   1.113  -2.707  1.00  0.00    -0.168 F 
HETATM   18  F   UNL     1       9.430   2.881  -2.900  1.00  0.00    -0.168 F 
ENDBRANCH  12  15
ENDBRANCH  11  12
ENDBRANCH   4  11
BRANCH   1  19
HETATM   19  C   UNL     1       3.052  -1.180  -0.954  1.00  0.00     0.134 C 
BRANCH  19  20
HETATM   20  C   UNL     1       2.494  -1.615   0.406  1.00  0.00     0.016 C 
HETATM   21  C   UNL     1       2.893  -0.696   1.549  1.00  0.00     0.006 C 
ENDBRANCH  19  20
ENDBRANCH   1  19
TORSDOF 6
