REMARK  8 active torsions:
REMARK  status: ('A' for Active; 'I' for Inactive)
REMARK    1  A    between atoms: O_1  and  C_2 
REMARK    2  A    between atoms: C_2  and  C_3 
REMARK    3  A    between atoms: C_3  and  C_4 
REMARK    4  A    between atoms: C_4  and  C_5 
REMARK    5  A    between atoms: N_14  and  C_15 
REMARK    6  A    between atoms: C_15  and  C_16 
REMARK    7  A    between atoms: C_16  and  O_17 
REMARK    8  A    between atoms: O_17  and  C_18 
ROOT
HETATM    1  C   UNL     1       4.840  -2.304  -1.918  1.00  0.00     0.084 A 
HETATM    2  N   UNL     1       5.483  -2.083  -3.045  1.00  0.00    -0.344 N 
ATOM      3  HN  UNL     1       5.811  -1.184  -3.399  1.00  0.00     0.167 HD
HETATM    4  C   UNL     1       5.622  -3.301  -3.644  1.00  0.00     0.060 A 
HETATM    5  C   UNL     1       6.223  -3.604  -4.878  1.00  0.00     0.032 A 
HETATM    6  C   UNL     1       6.246  -4.926  -5.325  1.00  0.00     0.002 A 
HETATM    7  C   UNL     1       5.678  -5.933  -4.554  1.00  0.00     0.002 A 
HETATM    8  C   UNL     1       5.077  -5.650  -3.321  1.00  0.00     0.032 A 
HETATM    9  C   UNL     1       5.057  -4.315  -2.870  1.00  0.00     0.062 A 
HETATM   10  N   UNL     1       4.578  -3.656  -1.745  1.00  0.00    -0.333 N 
ENDROOT
BRANCH  10  11
HETATM   11  C   UNL     1       3.925  -4.196  -0.557  1.00  0.00     0.157 C 
BRANCH  11  12
HETATM   12  C   UNL     1       3.839  -5.709  -0.497  1.00  0.00     0.196 C 
BRANCH  12  13
HETATM   13  O   UNL     1       3.269  -6.200   0.721  1.00  0.00    -0.350 OA
BRANCH  13  14
HETATM   14  C   UNL     1       3.145  -7.574   0.707  1.00  0.00     0.068 A 
HETATM   15  C   UNL     1       4.035  -8.438   0.056  1.00  0.00     0.037 A 
HETATM   16  C   UNL     1       3.813  -9.815   0.045  1.00  0.00     0.003 A 
HETATM   17  C   UNL     1       2.711 -10.342   0.709  1.00  0.00     0.000 A 
HETATM   18  C   UNL     1       1.839  -9.492   1.391  1.00  0.00     0.003 A 
HETATM   19  C   UNL     1       2.058  -8.111   1.395  1.00  0.00     0.037 A 
ENDBRANCH  13  14
ENDBRANCH  12  13
ENDBRANCH  11  12
ENDBRANCH  10  11
BRANCH   1  20
HETATM   20  C   UNL     1       4.404  -1.224  -0.979  1.00  0.00     0.079 C 
BRANCH  20  21
HETATM   21  C   UNL     1       3.440  -0.246  -1.657  1.00  0.00     0.033 C 
BRANCH  21  22
HETATM   22  C   UNL     1       2.153  -0.901  -2.145  1.00  0.00     0.164 C 
BRANCH  22  23
HETATM   23  O   UNL     1       1.482  -1.522  -1.056  1.00  0.00    -0.401 OA
HETATM   24  H   UNL     1       0.644  -1.872  -1.409  1.00  0.00     0.209 HD
ENDBRANCH  22  23
ENDBRANCH  21  22
ENDBRANCH  20  21
ENDBRANCH   1  20
TORSDOF 8
