REMARK  6 active torsions:
REMARK  status: ('A' for Active; 'I' for Inactive)
REMARK    1  A    between atoms: S_2  and  C_3 
REMARK    2  A    between atoms: C_7  and  N_9 
REMARK    3  A    between atoms: N_9  and  C_10 
REMARK    4  A    between atoms: C_10  and  C_11 
REMARK    5  A    between atoms: C_10  and  C_19 
REMARK    6  A    between atoms: C_11  and  C_12 
ROOT
HETATM    1  C   UNL     1       6.100  -1.972   2.580  1.00  0.00     0.331 C 
ENDROOT
BRANCH   1   2
HETATM    2  N   UNL     1       5.510  -3.006   1.666  1.00  0.00     0.102 N 
HETATM    3  H   UNL     1       6.256  -3.458   1.136  1.00  0.00     0.317 HD
BRANCH   2   4
HETATM    4  C   UNL     1       4.436  -2.547   0.784  1.00  0.00     0.222 C 
HETATM    5  C   UNL     1       3.807  -3.760   0.082  1.00  0.00     0.036 C 
HETATM    6  C   UNL     1       2.581  -3.327  -0.723  1.00  0.00     0.003 C 
HETATM    7  C   UNL     1       2.913  -2.229  -1.734  1.00  0.00     0.015 C 
HETATM    8  C   UNL     1       3.709  -1.051  -1.152  1.00  0.00     0.049 C 
HETATM    9  C   UNL     1       4.891  -1.546  -0.296  1.00  0.00     0.050 C 
BRANCH   8  10
HETATM   10  S   UNL     1       2.689   0.083  -0.115  1.00  0.00    -0.169 SA
HETATM   11  C   UNL     1       1.635   0.836  -1.373  1.00  0.00     0.090 C 
ENDBRANCH   8  10
ENDBRANCH   2   4
ENDBRANCH   1   2
BRANCH   1  12
HETATM   12  C   UNL     1       5.092  -1.176   3.459  1.00  0.00     0.083 C 
BRANCH  12  13
HETATM   13  C   UNL     1       4.414  -1.897   4.603  1.00  0.00    -0.053 A 
HETATM   14  C   UNL     1       4.127  -1.193   5.780  1.00  0.00     0.024 A 
HETATM   15  C   UNL     1       3.560  -1.871   6.849  1.00  0.00     0.088 A 
HETATM   16  N   UNL     1       3.245  -3.182   6.824  1.00  0.00    -0.375 N 
HETATM   17  C   UNL     1       3.499  -3.837   5.673  1.00  0.00     0.088 A 
ATOM     18  HN  UNL     1       2.837  -3.653   7.632  1.00  0.00     0.164 HD
HETATM   19  C   UNL     1       4.058  -3.245   4.550  1.00  0.00     0.024 A 
ENDBRANCH  12  13
ENDBRANCH   1  12
BRANCH   1  20
HETATM   20  C   UNL     1       7.300  -2.484   3.444  1.00  0.00     0.418 C 
HETATM   21  F   UNL     1       7.521  -3.808   3.255  1.00  0.00    -0.169 F 
HETATM   22  F   UNL     1       8.435  -1.846   3.068  1.00  0.00    -0.169 F 
HETATM   23  F   UNL     1       7.159  -2.278   4.768  1.00  0.00    -0.169 F 
ENDBRANCH   1  20
TORSDOF 6
