REMARK  5 active torsions:
REMARK  status: ('A' for Active; 'I' for Inactive)
REMARK    1  A    between atoms: N_4  and  C_5 
REMARK    2  A    between atoms: C_5  and  C_6 
REMARK    3  A    between atoms: C_6  and  O_7 
REMARK    4  A    between atoms: C_6  and  C_8 
REMARK    5  A    between atoms: C_8  and  N_9 
ROOT
HETATM    1  C   UNL     1       3.401   4.166  -4.036  1.00  0.00     0.163 C 
ENDROOT
BRANCH   1   2
HETATM    2  C   UNL     1       2.777   3.192  -3.035  1.00  0.00     0.164 C 
BRANCH   2   3
HETATM    3  C   UNL     1       3.215   1.732  -3.331  1.00  0.00     0.305 C 
BRANCH   3   4
HETATM    4  N   UNL     1       2.696   0.745  -2.358  1.00  0.00     0.096 N 
HETATM    5  C   UNL     1       3.241  -0.608  -2.632  1.00  0.00     0.303 C 
HETATM    6  C   UNL     1       2.681  -1.681  -1.673  1.00  0.00     0.146 C 
HETATM    7  C   UNL     1       3.198  -1.536  -0.243  1.00  0.00     0.041 C 
HETATM    8  O   UNL     1       1.244  -1.707  -1.714  1.00  0.00    -0.378 OA
HETATM    9  C   UNL     1       0.665  -0.421  -1.447  1.00  0.00     0.146 C 
HETATM   10  C   UNL     1       1.216   0.651  -2.411  1.00  0.00     0.303 C 
HETATM   11  C   UNL     1      -0.846  -0.548  -1.602  1.00  0.00     0.041 C 
ENDBRANCH   3   4
ENDBRANCH   2   3
BRANCH   2  12
HETATM   12  O   UNL     1       3.177   3.578  -1.714  1.00  0.00    -0.392 OA
HETATM   13  H   UNL     1       3.806   2.913  -1.380  1.00  0.00     0.210 HD
ENDBRANCH   2  12
ENDBRANCH   1   2
BRANCH   1  14
HETATM   14  N   UNL     1       2.894   5.518  -3.880  1.00  0.00    -0.339 N 
HETATM   15  C   UNL     1       3.432   6.459  -3.040  1.00  0.00     0.184 A 
HETATM   16  N   UNL     1       2.810   7.610  -3.141  1.00  0.00    -0.350 N 
HETATM   17  C   UNL     1       1.808   7.402  -4.051  1.00  0.00     0.063 A 
ATOM     18  HN  UNL     1       3.027   8.476  -2.647  1.00  0.00     0.166 HD
HETATM   19  C   UNL     1       0.839   8.299  -4.518  1.00  0.00     0.077 A 
HETATM   20  C   UNL     1       1.831   6.089  -4.533  1.00  0.00     0.065 A 
HETATM   21  C   UNL     1      -0.086   7.839  -5.452  1.00  0.00     0.157 A 
HETATM   22  F   UNL     1      -1.021   8.685  -5.910  1.00  0.00    -0.203 F 
HETATM   23  C   UNL     1      -0.053   6.527  -5.917  1.00  0.00     0.157 A 
HETATM   24  F   UNL     1      -0.963   6.116  -6.812  1.00  0.00    -0.203 F 
HETATM   25  C   UNL     1       0.904   5.611  -5.469  1.00  0.00     0.077 A 
ENDBRANCH   1  14
TORSDOF 5
