REMARK  7 active torsions:
REMARK  status: ('A' for Active; 'I' for Inactive)
REMARK    1  A    between atoms: C_2  and  C_4 
REMARK    2  A    between atoms: C_7  and  O_8 
REMARK    3  A    between atoms: O_8  and  C_9 
REMARK    4  A    between atoms: C_9  and  C_10 
REMARK    5  A    between atoms: C_10  and  O_11 
REMARK    6  A    between atoms: C_10  and  C_12 
REMARK    7  A    between atoms: C_12  and  N_13 
ROOT
HETATM    1  C   UNL     1       7.010   5.278   3.884  1.00  0.00     0.160 C 
ENDROOT
BRANCH   1   2
HETATM    2  C   UNL     1       6.522   3.871   3.490  1.00  0.00     0.209 C 
BRANCH   2   3
HETATM    3  O   UNL     1       6.347   3.121   4.699  1.00  0.00    -0.349 OA
BRANCH   3   4
HETATM    4  C   UNL     1       5.832   1.861   4.595  1.00  0.00     0.068 A 
HETATM    5  C   UNL     1       6.154   1.015   5.659  1.00  0.00     0.037 A 
HETATM    6  C   UNL     1       5.664  -0.293   5.712  1.00  0.00     0.018 A 
HETATM    7  C   UNL     1       4.822  -0.765   4.701  1.00  0.00     0.009 A 
HETATM    8  C   UNL     1       4.492   0.087   3.638  1.00  0.00     0.018 A 
HETATM    9  C   UNL     1       4.996   1.395   3.582  1.00  0.00     0.037 A 
BRANCH   7  10
HETATM   10  C   UNL     1       4.251  -2.145   4.725  1.00  0.00     0.155 C 
HETATM   11  C   UNL     1       4.583  -3.051   5.883  1.00  0.00     0.096 C 
HETATM   12  O   UNL     1       3.527  -2.523   3.807  1.00  0.00    -0.293 OA
ENDBRANCH   7  10
ENDBRANCH   3   4
ENDBRANCH   2   3
ENDBRANCH   1   2
BRANCH   1  13
HETATM   13  O   UNL     1       5.972   5.902   4.653  1.00  0.00    -0.392 OA
HETATM   14  H   UNL     1       5.700   5.263   5.340  1.00  0.00     0.210 HD
ENDBRANCH   1  13
BRANCH   1  15
HETATM   15  C   UNL     1       8.313   5.228   4.697  1.00  0.00     0.164 C 
BRANCH  15  16
HETATM   16  N   UNL     1       8.856   6.547   4.997  1.00  0.00    -0.332 N 
HETATM   17  C   UNL     1       8.670   7.277   6.156  1.00  0.00     0.080 A 
HETATM   18  C   UNL     1       7.800   6.889   7.296  1.00  0.00     0.089 C 
HETATM   19  N   UNL     1       9.390   8.380   6.135  1.00  0.00    -0.344 N 
HETATM   20  C   UNL     1      10.050   8.378   4.938  1.00  0.00     0.060 A 
ATOM     21  HN  UNL     1       9.444   9.091   6.864  1.00  0.00     0.167 HD
HETATM   22  C   UNL     1      10.944   9.324   4.420  1.00  0.00     0.032 A 
HETATM   23  C   UNL     1       9.733   7.246   4.193  1.00  0.00     0.062 A 
HETATM   24  C   UNL     1      11.502   9.105   3.156  1.00  0.00     0.002 A 
HETATM   25  C   UNL     1      11.172   7.965   2.424  1.00  0.00     0.002 A 
HETATM   26  C   UNL     1      10.280   7.008   2.925  1.00  0.00     0.032 A 
ENDBRANCH  15  16
ENDBRANCH   1  15
TORSDOF 7
