REMARK  6 active torsions:
REMARK  status: ('A' for Active; 'I' for Inactive)
REMARK    1  A    between atoms: C_2  and  C_3 
REMARK    2  A    between atoms: C_7  and  C_8 
REMARK    3  A    between atoms: C_8  and  C_9 
REMARK    4  A    between atoms: C_9  and  N_10 
REMARK       I    between atoms: N_10  and  C_11 
REMARK       I    between atoms: C_11  and  N_13 
REMARK    5  A    between atoms: C_16  and  C_17 
REMARK    6  A    between atoms: C_17  and  O_18 
ROOT
HETATM    1  N   UNL     1       2.753  -6.074   2.878  1.00  0.00    -0.343 N 
HETATM    2  C   UNL     1       2.170  -7.122   2.219  1.00  0.00     0.318 C 
HETATM    3  O   UNL     1       1.662  -6.983   1.110  1.00  0.00    -0.247 OA
HETATM    4  N   UNL     1       2.207  -8.331   2.891  1.00  0.00    -0.334 N 
HETATM    5  C   UNL     1       2.949  -8.598   4.128  1.00  0.00     0.128 C 
HETATM    6  C   UNL     1       3.951  -9.731   3.918  1.00  0.00     0.027 C 
HETATM    7  C   UNL     1       3.276 -10.997   3.365  1.00  0.00     0.012 C 
HETATM    8  C   UNL     1       2.513 -10.641   2.080  1.00  0.00     0.027 C 
HETATM    9  C   UNL     1       1.536  -9.484   2.294  1.00  0.00     0.128 C 
HETATM   10  H   UNL     1       2.640  -6.084   3.882  1.00  0.00     0.164 HD
ENDROOT
BRANCH   1  11
HETATM   11  C   UNL     1       2.763  -4.738   2.307  1.00  0.00     0.131 C 
BRANCH  11  12
HETATM   12  C   UNL     1       1.388  -4.066   2.287  1.00  0.00     0.084 C 
BRANCH  12  13
HETATM   13  C   UNL     1       0.761  -4.016   3.649  1.00  0.00     0.052 A 
HETATM   14  N   UNL     1       1.425  -3.860   4.778  1.00  0.00    -0.363 N 
HETATM   15  C   UNL     1       0.550  -3.942   5.845  1.00  0.00     0.103 A 
ATOM     16  HN  UNL     1       2.430  -3.703   4.852  1.00  0.00     0.165 HD
HETATM   17  C   UNL     1      -0.772  -4.164   5.522  1.00  0.00    -0.001 A 
HETATM   18  S   UNL     1      -0.937  -4.226   3.818  1.00  0.00    -0.080 SA
BRANCH  17  19
HETATM   19  C   UNL     1      -1.949  -4.355   6.421  1.00  0.00     0.043 C 
HETATM   20  C   UNL     1      -2.614  -3.037   6.784  1.00  0.00     0.010 C 
ENDBRANCH  17  19
ENDBRANCH  12  13
ENDBRANCH  11  12
ENDBRANCH   1  11
BRANCH   7  21
HETATM   21  C   UNL     1       2.358 -11.668   4.397  1.00  0.00     0.168 C 
BRANCH  21  22
HETATM   22  O   UNL     1       3.082 -11.993   5.576  1.00  0.00    -0.400 OA
HETATM   23  H   UNL     1       3.776 -12.628   5.328  1.00  0.00     0.209 HD
ENDBRANCH  21  22
ENDBRANCH   7  21
TORSDOF 6
