REMARK  7 active torsions:
REMARK  status: ('A' for Active; 'I' for Inactive)
REMARK    1  A    between atoms: C_2  and  C_3 
REMARK    2  A    between atoms: C_2  and  C_6 
REMARK    3  A    between atoms: C_3  and  C_4 
REMARK    4  A    between atoms: C_4  and  O_5 
REMARK    5  A    between atoms: C_6  and  N_7 
REMARK       I    between atoms: N_7  and  C_8 
REMARK    6  A    between atoms: C_8  and  C_10 
REMARK    7  A    between atoms: C_10  and  N_11 
ROOT
HETATM    1  N   UNL     1       4.528   1.182  -1.238  1.00  0.00    -0.359 N 
HETATM    2  C   UNL     1       5.107   1.779  -2.346  1.00  0.00     0.237 C 
HETATM    3  O   UNL     1       4.454   2.288  -3.254  1.00  0.00    -0.272 OA
HETATM    4  H   UNL     1       5.130   0.543  -0.722  1.00  0.00     0.162 HD
ENDROOT
BRANCH   2   5
HETATM    5  C   UNL     1       6.617   1.809  -2.345  1.00  0.00     0.251 C 
BRANCH   5   6
HETATM    6  N   UNL     1       7.162   0.469  -2.452  1.00  0.00    -0.286 N 
HETATM    7  N   UNL     1       7.345  -0.241  -1.315  1.00  0.00    -0.301 N 
HETATM    8  C   UNL     1       7.875  -1.397  -1.739  1.00  0.00     0.045 A 
ATOM      9  HN  UNL     1       7.130   0.038  -0.358  1.00  0.00     0.187 HD
HETATM   10  C   UNL     1       8.262  -2.447  -0.766  1.00  0.00     0.071 C 
HETATM   11  C   UNL     1       7.977  -1.435  -3.149  1.00  0.00     0.081 A 
HETATM   12 CL   UNL     1       8.554  -2.734  -4.076  1.00  0.00    -0.080 Cl
HETATM   13  C   UNL     1       7.515  -0.215  -3.589  1.00  0.00     0.049 A 
HETATM   14  C   UNL     1       7.377   0.342  -4.959  1.00  0.00     0.072 C 
ENDBRANCH   5   6
ENDBRANCH   2   5
BRANCH   1  15
HETATM   15  C   UNL     1       3.092   0.993  -1.181  1.00  0.00     0.127 C 
BRANCH  15  16
HETATM   16  C   UNL     1       2.555   0.816   0.248  1.00  0.00     0.001 C 
HETATM   17  C   UNL     1       1.022   0.812   0.222  1.00  0.00     0.011 C 
BRANCH  16  18
HETATM   18  C   UNL     1       3.105  -0.424   0.978  1.00  0.00     0.032 C 
BRANCH  18  19
HETATM   19  C   UNL     1       2.791  -1.764   0.320  1.00  0.00     0.164 C 
BRANCH  19  20
HETATM   20  O   UNL     1       3.369  -2.815   1.082  1.00  0.00    -0.401 OA
HETATM   21  H   UNL     1       4.335  -2.709   1.043  1.00  0.00     0.209 HD
ENDBRANCH  19  20
ENDBRANCH  18  19
ENDBRANCH  16  18
ENDBRANCH  15  16
ENDBRANCH   1  15
TORSDOF 7
