REMARK  6 active torsions:
REMARK  status: ('A' for Active; 'I' for Inactive)
REMARK    1  A    between atoms: C_2  and  N_3 
REMARK    2  A    between atoms: N_4  and  C_14 
REMARK    3  A    between atoms: C_11  and  C_14 
REMARK    4  A    between atoms: C_11  and  O_25 
REMARK    5  A    between atoms: C_15  and  C_27 
REMARK    6  A    between atoms: C_27  and  O_28 
ROOT
HETATM    1  C   UNL     1       0.438  -0.624  -0.137  1.00  0.00     0.117 A 
HETATM    2  C   UNL     1      -0.829  -1.267  -0.164  1.00  0.00     0.115 A 
HETATM    3  N   UNL     1       1.746   1.144  -0.217  1.00  0.00    -0.324 N 
HETATM    4  C   UNL     1       0.438   0.755  -0.300  1.00  0.00     0.140 A 
HETATM    5  N   UNL     1       1.745  -1.070  -0.013  1.00  0.00    -0.346 N 
ATOM      6  HN  UNL     1       2.061  -2.036   0.073  1.00  0.00     0.167 HD
HETATM    7  C   UNL     1       2.493   0.015  -0.030  1.00  0.00     0.185 A 
HETATM    8  N   UNL     1      -1.922  -0.449  -0.291  1.00  0.00    -0.341 N 
ATOM      9  HN  UNL     1      -2.861  -0.847  -0.265  1.00  0.00     0.167 HD
HETATM   10  N   UNL     1      -0.611   1.566  -0.493  1.00  0.00    -0.336 N 
ATOM     11  HN  UNL     1      -0.544   2.571  -0.651  1.00  0.00     0.168 HD
HETATM   12  C   UNL     1      -1.760   0.877  -0.450  1.00  0.00     0.183 A 
ENDROOT
BRANCH   2  13
HETATM   13  N   UNL     1      -1.066  -2.649  -0.128  1.00  0.00    -0.258 NA
HETATM   14  C   UNL     1      -0.074  -3.567  -0.716  1.00  0.00     0.065 C 
HETATM   15  C   UNL     1      -0.211  -3.312  -2.238  1.00  0.00     0.028 C 
HETATM   16  C   UNL     1      -0.753  -4.928  -0.420  1.00  0.00     0.022 C 
HETATM   17  C   UNL     1      -1.693  -2.874  -2.371  1.00  0.00     0.029 C 
HETATM   18  C   UNL     1      -2.228  -3.097  -0.931  1.00  0.00     0.071 C 
HETATM   19  C   UNL     1      -2.248  -4.597  -0.569  1.00  0.00     0.022 C 
BRANCH  17  20
HETATM   20  C   UNL     1      -2.454  -3.538  -3.504  1.00  0.00     0.170 C 
BRANCH  20  21
HETATM   21  O   UNL     1      -1.854  -3.184  -4.747  1.00  0.00    -0.400 OA
HETATM   22  H   UNL     1      -1.765  -2.214  -4.772  1.00  0.00     0.209 HD
ENDBRANCH  20  21
ENDBRANCH  17  20
ENDBRANCH   2  13
BRANCH   3  23
HETATM   23  C   UNL     1       2.193   2.522  -0.130  1.00  0.00     0.172 C 
BRANCH  23  24
HETATM   24  C   UNL     1       2.470   3.248  -1.462  1.00  0.00     0.102 C 
HETATM   25  C   UNL     1       3.692   2.722  -2.246  1.00  0.00     0.153 C 
HETATM   26  O   UNL     1       4.325   3.863  -2.874  1.00  0.00    -0.383 OA
HETATM   27  C   UNL     1       3.391   1.708  -3.335  1.00  0.00     0.042 C 
HETATM   28  C   UNL     1       3.615   5.043  -2.484  1.00  0.00     0.171 C 
HETATM   29  C   UNL     1       2.910   4.684  -1.195  1.00  0.00     0.068 C 
BRANCH  24  30
HETATM   30  O   UNL     1       1.300   3.350  -2.282  1.00  0.00    -0.385 OA
HETATM   31  H   UNL     1       0.709   2.591  -2.120  1.00  0.00     0.210 HD
ENDBRANCH  24  30
ENDBRANCH  23  24
ENDBRANCH   3  23
TORSDOF 6
