REMARK  5 active torsions:
REMARK  status: ('A' for Active; 'I' for Inactive)
REMARK    1  A    between atoms: C_8  and  C_9 
REMARK    2  A    between atoms: C_9  and  C_10 
REMARK       I    between atoms: C_10  and  N_12 
REMARK    3  A    between atoms: N_12  and  C_13 
REMARK    4  A    between atoms: C_13  and  C_14 
REMARK    5  A    between atoms: C_14  and  N_15 
ROOT
HETATM    1  C   UNL     1       2.011   4.403   1.669  1.00  0.00     0.222 C 
HETATM    2  O   UNL     1       1.287   4.534   2.651  1.00  0.00    -0.273 OA
HETATM    3  N   UNL     1       1.551   4.529   0.375  1.00  0.00    -0.359 N 
HETATM    4  H   UNL     1       2.168   4.290  -0.393  1.00  0.00     0.162 HD
ENDROOT
BRANCH   1   5
HETATM    5  C   UNL     1       3.492   4.098   1.799  1.00  0.00     0.146 C 
BRANCH   5   6
HETATM    6  C   UNL     1       3.846   2.648   1.861  1.00  0.00     0.006 A 
HETATM    7  C   UNL     1       3.110   1.510   2.314  1.00  0.00     0.038 A 
HETATM    8  C   UNL     1       1.730   1.414   2.851  1.00  0.00     0.071 C 
HETATM    9  N   UNL     1       3.837   0.390   2.218  1.00  0.00    -0.265 N 
HETATM   10  O   UNL     1       5.066   0.770   1.734  1.00  0.00    -0.242 OA
ATOM     11  HN  UNL     1       3.539  -0.556   2.456  1.00  0.00     0.194 HD
HETATM   12  C   UNL     1       5.076   2.108   1.526  1.00  0.00     0.081 A 
HETATM   13  C   UNL     1       6.345   2.675   1.030  1.00  0.00     0.079 C 
ENDBRANCH   5   6
ENDBRANCH   1   5
BRANCH   3  14
HETATM   14  C   UNL     1       0.138   4.730   0.082  1.00  0.00     0.152 C 
BRANCH  14  15
HETATM   15  C   UNL     1      -0.283   6.217  -0.005  1.00  0.00     0.292 C 
BRANCH  15  16
HETATM   16  N   UNL     1      -1.749   6.440  -0.125  1.00  0.00     0.090 N 
HETATM   17  C   UNL     1      -2.314   5.829  -1.336  1.00  0.00     0.272 C 
HETATM   18  C   UNL     1      -3.828   5.635  -1.236  1.00  0.00     0.030 C 
HETATM   19  C   UNL     1      -4.658   6.798  -1.764  1.00  0.00     0.002 C 
HETATM   20  C   UNL     1      -4.141   8.189  -1.423  1.00  0.00     0.002 C 
HETATM   21  C   UNL     1      -3.516   8.300  -0.037  1.00  0.00     0.030 C 
HETATM   22  C   UNL     1      -2.038   7.881   0.002  1.00  0.00     0.272 C 
ENDBRANCH  15  16
ENDBRANCH  14  15
ENDBRANCH   3  14
TORSDOF 5
