REMARK  5 active torsions:
REMARK  status: ('A' for Active; 'I' for Inactive)
REMARK       I    between atoms: C_2  and  N_3 
REMARK       I    between atoms: C_2  and  N_13 
REMARK    1  A    between atoms: N_3  and  C_4 
REMARK    2  A    between atoms: C_4  and  C_5 
REMARK    3  A    between atoms: C_5  and  C_6 
REMARK    4  A    between atoms: N_13  and  C_14 
REMARK    5  A    between atoms: C_14  and  C_15 
ROOT
HETATM    1  O   UNL     1       2.397  -2.656  -1.130  1.00  0.00    -0.247 OA
HETATM    2  C   UNL     1       2.109  -1.511  -0.813  1.00  0.00     0.316 C 
HETATM    3  N   UNL     1       0.832  -1.070  -0.575  1.00  0.00    -0.343 N 
HETATM    4  N   UNL     1       3.014  -0.499  -0.661  1.00  0.00    -0.341 N 
HETATM    5  H   UNL     1       0.778  -0.317   0.093  1.00  0.00     0.164 HD
HETATM    6  H   UNL     1       2.658   0.446  -0.698  1.00  0.00     0.164 HD
ENDROOT
BRANCH   3   7
HETATM    7  C   UNL     1      -0.264  -2.023  -0.588  1.00  0.00     0.129 C 
BRANCH   7   8
HETATM    8  C   UNL     1      -1.605  -1.345  -0.312  1.00  0.00     0.060 C 
BRANCH   8   9
HETATM    9  C   UNL     1      -2.748  -2.319  -0.353  1.00  0.00    -0.041 A 
HETATM   10  C   UNL     1      -3.152  -3.020   0.785  1.00  0.00     0.010 A 
HETATM   11  C   UNL     1      -4.194  -3.938   0.695  1.00  0.00     0.018 A 
HETATM   12  C   UNL     1      -4.799  -4.126  -0.536  1.00  0.00     0.087 A 
HETATM   13  N   UNL     1      -4.437  -3.468  -1.658  1.00  0.00    -0.375 N 
HETATM   14  C   UNL     1      -3.421  -2.585  -1.542  1.00  0.00     0.094 A 
ATOM     15  HN  UNL     1      -4.907  -3.629  -2.549  1.00  0.00     0.164 HD
ENDBRANCH   8   9
ENDBRANCH   7   8
ENDBRANCH   3   7
BRANCH   4  16
HETATM   16  C   UNL     1       4.437  -0.675  -0.903  1.00  0.00     0.158 C 
BRANCH  16  17
HETATM   17  C   UNL     1       4.835  -1.084  -2.343  1.00  0.00     0.167 C 
HETATM   18  C   UNL     1       4.287  -0.118  -3.423  1.00  0.00     0.306 C 
HETATM   19  N   UNL     1       4.951   1.177  -3.268  1.00  0.00     0.097 N 
HETATM   20  C   UNL     1       4.549   2.229  -4.186  1.00  0.00     0.273 C 
HETATM   21  C   UNL     1       6.394   0.990  -3.491  1.00  0.00     0.246 C 
HETATM   22  C   UNL     1       5.722   3.209  -4.092  1.00  0.00     0.032 C 
HETATM   23  C   UNL     1       6.872   2.427  -3.443  1.00  0.00     0.040 C 
HETATM   24  C   UNL     1       6.976   0.039  -2.444  1.00  0.00     0.204 C 
HETATM   25  O   UNL     1       6.279  -1.224  -2.458  1.00  0.00    -0.380 OA
ENDBRANCH  16  17
ENDBRANCH   4  16
TORSDOF 5
