REMARK  5 active torsions:
REMARK  status: ('A' for Active; 'I' for Inactive)
REMARK    1  A    between atoms: O_2  and  C_3 
REMARK    2  A    between atoms: C_6  and  N_7 
REMARK       I    between atoms: N_7  and  C_8 
REMARK       I    between atoms: C_8  and  N_10 
REMARK    3  A    between atoms: N_10  and  C_11 
REMARK    4  A    between atoms: C_11  and  C_12 
REMARK    5  A    between atoms: C_12  and  C_13 
REMARK       I    between atoms: C_13  and  N_15 
ROOT
HETATM    1  N   UNL     1       6.596  -4.993   1.639  1.00  0.00    -0.308 N 
HETATM    2  C   UNL     1       6.220  -6.309   1.470  1.00  0.00     0.320 C 
HETATM    3  O   UNL     1       6.496  -7.017   0.511  1.00  0.00    -0.247 OA
HETATM    4  N   UNL     1       5.462  -6.782   2.512  1.00  0.00    -0.342 N 
HETATM    5  H   UNL     1       6.529  -4.617   2.571  1.00  0.00     0.170 HD
HETATM    6  H   UNL     1       5.447  -6.293   3.396  1.00  0.00     0.164 HD
ENDROOT
BRANCH   1   7
HETATM    7  C   UNL     1       7.239  -4.204   0.654  1.00  0.00     0.051 A 
HETATM    8  C   UNL     1       7.252  -4.540  -0.697  1.00  0.00     0.035 A 
HETATM    9  C   UNL     1       7.895  -3.716  -1.616  1.00  0.00     0.058 A 
HETATM   10  C   UNL     1       8.507  -2.565  -1.156  1.00  0.00     0.141 A 
HETATM   11  N   UNL     1       8.513  -2.188   0.141  1.00  0.00    -0.345 N 
HETATM   12  C   UNL     1       7.873  -3.014   1.011  1.00  0.00     0.119 A 
ATOM     13  HN  UNL     1       8.972  -1.331   0.451  1.00  0.00     0.167 HD
BRANCH  10  14
HETATM   14  O   UNL     1       9.104  -1.782  -2.124  1.00  0.00    -0.341 OA
HETATM   15  C   UNL     1       9.762  -0.635  -1.605  1.00  0.00     0.211 C 
ENDBRANCH  10  14
ENDBRANCH   1   7
BRANCH   4  16
HETATM   16  C   UNL     1       5.013  -8.165   2.528  1.00  0.00     0.133 C 
BRANCH  16  17
HETATM   17  C   UNL     1       6.091  -9.148   2.983  1.00  0.00     0.122 C 
BRANCH  17  18
HETATM   18  C   UNL     1       6.433  -8.984   4.452  1.00  0.00     0.221 C 
HETATM   19  O   UNL     1       5.914  -8.098   5.133  1.00  0.00    -0.273 OA
HETATM   20  N   UNL     1       7.345  -9.877   4.990  1.00  0.00    -0.348 N 
HETATM   21  C   UNL     1       8.033 -10.960   4.276  1.00  0.00     0.152 C 
HETATM   22  C   UNL     1       7.722  -9.779   6.402  1.00  0.00     0.152 C 
HETATM   23  C   UNL     1       7.857 -12.281   5.036  1.00  0.00     0.187 C 
HETATM   24  O   UNL     1       8.306 -12.160   6.395  1.00  0.00    -0.388 OA
HETATM   25  C   UNL     1       7.568 -11.140   7.090  1.00  0.00     0.187 C 
ENDBRANCH  17  18
ENDBRANCH  16  17
ENDBRANCH   4  16
TORSDOF 5
