REMARK  3 active torsions:
REMARK  status: ('A' for Active; 'I' for Inactive)
REMARK    1  A    between atoms: C_2  and  N_4 
REMARK       I    between atoms: N_4  and  C_5 
REMARK    2  A    between atoms: C_5  and  C_7 
REMARK    3  A    between atoms: C_10  and  N_15 
ROOT
HETATM    1  C   UNL     1       4.874  -2.325   2.177  1.00  0.00     0.116 A 
HETATM    2  C   UNL     1       5.382  -1.877   3.378  1.00  0.00     0.040 A 
HETATM    3  C   UNL     1       5.662  -2.815   4.371  1.00  0.00     0.052 A 
HETATM    4  C   UNL     1       5.440  -4.174   4.159  1.00  0.00     0.118 A 
HETATM    5  N   UNL     1       4.934  -4.550   2.959  1.00  0.00    -0.285 N 
ATOM      6  HN  UNL     1       4.756  -5.540   2.789  1.00  0.00     0.188 HD
HETATM    7  N   UNL     1       4.650  -3.636   1.954  1.00  0.00    -0.294 N 
ATOM      8  HN  UNL     1       4.277  -3.952   1.059  1.00  0.00     0.187 HD
ENDROOT
BRANCH   4   9
HETATM    9  N   UNL     1       5.687  -5.115   5.135  1.00  0.00    -0.361 N 
HETATM   10  C   UNL     1       6.653  -4.938   6.223  1.00  0.00     0.151 C 
HETATM   11  C   UNL     1       7.760  -6.000   6.143  1.00  0.00     0.188 C 
HETATM   12  O   UNL     1       7.244  -7.332   6.044  1.00  0.00    -0.378 OA
HETATM   13  C   UNL     1       6.344  -7.513   4.926  1.00  0.00     0.070 C 
HETATM   14  C   UNL     1       7.104  -7.436   3.595  1.00  0.00     0.047 C 
HETATM   15  C   UNL     1       5.777  -8.932   5.082  1.00  0.00     0.047 C 
HETATM   16  C   UNL     1       5.180  -6.488   4.986  1.00  0.00     0.161 C 
ENDBRANCH   4   9
BRANCH   1  17
HETATM   17  C   UNL     1       4.512  -1.360   1.102  1.00  0.00     0.269 C 
HETATM   18  N   UNL     1       3.972  -1.906  -0.046  1.00  0.00    -0.352 N 
HETATM   19  H   UNL     1       3.960  -2.919  -0.123  1.00  0.00     0.163 HD
HETATM   20  O   UNL     1       4.682  -0.155   1.264  1.00  0.00    -0.266 OA
BRANCH  18  21
HETATM   21  C   UNL     1       3.541  -1.085  -1.167  1.00  0.00     0.076 C 
HETATM   22  C   UNL     1       4.701  -0.797  -2.115  1.00  0.00     0.032 C 
HETATM   23  C   UNL     1       2.390  -1.763  -1.901  1.00  0.00     0.032 C 
ENDBRANCH  18  21
ENDBRANCH   1  17
TORSDOF 3
