REMARK  3 active torsions:
REMARK  status: ('A' for Active; 'I' for Inactive)
REMARK    1  A    between atoms: N_6  and  C_7 
REMARK    2  A    between atoms: C_7  and  C_8 
REMARK       I    between atoms: C_8  and  N_10 
REMARK    3  A    between atoms: N_10  and  C_11 
ROOT
HETATM    1  C   UNL     1       7.404  -1.409  -0.198  1.00  0.00     0.237 C 
HETATM    2  O   UNL     1       6.737  -2.438  -0.094  1.00  0.00    -0.272 OA
HETATM    3  N   UNL     1       8.784  -1.407  -0.121  1.00  0.00    -0.355 N 
HETATM    4  H   UNL     1       9.257  -0.511  -0.197  1.00  0.00     0.162 HD
ENDROOT
BRANCH   1   5
HETATM    5  C   UNL     1       6.746  -0.032  -0.210  1.00  0.00     0.255 C 
BRANCH   5   6
HETATM    6  N   UNL     1       7.539   0.989  -0.895  1.00  0.00    -0.248 N 
HETATM    7  N   UNL     1       8.394   1.735  -0.115  1.00  0.00    -0.305 N 
HETATM    8  C   UNL     1       9.012   2.711  -0.696  1.00  0.00     0.133 A 
ATOM      9  HN  UNL     1       8.533   1.528   0.874  1.00  0.00     0.186 HD
HETATM   10  C   UNL     1       8.898   3.075  -2.113  1.00  0.00     0.078 A 
HETATM   11 CL   UNL     1       9.823   4.416  -2.651  1.00  0.00    -0.081 Cl
HETATM   12  C   UNL     1       8.094   2.328  -2.869  1.00  0.00     0.126 A 
HETATM   13  C   UNL     1       7.340   1.193  -2.260  1.00  0.00     0.285 A 
HETATM   14 CL   UNL     1       7.855   2.615  -4.556  1.00  0.00    -0.076 Cl
HETATM   15  O   UNL     1       6.586   0.498  -2.937  1.00  0.00    -0.265 OA
ENDBRANCH   5   6
ENDBRANCH   1   5
BRANCH   3  16
HETATM   16  C   UNL     1       9.550  -2.649  -0.012  1.00  0.00     0.084 C 
HETATM   17  C   UNL     1      10.856  -2.378   0.744  1.00  0.00     0.025 C 
HETATM   18  C   UNL     1      11.678  -3.595   1.181  1.00  0.00     0.002 C 
HETATM   19  C   UNL     1      10.870  -4.766   1.742  1.00  0.00     0.000 C 
HETATM   20  C   UNL     1      10.661  -5.926   0.765  1.00  0.00     0.000 C 
HETATM   21  C   UNL     1       9.765  -5.669  -0.450  1.00  0.00     0.000 C 
HETATM   22  C   UNL     1      10.333  -4.678  -1.467  1.00  0.00     0.002 C 
HETATM   23  C   UNL     1       9.740  -3.268  -1.404  1.00  0.00     0.025 C 
ENDBRANCH   3  16
TORSDOF 3
