REMARK  6 active torsions:
REMARK  status: ('A' for Active; 'I' for Inactive)
REMARK    1  A    between atoms: C_2  and  N_3 
REMARK    2  A    between atoms: C_2  and  C_7 
REMARK       I    between atoms: N_3  and  C_4 
REMARK    3  A    between atoms: N_16  and  C_17 
REMARK    4  A    between atoms: C_17  and  C_18 
REMARK    5  A    between atoms: C_18  and  O_19 
REMARK    6  A    between atoms: C_18  and  C_20 
ROOT
HETATM    1  C   UNL     1       2.863  -1.005  -1.056  1.00  0.00     0.107 C 
HETATM    2  N   UNL     1       3.510  -0.617  -2.140  1.00  0.00    -0.342 N 
ATOM      3  HN  UNL     1       3.842   0.324  -2.350  1.00  0.00     0.167 HD
HETATM    4  C   UNL     1       3.647  -1.730  -2.925  1.00  0.00     0.060 A 
HETATM    5  C   UNL     1       4.204  -1.848  -4.207  1.00  0.00     0.032 A 
HETATM    6  C   UNL     1       4.192  -3.098  -4.836  1.00  0.00     0.002 A 
HETATM    7  C   UNL     1       3.636  -4.208  -4.199  1.00  0.00     0.002 A 
HETATM    8  C   UNL     1       3.082  -4.108  -2.916  1.00  0.00     0.032 A 
HETATM    9  C   UNL     1       3.109  -2.852  -2.297  1.00  0.00     0.062 A 
HETATM   10  N   UNL     1       2.689  -2.381  -1.070  1.00  0.00    -0.330 N 
ENDROOT
BRANCH  10  11
HETATM   11  C   UNL     1       2.087  -3.192  -0.024  1.00  0.00     0.167 C 
BRANCH  11  12
HETATM   12  C   UNL     1       3.013  -4.242   0.611  1.00  0.00     0.169 C 
BRANCH  12  13
HETATM   13  O   UNL     1       4.155  -3.584   1.172  1.00  0.00    -0.389 OA
HETATM   14  H   UNL     1       3.937  -3.347   2.089  1.00  0.00     0.210 HD
ENDBRANCH  12  13
BRANCH  12  15
HETATM   15  C   UNL     1       2.345  -5.060   1.712  1.00  0.00    -0.028 A 
HETATM   16  C   UNL     1       2.752  -6.390   1.916  1.00  0.00     0.010 A 
HETATM   17  C   UNL     1       2.187  -7.169   2.928  1.00  0.00     0.001 A 
HETATM   18  C   UNL     1       1.208  -6.631   3.762  1.00  0.00     0.000 A 
HETATM   19  C   UNL     1       0.805  -5.311   3.588  1.00  0.00     0.001 A 
HETATM   20  C   UNL     1       1.374  -4.529   2.578  1.00  0.00     0.010 A 
ENDBRANCH  12  15
ENDBRANCH  11  12
ENDBRANCH  10  11
BRANCH   1  21
HETATM   21  C   UNL     1       2.360  -0.048   0.002  1.00  0.00     0.148 C 
HETATM   22  C   UNL     1       0.829  -0.080   0.104  1.00  0.00     0.040 C 
BRANCH  21  23
HETATM   23  N   UNL     1       3.058  -0.310   1.254  1.00  0.00    -0.350 N 
HETATM   24  C   UNL     1       2.870   0.509   2.349  1.00  0.00     0.214 C 
HETATM   25  O   UNL     1       2.053   1.422   2.396  1.00  0.00    -0.274 OA
HETATM   26  C   UNL     1       3.730   0.167   3.536  1.00  0.00     0.117 C 
HETATM   27  H   UNL     1       3.989  -0.699   1.150  1.00  0.00     0.163 HD
ENDBRANCH  21  23
ENDBRANCH   1  21
TORSDOF 6
