REMARK  7 active torsions:
REMARK  status: ('A' for Active; 'I' for Inactive)
REMARK    1  A    between atoms: C_2  and  C_4 
REMARK    2  A    between atoms: C_4  and  O_5 
REMARK    3  A    between atoms: O_5  and  C_6 
REMARK    4  A    between atoms: C_6  and  C_8 
REMARK       I    between atoms: C_8  and  N_10 
REMARK    5  A    between atoms: N_10  and  C_11 
REMARK    6  A    between atoms: C_11  and  C_12 
REMARK    7  A    between atoms: C_15  and  N_19 
ROOT
HETATM    1  C   UNL     1       9.050  -3.802  -3.915  1.00  0.00    -0.025 A 
HETATM    2  C   UNL     1       9.185  -5.162  -3.655  1.00  0.00     0.014 A 
HETATM    3  C   UNL     1       9.726  -6.000  -4.632  1.00  0.00     0.049 A 
HETATM    4  C   UNL     1      10.143  -5.477  -5.856  1.00  0.00     0.103 A 
HETATM    5  N   UNL     1       9.970  -4.166  -6.129  1.00  0.00    -0.352 N 
ATOM      6  HN  UNL     1      10.246  -3.782  -7.033  1.00  0.00     0.166 HD
HETATM    7  C   UNL     1       9.422  -3.370  -5.178  1.00  0.00     0.098 A 
ENDROOT
BRANCH   1   8
HETATM    8  C   UNL     1       8.575  -2.840  -2.872  1.00  0.00     0.162 C 
BRANCH   8   9
HETATM    9  N   UNL     1       7.141  -2.742  -2.810  1.00  0.00    -0.355 N 
HETATM   10  C   UNL     1       6.529  -1.953  -1.864  1.00  0.00     0.246 C 
HETATM   11  O   UNL     1       7.158  -1.245  -1.078  1.00  0.00    -0.271 OA
HETATM   12  H   UNL     1       6.540  -3.330  -3.381  1.00  0.00     0.162 HD
BRANCH  10  13
HETATM   13  C   UNL     1       4.989  -2.026  -1.867  1.00  0.00     0.209 C 
HETATM   14  C   UNL     1       4.518  -2.394  -0.462  1.00  0.00     0.049 C 
BRANCH  13  15
HETATM   15  O   UNL     1       4.524  -2.974  -2.839  1.00  0.00    -0.377 OA
BRANCH  15  16
HETATM   16  C   UNL     1       3.108  -2.932  -3.032  1.00  0.00     0.172 C 
BRANCH  16  17
HETATM   17  C   UNL     1       2.707  -3.892  -4.158  1.00  0.00     0.001 C 
HETATM   18  C   UNL     1       1.184  -3.951  -4.276  1.00  0.00     0.011 C 
HETATM   19  C   UNL     1       3.332  -3.489  -5.493  1.00  0.00     0.011 C 
ENDBRANCH  16  17
ENDBRANCH  15  16
ENDBRANCH  13  15
ENDBRANCH  10  13
ENDBRANCH   8   9
ENDBRANCH   1   8
BRANCH   4  20
HETATM   20  N   UNL     1      10.792  -6.263  -6.778  1.00  0.00    -0.363 N 
HETATM   21  C   UNL     1      11.767  -5.664  -7.695  1.00  0.00     0.150 C 
HETATM   22  C   UNL     1      11.377  -5.921  -9.155  1.00  0.00     0.187 C 
HETATM   23  O   UNL     1      11.135  -7.318  -9.401  1.00  0.00    -0.388 OA
HETATM   24  C   UNL     1      10.059  -7.780  -8.568  1.00  0.00     0.187 C 
HETATM   25  C   UNL     1      10.395  -7.638  -7.073  1.00  0.00     0.150 C 
ENDBRANCH   4  20
TORSDOF 7
