REMARK  5 active torsions:
REMARK  status: ('A' for Active; 'I' for Inactive)
REMARK    1  A    between atoms: N_4  and  C_5 
REMARK    2  A    between atoms: C_5  and  C_6 
REMARK    3  A    between atoms: C_6  and  O_7 
REMARK    4  A    between atoms: C_6  and  C_8 
REMARK    5  A    between atoms: C_8  and  N_9 
ROOT
HETATM    1  N   UNL     1       4.602   4.274  -4.358  1.00  0.00    -0.254 N 
HETATM    2  N   UNL     1       5.328   4.729  -3.291  1.00  0.00    -0.300 N 
ATOM      3  HN  UNL     1       4.879   4.902  -2.391  1.00  0.00     0.187 HD
HETATM    4  C   UNL     1       6.597   4.936  -3.447  1.00  0.00     0.029 A 
HETATM    5  C   UNL     1       7.351   5.398  -2.220  1.00  0.00     0.070 C 
HETATM    6  C   UNL     1       7.329   4.749  -4.728  1.00  0.00    -0.012 A 
HETATM    7  C   UNL     1       8.785   5.095  -4.843  1.00  0.00     0.052 C 
HETATM    8  C   UNL     1       6.599   4.266  -5.751  1.00  0.00     0.121 A 
HETATM    9  C   UNL     1       7.161   4.066  -7.043  1.00  0.00     0.105 C 
HETATM   10  N   UNL     1       7.687   3.936  -8.069  1.00  0.00    -0.191 NA
HETATM   11  C   UNL     1       5.156   3.955  -5.589  1.00  0.00     0.283 A 
HETATM   12  O   UNL     1       4.515   3.453  -6.510  1.00  0.00    -0.265 OA
ENDROOT
BRANCH   1  13
HETATM   13  C   UNL     1       3.158   4.146  -4.150  1.00  0.00     0.186 C 
BRANCH  13  14
HETATM   14  C   UNL     1       2.777   3.163  -3.034  1.00  0.00     0.166 C 
BRANCH  14  15
HETATM   15  C   UNL     1       3.280   1.721  -3.300  1.00  0.00     0.305 C 
BRANCH  15  16
HETATM   16  N   UNL     1       2.951   0.769  -2.218  1.00  0.00     0.096 N 
HETATM   17  C   UNL     1       3.474  -0.581  -2.509  1.00  0.00     0.303 C 
HETATM   18  C   UNL     1       3.116  -1.596  -1.397  1.00  0.00     0.146 C 
HETATM   19  C   UNL     1       3.883  -1.353  -0.097  1.00  0.00     0.041 C 
HETATM   20  O   UNL     1       1.694  -1.636  -1.168  1.00  0.00    -0.378 OA
HETATM   21  C   UNL     1       1.155  -0.338  -0.876  1.00  0.00     0.146 C 
HETATM   22  C   UNL     1       1.496   0.671  -1.987  1.00  0.00     0.303 C 
HETATM   23  C   UNL     1      -0.357  -0.470  -0.739  1.00  0.00     0.041 C 
ENDBRANCH  15  16
ENDBRANCH  14  15
BRANCH  14  24
HETATM   24  O   UNL     1       3.256   3.642  -1.770  1.00  0.00    -0.392 OA
HETATM   25  H   UNL     1       4.212   3.802  -1.901  1.00  0.00     0.210 HD
ENDBRANCH  14  24
ENDBRANCH  13  14
ENDBRANCH   1  13
TORSDOF 5
