REMARK  5 active torsions:
REMARK  status: ('A' for Active; 'I' for Inactive)
REMARK    1  A    between atoms: C_2  and  C_5 
REMARK    2  A    between atoms: C_5  and  C_6 
REMARK       I    between atoms: C_6  and  N_8 
REMARK    3  A    between atoms: N_8  and  C_9 
REMARK    4  A    between atoms: C_9  and  C_10 
REMARK    5  A    between atoms: C_15  and  N_17 
ROOT
HETATM    1  C   UNL     1       7.109  -2.650   3.282  1.00  0.00    -0.036 A 
HETATM    2  C   UNL     1       7.248  -2.293   4.617  1.00  0.00     0.026 A 
HETATM    3  C   UNL     1       7.658  -3.268   5.504  1.00  0.00     0.090 A 
HETATM    4  N   UNL     1       7.932  -4.542   5.149  1.00  0.00    -0.352 N 
ATOM      5  HN  UNL     1       8.232  -5.219   5.851  1.00  0.00     0.166 HD
HETATM    6  C   UNL     1       7.805  -4.912   3.855  1.00  0.00     0.103 A 
HETATM    7  C   UNL     1       7.374  -3.977   2.914  1.00  0.00     0.057 A 
ENDROOT
BRANCH   1   8
HETATM    8  C   UNL     1       6.688  -1.650   2.246  1.00  0.00     0.161 C 
BRANCH   8   9
HETATM    9  N   UNL     1       5.254  -1.604   2.108  1.00  0.00    -0.357 N 
HETATM   10  C   UNL     1       4.674  -0.778   1.175  1.00  0.00     0.218 C 
HETATM   11  O   UNL     1       5.323  -0.083   0.398  1.00  0.00    -0.274 OA
HETATM   12  H   UNL     1       4.680  -2.120   2.761  1.00  0.00     0.162 HD
BRANCH  10  13
HETATM   13  C   UNL     1       3.156  -0.768   1.198  1.00  0.00     0.111 C 
BRANCH  13  14
HETATM   14  C   UNL     1       2.529   0.288   2.137  1.00  0.00    -0.043 C 
HETATM   15  C   UNL     1       2.971   1.709   1.745  1.00  0.00     0.015 C 
HETATM   16  C   UNL     1       2.898   0.029   3.606  1.00  0.00     0.015 C 
HETATM   17  C   UNL     1       0.996   0.201   1.997  1.00  0.00     0.015 C 
ENDBRANCH  13  14
ENDBRANCH  10  13
ENDBRANCH   8   9
ENDBRANCH   1   8
BRANCH   6  18
HETATM   18  N   UNL     1       8.217  -6.180   3.484  1.00  0.00    -0.363 N 
HETATM   19  C   UNL     1       8.662  -7.092   4.553  1.00  0.00     0.150 C 
HETATM   20  C   UNL     1       9.640  -8.121   3.958  1.00  0.00     0.187 C 
HETATM   21  O   UNL     1       9.065  -8.831   2.847  1.00  0.00    -0.388 OA
HETATM   22  C   UNL     1       8.677  -7.907   1.817  1.00  0.00     0.187 C 
HETATM   23  C   UNL     1       7.643  -6.892   2.333  1.00  0.00     0.150 C 
ENDBRANCH   6  18
TORSDOF 5
