REMARK  5 active torsions:
REMARK  status: ('A' for Active; 'I' for Inactive)
REMARK    1  A    between atoms: C_2  and  N_3 
REMARK    2  A    between atoms: C_7  and  C_8 
REMARK    3  A    between atoms: C_8  and  N_9 
REMARK       I    between atoms: N_9  and  C_10 
REMARK    4  A    between atoms: C_10  and  C_12 
REMARK    5  A    between atoms: C_12  and  C_13 
ROOT
HETATM    1  N   UNL     1       3.265   2.555   1.119  1.00  0.00    -0.359 N 
HETATM    2  C   UNL     1       3.809   2.986   2.310  1.00  0.00     0.222 C 
HETATM    3  O   UNL     1       5.013   3.178   2.459  1.00  0.00    -0.273 OA
HETATM    4  H   UNL     1       2.260   2.588   1.001  1.00  0.00     0.162 HD
ENDROOT
BRANCH   2   5
HETATM    5  C   UNL     1       2.810   3.176   3.438  1.00  0.00     0.145 C 
BRANCH   5   6
HETATM    6  C   UNL     1       2.317   4.583   3.532  1.00  0.00    -0.002 A 
HETATM    7  C   UNL     1       3.074   5.757   3.805  1.00  0.00     0.030 A 
HETATM    8  C   UNL     1       4.529   5.910   4.058  1.00  0.00     0.070 C 
HETATM    9  N   UNL     1       2.301   6.847   3.826  1.00  0.00    -0.303 N 
HETATM   10  N   UNL     1       1.063   6.388   3.592  1.00  0.00    -0.300 N 
ATOM     11  HN  UNL     1       2.589   7.813   3.985  1.00  0.00     0.186 HD
HETATM   12  C   UNL     1      -0.030   7.334   3.552  1.00  0.00     0.177 C 
HETATM   13  C   UNL     1       1.006   5.028   3.420  1.00  0.00     0.033 A 
HETATM   14  C   UNL     1      -0.253   4.275   3.188  1.00  0.00     0.070 C 
ENDBRANCH   5   6
ENDBRANCH   2   5
BRANCH   1  15
HETATM   15  C   UNL     1       4.097   2.329  -0.055  1.00  0.00     0.158 C 
BRANCH  15  16
HETATM   16  C   UNL     1       5.117   1.171   0.125  1.00  0.00     0.240 C 
HETATM   17  N   UNL     1       5.938   0.817  -1.047  1.00  0.00     0.094 N 
HETATM   18  C   UNL     1       5.137  -0.057  -1.904  1.00  0.00     0.273 C 
HETATM   19  C   UNL     1       4.138  -0.737  -0.975  1.00  0.00     0.032 C 
HETATM   20  C   UNL     1       4.420  -0.161   0.403  1.00  0.00     0.039 C 
BRANCH  17  21
HETATM   21  C   UNL     1       6.563   1.915  -1.778  1.00  0.00     0.268 C 
HETATM   22  C   UNL     1       7.473   2.787  -0.920  1.00  0.00     0.037 C 
ENDBRANCH  17  21
ENDBRANCH  15  16
ENDBRANCH   1  15
TORSDOF 5
