REMARK  4 active torsions:
REMARK  status: ('A' for Active; 'I' for Inactive)
REMARK    1  A    between atoms: C_2  and  N_3 
REMARK    2  A    between atoms: N_10  and  C_11 
REMARK    3  A    between atoms: C_11  and  C_12 
REMARK       I    between atoms: C_12  and  N_14 
REMARK    4  A    between atoms: N_14  and  C_15 
ROOT
HETATM    1  N   UNL     1       2.567   0.856   1.430  1.00  0.00    -0.308 N 
HETATM    2  C   UNL     1       3.328   0.180   2.359  1.00  0.00     0.124 C 
HETATM    3  C   UNL     1       4.059   0.827   3.272  1.00  0.00     0.128 C 
HETATM    4  C   UNL     1       4.860   0.152   4.227  1.00  0.00     0.106 C 
HETATM    5  N   UNL     1       5.484  -0.444   5.000  1.00  0.00    -0.191 NA
HETATM    6  C   UNL     1       4.062   2.303   3.194  1.00  0.00     0.274 C 
HETATM    7  O   UNL     1       5.008   2.956   3.630  1.00  0.00    -0.266 OA
HETATM    8  N   UNL     1       2.962   2.874   2.581  1.00  0.00    -0.256 N 
HETATM    9  C   UNL     1       2.344   2.236   1.509  1.00  0.00     0.331 C 
HETATM   10  O   UNL     1       1.694   2.840   0.658  1.00  0.00    -0.246 OA
ENDROOT
BRANCH   1  11
HETATM   11  C   UNL     1       1.926   0.106   0.346  1.00  0.00     0.128 C 
HETATM   12  C   UNL     1       0.506  -0.300   0.700  1.00  0.00     0.027 C 
ENDBRANCH   1  11
BRANCH   8  13
HETATM   13  C   UNL     1       2.836   4.325   2.648  1.00  0.00     0.239 C 
BRANCH  13  14
HETATM   14  C   UNL     1       2.673   4.823   4.089  1.00  0.00     0.236 C 
HETATM   15  O   UNL     1       1.599   4.796   4.683  1.00  0.00    -0.272 OA
HETATM   16  N   UNL     1       3.858   5.241   4.665  1.00  0.00    -0.355 N 
HETATM   17  H   UNL     1       4.698   4.818   4.272  1.00  0.00     0.162 HD
BRANCH  16  18
HETATM   18  C   UNL     1       3.947   5.709   6.045  1.00  0.00     0.084 C 
HETATM   19  C   UNL     1       5.153   6.644   6.212  1.00  0.00     0.025 C 
HETATM   20  C   UNL     1       6.490   5.905   6.148  1.00  0.00     0.002 C 
HETATM   21  C   UNL     1       6.546   4.744   7.136  1.00  0.00     0.000 C 
HETATM   22  C   UNL     1       5.357   3.801   6.989  1.00  0.00     0.002 C 
HETATM   23  C   UNL     1       4.022   4.545   7.044  1.00  0.00     0.025 C 
ENDBRANCH  16  18
ENDBRANCH  13  14
ENDBRANCH   8  13
TORSDOF 4
