REMARK  6 active torsions:
REMARK  status: ('A' for Active; 'I' for Inactive)
REMARK    1  A    between atoms: C_2  and  O_3 
REMARK    2  A    between atoms: C_2  and  C_9 
REMARK    3  A    between atoms: O_3  and  C_4 
REMARK    4  A    between atoms: C_4  and  C_5 
REMARK       I    between atoms: C_9  and  N_11 
REMARK    5  A    between atoms: N_11  and  C_12 
REMARK    6  A    between atoms: C_15  and  N_19 
ROOT
HETATM    1  C   UNL     1       4.885   3.058  -0.923  1.00  0.00     0.050 A 
HETATM    2  C   UNL     1       4.475   4.214  -0.282  1.00  0.00     0.035 A 
HETATM    3  C   UNL     1       4.846   5.450  -0.788  1.00  0.00     0.051 A 
HETATM    4  C   UNL     1       5.640   5.541  -1.925  1.00  0.00     0.103 A 
HETATM    5  N   UNL     1       6.164   4.422  -2.479  1.00  0.00    -0.350 N 
ATOM      6  HN  UNL     1       6.829   4.480  -3.250  1.00  0.00     0.166 HD
HETATM    7  C   UNL     1       5.778   3.218  -1.978  1.00  0.00     0.119 A 
ENDROOT
BRANCH   1   8
HETATM    8  N   UNL     1       4.408   1.784  -0.542  1.00  0.00    -0.324 N 
HETATM    9  C   UNL     1       3.190   1.598   0.112  1.00  0.00     0.250 C 
HETATM   10  O   UNL     1       2.397   2.494   0.390  1.00  0.00    -0.270 OA
HETATM   11  H   UNL     1       4.867   0.978  -0.950  1.00  0.00     0.169 HD
BRANCH   9  12
HETATM   12  C   UNL     1       2.847   0.123   0.408  1.00  0.00     0.209 C 
HETATM   13  C   UNL     1       1.997   0.102   1.681  1.00  0.00     0.050 C 
BRANCH  12  14
HETATM   14  O   UNL     1       2.092  -0.532  -0.612  1.00  0.00    -0.368 OA
BRANCH  14  15
HETATM   15  C   UNL     1       2.764  -0.637  -1.873  1.00  0.00     0.286 C 
BRANCH  15  16
HETATM   16  C   UNL     1       1.951  -1.349  -2.960  1.00  0.00     0.408 C 
HETATM   17  F   UNL     1       0.715  -1.702  -2.558  1.00  0.00    -0.169 F 
HETATM   18  F   UNL     1       1.819  -0.552  -4.047  1.00  0.00    -0.169 F 
HETATM   19  F   UNL     1       2.590  -2.472  -3.367  1.00  0.00    -0.169 F 
ENDBRANCH  15  16
ENDBRANCH  14  15
ENDBRANCH  12  14
ENDBRANCH   9  12
ENDBRANCH   1   8
BRANCH   4  20
HETATM   20  N   UNL     1       5.871   6.775  -2.496  1.00  0.00    -0.367 N 
HETATM   21  C   UNL     1       4.819   7.787  -2.526  1.00  0.00     0.124 C 
HETATM   22  C   UNL     1       4.513   8.194  -3.965  1.00  0.00     0.020 C 
HETATM   23  C   UNL     1       5.783   8.597  -4.705  1.00  0.00     0.003 C 
HETATM   24  C   UNL     1       6.812   7.469  -4.654  1.00  0.00     0.020 C 
HETATM   25  C   UNL     1       7.104   7.036  -3.220  1.00  0.00     0.124 C 
ENDBRANCH   4  20
TORSDOF 6
