REMARK  6 active torsions:
REMARK  status: ('A' for Active; 'I' for Inactive)
REMARK    1  A    between atoms: C_2  and  N_3 
REMARK    2  A    between atoms: C_2  and  C_14 
REMARK    3  A    between atoms: N_3  and  C_4 
REMARK    4  A    between atoms: C_4  and  C_5 
REMARK       I    between atoms: C_5  and  N_7 
REMARK    5  A    between atoms: N_7  and  C_8 
REMARK    6  A    between atoms: C_14  and  N_16 
ROOT
HETATM    1  N   UNL     1       2.706  -1.416  -0.041  1.00  0.00     0.098 N 
HETATM    2  H   UNL     1       3.692  -1.497  -0.280  1.00  0.00     0.317 HD
ENDROOT
BRANCH   1   3
HETATM    3  C   UNL     1       2.339   0.003   0.158  1.00  0.00     0.241 C 
HETATM    4  C   UNL     1       3.140   0.573   1.338  1.00  0.00     0.045 C 
BRANCH   3   5
HETATM    5  C   UNL     1       0.806   0.280   0.276  1.00  0.00     0.136 C 
HETATM    6  C   UNL     1       0.465   1.769   0.426  1.00  0.00     0.036 C 
BRANCH   5   7
HETATM    7  N   UNL     1       0.057  -0.281  -0.851  1.00  0.00    -0.297 N 
HETATM    8  C   UNL     1      -0.946  -1.209  -0.776  1.00  0.00     0.112 A 
HETATM    9  C   UNL     1      -1.325  -1.467  -2.071  1.00  0.00     0.037 A 
HETATM   10  C   UNL     1      -0.524  -0.616  -2.852  1.00  0.00     0.108 A 
HETATM   11  N   UNL     1       0.286   0.146  -2.112  1.00  0.00    -0.310 N 
ATOM     12  HN  UNL     1       0.925   0.877  -2.425  1.00  0.00     0.186 HD
ENDBRANCH   5   7
ENDBRANCH   3   5
ENDBRANCH   1   3
BRANCH   1  13
HETATM   13  C   UNL     1       2.340  -2.330   1.043  1.00  0.00     0.372 C 
BRANCH  13  14
HETATM   14  C   UNL     1       2.620  -3.773   0.609  1.00  0.00     0.246 C 
HETATM   15  O   UNL     1       1.768  -4.473   0.065  1.00  0.00    -0.272 OA
HETATM   16  N   UNL     1       3.914  -4.198   0.871  1.00  0.00    -0.355 N 
HETATM   17  H   UNL     1       4.587  -3.452   0.988  1.00  0.00     0.162 HD
BRANCH  16  18
HETATM   18  C   UNL     1       4.414  -5.456   0.307  1.00  0.00     0.088 C 
HETATM   19  C   UNL     1       3.690  -6.706   0.838  1.00  0.00     0.051 C 
HETATM   20  C   UNL     1       4.232  -7.215   2.167  1.00  0.00     0.169 C 
HETATM   21  O   UNL     1       5.654  -7.305   2.164  1.00  0.00    -0.391 OA
HETATM   22  C   UNL     1       6.258  -6.039   1.923  1.00  0.00     0.169 C 
HETATM   23  C   UNL     1       5.928  -5.578   0.513  1.00  0.00     0.051 C 
ENDBRANCH  16  18
ENDBRANCH  13  14
ENDBRANCH   1  13
TORSDOF 6
