REMARK  4 active torsions:
REMARK  status: ('A' for Active; 'I' for Inactive)
REMARK    1  A    between atoms: C_4  and  N_5 
REMARK       I    between atoms: N_5  and  C_6 
REMARK       I    between atoms: C_6  and  N_8 
REMARK    2  A    between atoms: N_8  and  C_9 
REMARK    3  A    between atoms: C_11  and  C_12 
REMARK    4  A    between atoms: C_12  and  O_13 
ROOT
HETATM    1  N   UNL     1       3.111   2.942  -0.555  1.00  0.00    -0.309 N 
HETATM    2  C   UNL     1       4.004   3.927  -0.187  1.00  0.00     0.321 C 
HETATM    3  O   UNL     1       4.934   3.814   0.601  1.00  0.00    -0.247 OA
HETATM    4  N   UNL     1       3.708   5.127  -0.799  1.00  0.00    -0.335 N 
HETATM    5  H   UNL     1       2.372   3.226  -1.179  1.00  0.00     0.170 HD
HETATM    6  H   UNL     1       3.185   5.105  -1.660  1.00  0.00     0.164 HD
ENDROOT
BRANCH   1   7
HETATM    7  C   UNL     1       3.063   1.610  -0.084  1.00  0.00     0.039 A 
HETATM    8  C   UNL     1       3.954   1.089   0.850  1.00  0.00     0.054 A 
HETATM    9  C   UNL     1       3.804  -0.230   1.271  1.00  0.00     0.007 A 
HETATM   10  C   UNL     1       4.712  -0.798   2.321  1.00  0.00     0.068 C 
HETATM   11  N   UNL     1       2.831  -1.042   0.799  1.00  0.00    -0.369 N 
HETATM   12  C   UNL     1       1.984  -0.521  -0.112  1.00  0.00     0.090 A 
ATOM     13  HN  UNL     1       2.742  -2.007   1.118  1.00  0.00     0.165 HD
HETATM   14  C   UNL     1       2.054   0.783  -0.575  1.00  0.00     0.046 A 
ENDBRANCH   1   7
BRANCH   4  15
HETATM   15  C   UNL     1       4.527   6.288  -0.553  1.00  0.00     0.109 C 
HETATM   16  C   UNL     1       5.710   6.410  -1.522  1.00  0.00     0.040 C 
HETATM   17  C   UNL     1       5.839   7.914  -1.824  1.00  0.00     0.034 C 
HETATM   18  C   UNL     1       4.439   8.402  -1.565  1.00  0.00    -0.022 C 
HETATM   19  C   UNL     1       3.727   7.509  -0.868  1.00  0.00    -0.005 C 
BRANCH  17  20
HETATM   20  C   UNL     1       6.337   8.178  -3.246  1.00  0.00     0.172 C 
BRANCH  20  21
HETATM   21  O   UNL     1       6.525   9.574  -3.467  1.00  0.00    -0.400 OA
HETATM   22  H   UNL     1       5.651   9.996  -3.447  1.00  0.00     0.209 HD
ENDBRANCH  20  21
ENDBRANCH  17  20
ENDBRANCH   4  15
TORSDOF 4
