REMARK  7 active torsions:
REMARK  status: ('A' for Active; 'I' for Inactive)
REMARK    1  A    between atoms: N_6  and  C_7 
REMARK    2  A    between atoms: C_7  and  C_8 
REMARK    3  A    between atoms: C_8  and  N_9 
REMARK    4  A    between atoms: N_9  and  C_10 
REMARK    5  A    between atoms: C_10  and  C_11 
REMARK    6  A    between atoms: C_11  and  C_12 
REMARK       I    between atoms: C_12  and  N_14 
REMARK    7  A    between atoms: N_14  and  C_15 
ROOT
HETATM    1  N   UNL     1       6.481  -3.949   0.002  1.00  0.00     0.085 N 
HETATM    2  H   UNL     1       7.041  -3.792   0.841  1.00  0.00     0.315 HD
ENDROOT
BRANCH   1   3
HETATM    3  C   UNL     1       5.330  -3.017   0.006  1.00  0.00     0.291 C 
BRANCH   3   4
HETATM    4  C   UNL     1       4.385  -3.155   1.208  1.00  0.00     0.178 C 
BRANCH   4   5
HETATM    5  N   UNL     1       3.266  -2.236   1.135  1.00  0.00    -0.302 N 
HETATM    6  N   UNL     1       3.350  -1.024   1.706  1.00  0.00    -0.310 N 
HETATM    7  C   UNL     1       2.135  -0.505   1.518  1.00  0.00     0.115 A 
ATOM      8  HN  UNL     1       4.152  -0.600   2.173  1.00  0.00     0.186 HD
HETATM    9  C   UNL     1       1.270  -1.377   0.818  1.00  0.00    -0.028 A 
HETATM   10  C   UNL     1      -0.140  -1.151   0.433  1.00  0.00     0.051 C 
HETATM   11  C   UNL     1       2.042  -2.494   0.586  1.00  0.00     0.118 A 
ENDBRANCH   4   5
ENDBRANCH   3   4
ENDBRANCH   1   3
BRANCH   1  12
HETATM   12  C   UNL     1       6.027  -5.343  -0.037  1.00  0.00     0.278 C 
BRANCH  12  13
HETATM   13  C   UNL     1       7.170  -6.355  -0.100  1.00  0.00     0.132 C 
BRANCH  13  14
HETATM   14  C   UNL     1       6.552  -7.736  -0.053  1.00  0.00     0.219 C 
HETATM   15  O   UNL     1       5.492  -7.963   0.528  1.00  0.00    -0.274 OA
HETATM   16  N   UNL     1       7.264  -8.720  -0.700  1.00  0.00    -0.356 N 
HETATM   17  H   UNL     1       8.230  -8.548  -0.952  1.00  0.00     0.162 HD
BRANCH  16  18
HETATM   18  C   UNL     1       6.758 -10.074  -0.698  1.00  0.00     0.084 C 
HETATM   19  C   UNL     1       7.213 -10.886   0.512  1.00  0.00     0.025 C 
HETATM   20  C   UNL     1       7.121 -12.346   0.063  1.00  0.00     0.002 C 
HETATM   21  C   UNL     1       6.809 -12.311  -1.433  1.00  0.00     0.002 C 
HETATM   22  C   UNL     1       7.219 -10.915  -1.878  1.00  0.00     0.025 C 
ENDBRANCH  16  18
ENDBRANCH  13  14
ENDBRANCH  12  13
ENDBRANCH   1  12
TORSDOF 7
