REMARK  6 active torsions:
REMARK  status: ('A' for Active; 'I' for Inactive)
REMARK    1  A    between atoms: C_1  and  C_3 
REMARK    2  A    between atoms: N_2  and  C_7 
REMARK    3  A    between atoms: C_4  and  C_7 
REMARK    4  A    between atoms: C_4  and  O_19 
REMARK    5  A    between atoms: C_8  and  O_9 
REMARK    6  A    between atoms: O_9  and  C_17 
ROOT
HETATM    1  N   UNL     1       1.523  -5.879   4.819  1.00  0.00     0.091 N 
HETATM    2  C   UNL     1      -0.142  -5.591   2.971  1.00  0.00     0.062 C 
HETATM    3  C   UNL     1       1.893  -4.097   3.093  1.00  0.00     0.062 C 
HETATM    4  C   UNL     1       0.084  -5.907   4.463  1.00  0.00     0.275 C 
HETATM    5  C   UNL     1       2.055  -4.515   4.569  1.00  0.00     0.275 C 
HETATM    6  C   UNL     1       0.432  -4.199   2.641  1.00  0.00     0.132 C 
ENDROOT
BRANCH   6   7
HETATM    7  O   UNL     1      -0.320  -3.216   3.267  1.00  0.00    -0.346 OA
BRANCH   7   8
HETATM    8  C   UNL     1      -1.488  -2.682   2.813  1.00  0.00     0.070 A 
HETATM    9  C   UNL     1      -2.061  -3.030   1.569  1.00  0.00     0.052 A 
HETATM   10  C   UNL     1      -3.247  -2.419   1.127  1.00  0.00     0.050 A 
HETATM   11  C   UNL     1      -3.869  -1.466   1.947  1.00  0.00     0.016 A 
HETATM   12  C   UNL     1      -3.316  -1.128   3.184  1.00  0.00     0.004 A 
HETATM   13  C   UNL     1      -2.131  -1.731   3.612  1.00  0.00     0.037 A 
BRANCH  10  14
HETATM   14  C   UNL     1      -3.857  -2.757  -0.212  1.00  0.00     0.417 C 
HETATM   15  F   UNL     1      -3.122  -3.716  -0.889  1.00  0.00    -0.166 F 
HETATM   16  F   UNL     1      -3.907  -1.616  -0.992  1.00  0.00    -0.166 F 
HETATM   17  F   UNL     1      -5.141  -3.237  -0.029  1.00  0.00    -0.166 F 
ENDBRANCH  10  14
ENDBRANCH   7   8
ENDBRANCH   6   7
BRANCH   1  18
HETATM   18  C   UNL     1       2.384  -6.908   4.164  1.00  0.00     0.311 C 
BRANCH  18  19
HETATM   19  C   UNL     1       2.045  -8.393   4.444  1.00  0.00     0.112 C 
HETATM   20  C   UNL     1       2.152  -8.820   5.909  1.00  0.00     0.071 C 
HETATM   21  C   UNL     1       2.262 -10.342   5.782  1.00  0.00     0.272 C 
HETATM   22  N   UNL     1       2.881 -10.617   4.477  1.00  0.00     0.086 N 
HETATM   23  C   UNL     1       3.125  -9.311   3.868  1.00  0.00     0.308 C 
HETATM   24  H   UNL     1       3.768 -11.167   4.557  1.00  0.00     0.315 HD
BRANCH  19  25
HETATM   25  O   UNL     1       0.816  -8.758   3.846  1.00  0.00    -0.386 OA
HETATM   26  H   UNL     1       0.140  -8.950   4.545  1.00  0.00     0.210 HD
ENDBRANCH  19  25
ENDBRANCH  18  19
ENDBRANCH   1  18
TORSDOF 6
