REMARK  2 active torsions:
REMARK  status: ('A' for Active; 'I' for Inactive)
REMARK    1  A    between atoms: N_4  and  C_9 
REMARK    2  A    between atoms: C_17  and  C_18 
REMARK       I    between atoms: C_18  and  N_20 
ROOT
HETATM    1  C   UNL     1       1.777   1.388  -3.407  1.00  0.00     0.120 A 
HETATM    2  N   UNL     1       2.243   2.663  -3.433  1.00  0.00    -0.346 N 
ATOM      3  HN  UNL     1       2.987   2.954  -2.799  1.00  0.00     0.167 HD
HETATM    4  C   UNL     1       1.706   3.545  -4.314  1.00  0.00     0.007 A 
HETATM    5  C   UNL     1       2.254   4.943  -4.330  1.00  0.00     0.068 C 
HETATM    6  C   UNL     1       0.659   3.223  -5.163  1.00  0.00     0.032 A 
HETATM    7  C   UNL     1       0.149   1.925  -5.146  1.00  0.00    -0.041 A 
HETATM    8  C   UNL     1      -1.066   1.605  -5.975  1.00  0.00     0.049 C 
HETATM    9  C   UNL     1       0.743   0.985  -4.289  1.00  0.00     0.081 A 
ENDROOT
BRANCH   1  10
HETATM   10  N   UNL     1       2.241   0.557  -2.388  1.00  0.00    -0.362 N 
HETATM   11  C   UNL     1       2.794   1.196  -1.181  1.00  0.00     0.156 C 
HETATM   12  C   UNL     1       2.654   0.189  -0.009  1.00  0.00     0.136 C 
HETATM   13  C   UNL     1       1.197   0.048   0.444  1.00  0.00     0.041 C 
HETATM   14  O   UNL     1       3.249  -1.097  -0.317  1.00  0.00    -0.378 OA
HETATM   15  C   UNL     1       2.813  -1.652  -1.575  1.00  0.00     0.136 C 
HETATM   16  C   UNL     1       3.021  -0.647  -2.739  1.00  0.00     0.156 C 
HETATM   17  C   UNL     1       3.537  -2.966  -1.822  1.00  0.00     0.041 C 
ENDBRANCH   1  10
BRANCH   9  18
HETATM   18  C   UNL     1       0.190  -0.399  -4.277  1.00  0.00     0.253 C 
HETATM   19  O   UNL     1      -0.021  -1.021  -5.306  1.00  0.00    -0.268 OA
HETATM   20  N   UNL     1      -0.078  -0.944  -3.060  1.00  0.00    -0.366 N 
HETATM   21  H   UNL     1       0.375  -0.510  -2.267  1.00  0.00     0.159 HD
HETATM   22  H   UNL     1      -0.255  -1.937  -3.034  1.00  0.00     0.159 HD
ENDBRANCH   9  18
TORSDOF 2
