REMARK  4 active torsions:
REMARK  status: ('A' for Active; 'I' for Inactive)
REMARK    1  A    between atoms: O_2  and  C_3 
REMARK    2  A    between atoms: C_6  and  N_7 
REMARK       I    between atoms: N_7  and  C_8 
REMARK       I    between atoms: C_8  and  N_10 
REMARK    3  A    between atoms: N_10  and  C_11 
REMARK    4  A    between atoms: C_11  and  C_12 
ROOT
HETATM    1  N   UNL     1       4.740  -4.898  -1.421  1.00  0.00    -0.308 N 
HETATM    2  C   UNL     1       4.133  -6.116  -1.216  1.00  0.00     0.320 C 
HETATM    3  O   UNL     1       3.082  -6.297  -0.618  1.00  0.00    -0.247 OA
HETATM    4  N   UNL     1       4.860  -7.178  -1.727  1.00  0.00    -0.342 N 
HETATM    5  H   UNL     1       5.489  -4.855  -2.094  1.00  0.00     0.170 HD
HETATM    6  H   UNL     1       5.410  -6.990  -2.550  1.00  0.00     0.164 HD
ENDROOT
BRANCH   1   7
HETATM    7  C   UNL     1       4.299  -3.676  -0.852  1.00  0.00     0.051 A 
HETATM    8  C   UNL     1       3.409  -3.612   0.220  1.00  0.00     0.035 A 
HETATM    9  C   UNL     1       3.025  -2.376   0.737  1.00  0.00     0.058 A 
HETATM   10  C   UNL     1       3.552  -1.232   0.172  1.00  0.00     0.141 A 
HETATM   11  N   UNL     1       4.423  -1.241  -0.860  1.00  0.00    -0.345 N 
HETATM   12  C   UNL     1       4.777  -2.461  -1.342  1.00  0.00     0.119 A 
ATOM     13  HN  UNL     1       4.795  -0.378  -1.256  1.00  0.00     0.167 HD
BRANCH  10  14
HETATM   14  O   UNL     1       3.142  -0.043   0.739  1.00  0.00    -0.341 OA
HETATM   15  C   UNL     1       3.745   1.099   0.148  1.00  0.00     0.211 C 
ENDBRANCH  10  14
ENDBRANCH   1   7
BRANCH   4  16
HETATM   16  C   UNL     1       4.274  -8.500  -1.596  1.00  0.00     0.130 C 
BRANCH  16  17
HETATM   17  C   UNL     1       5.297  -9.629  -1.542  1.00  0.00     0.018 C 
HETATM   18  C   UNL     1       4.587 -10.981  -1.306  1.00  0.00     0.022 C 
HETATM   19  C   UNL     1       5.521 -11.957  -0.592  1.00  0.00     0.141 C 
HETATM   20  S   UNL     1       7.005 -11.066  -0.194  1.00  0.00     0.144 S 
HETATM   21  O   UNL     1       7.332 -11.268   1.201  1.00  0.00    -0.228 OA
HETATM   22  O   UNL     1       7.966 -11.282  -1.257  1.00  0.00    -0.228 OA
HETATM   23  C   UNL     1       6.299  -9.452  -0.403  1.00  0.00     0.146 C 
ENDBRANCH  16  17
ENDBRANCH   4  16
TORSDOF 4
