REMARK  6 active torsions:
REMARK  status: ('A' for Active; 'I' for Inactive)
REMARK    1  A    between atoms: C_2  and  O_3 
REMARK    2  A    between atoms: C_2  and  C_8 
REMARK    3  A    between atoms: O_3  and  C_4 
REMARK    4  A    between atoms: C_4  and  C_5 
REMARK       I    between atoms: C_8  and  N_10 
REMARK    5  A    between atoms: N_10  and  C_11 
REMARK    6  A    between atoms: C_13  and  C_18 
ROOT
HETATM    1  C   UNL     1       4.619  -0.177  -3.216  1.00  0.00     0.104 A 
HETATM    2  C   UNL     1       3.882   0.136  -4.294  1.00  0.00     0.052 A 
HETATM    3  C   UNL     1       4.272  -0.267  -5.631  1.00  0.00     0.065 A 
HETATM    4  C   UNL     1       5.399  -0.990  -5.774  1.00  0.00     0.107 A 
HETATM    5  N   UNL     1       6.195  -1.290  -4.694  1.00  0.00    -0.331 N 
HETATM    6  C   UNL     1       5.922  -0.895  -3.403  1.00  0.00     0.272 A 
HETATM    7  O   UNL     1       6.652  -1.144  -2.448  1.00  0.00    -0.266 OA
HETATM    8  H   UNL     1       7.033  -1.848  -4.818  1.00  0.00     0.168 HD
ENDROOT
BRANCH   1   9
HETATM    9  N   UNL     1       4.187   0.051  -1.930  1.00  0.00    -0.320 N 
HETATM   10  C   UNL     1       2.927  -0.390  -1.531  1.00  0.00     0.251 C 
HETATM   11  O   UNL     1       2.153  -0.974  -2.289  1.00  0.00    -0.270 OA
HETATM   12  H   UNL     1       4.926   0.012  -1.235  1.00  0.00     0.169 HD
BRANCH  10  13
HETATM   13  C   UNL     1       2.579  -0.096  -0.059  1.00  0.00     0.209 C 
HETATM   14  C   UNL     1       1.052  -0.060   0.039  1.00  0.00     0.050 C 
BRANCH  13  15
HETATM   15  O   UNL     1       3.048  -1.050   0.895  1.00  0.00    -0.376 OA
BRANCH  15  16
HETATM   16  C   UNL     1       4.466  -1.077   1.019  1.00  0.00     0.173 C 
BRANCH  16  17
HETATM   17  C   UNL     1       4.871  -2.025   2.096  1.00  0.00     0.009 A 
HETATM   18  C   UNL     1       6.343  -2.254   2.342  1.00  0.00     0.007 A 
HETATM   19  C   UNL     1       5.507  -3.348   1.742  1.00  0.00     0.007 A 
ENDBRANCH  16  17
ENDBRANCH  15  16
ENDBRANCH  13  15
ENDBRANCH  10  13
ENDBRANCH   1   9
BRANCH   3  20
HETATM   20  C   UNL     1       3.368   0.085  -6.775  1.00  0.00     0.418 C 
HETATM   21  F   UNL     1       2.285   0.819  -6.398  1.00  0.00    -0.166 F 
HETATM   22  F   UNL     1       4.020   0.818  -7.712  1.00  0.00    -0.166 F 
HETATM   23  F   UNL     1       2.893  -1.020  -7.400  1.00  0.00    -0.166 F 
ENDBRANCH   3  20
TORSDOF 6
