REMARK  3 active torsions:
REMARK  status: ('A' for Active; 'I' for Inactive)
REMARK    1  A    between atoms: C_2  and  N_3 
REMARK    2  A    between atoms: C_2  and  C_4 
REMARK    3  A    between atoms: C_4  and  C_5 
ROOT
HETATM    1  C   UNL     1       4.504   1.125  -1.022  1.00  0.00     0.029 A 
HETATM    2  C   UNL     1       5.511   0.236  -1.327  1.00  0.00     0.052 A 
HETATM    3  C   UNL     1       6.712   0.948  -1.112  1.00  0.00     0.024 A 
HETATM    4  C   UNL     1       8.104   0.467  -1.277  1.00  0.00     0.070 C 
HETATM    5  N   UNL     1       6.475   2.202  -0.709  1.00  0.00    -0.305 N 
ATOM      6  HN  UNL     1       7.155   2.926  -0.480  1.00  0.00     0.186 HD
HETATM    7  N   UNL     1       5.137   2.287  -0.676  1.00  0.00    -0.305 N 
HETATM    8  H   UNL     1       4.721   3.171  -0.403  1.00  0.00     0.186 HD
ENDROOT
BRANCH   1   9
HETATM    9  C   UNL     1       3.017   0.996  -1.030  1.00  0.00     0.093 C 
BRANCH   9  10
HETATM   10  C   UNL     1       2.500  -0.116  -0.092  1.00  0.00     0.219 C 
HETATM   11  C   UNL     1       2.834   0.153   1.377  1.00  0.00     0.042 C 
BRANCH  10  12
HETATM   12  N   UNL     1       1.044  -0.249  -0.237  1.00  0.00     0.082 N 
HETATM   13  H   UNL     1       0.582   0.585   0.126  1.00  0.00     0.313 HD
HETATM   14  H   UNL     1       0.717  -1.021   0.344  1.00  0.00     0.313 HD
ENDBRANCH  10  12
ENDBRANCH   9  10
ENDBRANCH   1   9
TORSDOF 3
