REMARK  4 active torsions:
REMARK  status: ('A' for Active; 'I' for Inactive)
REMARK    1  A    between atoms: C_5  and  N_6 
REMARK    2  A    between atoms: C_10  and  C_11 
REMARK    3  A    between atoms: C_11  and  C_12 
REMARK    4  A    between atoms: C_12  and  O_13 
ROOT
HETATM    1  C   UNL     1       1.167  -0.288   0.035  1.00  0.00     0.069 C 
HETATM    2  C   UNL     1       2.655  -0.053   0.016  1.00  0.00     0.019 A 
HETATM    3  N   UNL     1       3.396  -1.212  -0.037  1.00  0.00    -0.336 N 
ATOM      4  HN  UNL     1       2.938  -2.123  -0.062  1.00  0.00     0.168 HD
HETATM    5  C   UNL     1       4.685  -1.119  -0.055  1.00  0.00     0.157 A 
HETATM    6  N   UNL     1       5.331   0.070  -0.001  1.00  0.00    -0.299 N 
HETATM    7  C   UNL     1       4.671   1.256   0.092  1.00  0.00     0.256 A 
HETATM    8  O   UNL     1       5.277   2.318   0.201  1.00  0.00    -0.268 OA
HETATM    9  C   UNL     1       3.191   1.185   0.054  1.00  0.00     0.034 A 
HETATM   10  H   UNL     1       6.336   0.114  -0.017  1.00  0.00     0.171 HD
ENDROOT
BRANCH   9  11
HETATM   11  C   UNL     1       2.441   2.494   0.104  1.00  0.00     0.072 C 
BRANCH  11  12
HETATM   12  C   UNL     1       2.720   3.432  -1.076  1.00  0.00     0.169 C 
BRANCH  12  13
HETATM   13  O   UNL     1       2.283   2.857  -2.302  1.00  0.00    -0.401 OA
HETATM   14  H   UNL     1       2.965   2.219  -2.577  1.00  0.00     0.209 HD
ENDBRANCH  12  13
ENDBRANCH  11  12
ENDBRANCH   9  11
BRANCH   5  15
HETATM   15  N   UNL     1       5.455  -2.231  -0.120  1.00  0.00    -0.274 NA
HETATM   16  H   UNL     1       4.927  -3.073   0.089  1.00  0.00     0.127 HD
HETATM   17  H   UNL     1       6.356  -2.201   0.335  1.00  0.00     0.127 HD
ENDBRANCH   5  15
TORSDOF 4
