REMARK  4 active torsions:
REMARK  status: ('A' for Active; 'I' for Inactive)
REMARK    1  A    between atoms: N_5  and  C_6 
REMARK    2  A    between atoms: C_11  and  C_12 
REMARK    3  A    between atoms: C_12  and  C_13 
REMARK       I    between atoms: C_13  and  N_15 
REMARK    4  A    between atoms: N_15  and  C_16 
ROOT
HETATM    1  C   UNL     1       1.394   0.191  -0.534  1.00  0.00     0.070 C 
HETATM    2  C   UNL     1       2.835   0.175  -0.169  1.00  0.00     0.031 A 
HETATM    3  N   UNL     1       3.464  -1.003  -0.097  1.00  0.00    -0.298 N 
ATOM      4  HN  UNL     1       3.063  -1.931  -0.232  1.00  0.00     0.187 HD
HETATM    5  N   UNL     1       4.746  -0.694   0.193  1.00  0.00    -0.236 N 
HETATM    6  C   UNL     1       4.945   0.660   0.334  1.00  0.00     0.039 A 
HETATM    7  C   UNL     1       6.275   1.265   0.620  1.00  0.00     0.070 C 
HETATM    8  C   UNL     1       3.708   1.262   0.124  1.00  0.00    -0.002 A 
ENDROOT
BRANCH   8   9
HETATM    9  C   UNL     1       3.437   2.736   0.133  1.00  0.00     0.145 C 
BRANCH   9  10
HETATM   10  C   UNL     1       2.037   3.136   0.572  1.00  0.00     0.222 C 
HETATM   11  O   UNL     1       1.109   3.283  -0.219  1.00  0.00    -0.273 OA
HETATM   12  N   UNL     1       1.910   3.354   1.928  1.00  0.00    -0.356 N 
HETATM   13  H   UNL     1       2.637   2.972   2.519  1.00  0.00     0.162 HD
BRANCH  12  14
HETATM   14  C   UNL     1       0.642   3.744   2.548  1.00  0.00     0.088 C 
HETATM   15  C   UNL     1       0.883   4.578   3.810  1.00  0.00     0.051 C 
HETATM   16  C   UNL     1       1.454   3.714   4.926  1.00  0.00     0.169 C 
HETATM   17  O   UNL     1       0.595   2.608   5.199  1.00  0.00    -0.391 OA
HETATM   18  C   UNL     1       0.396   1.759   4.068  1.00  0.00     0.169 C 
HETATM   19  C   UNL     1      -0.215   2.527   2.903  1.00  0.00     0.051 C 
ENDBRANCH  12  14
ENDBRANCH   9  10
ENDBRANCH   8   9
BRANCH   5  20
HETATM   20  C   UNL     1       5.734  -1.764   0.324  1.00  0.00     0.479 C 
HETATM   21  F   UNL     1       6.783  -1.584  -0.526  1.00  0.00    -0.189 F 
HETATM   22  F   UNL     1       6.256  -1.799   1.582  1.00  0.00    -0.189 F 
ENDBRANCH   5  20
TORSDOF 4
