REMARK  2 active torsions:
REMARK  status: ('A' for Active; 'I' for Inactive)
REMARK    1  A    between atoms: C_8  and  N_9 
REMARK       I    between atoms: N_9  and  C_10 
REMARK       I    between atoms: C_10  and  N_12 
REMARK    2  A    between atoms: N_12  and  C_13 
ROOT
HETATM    1  N   UNL     1       5.382   2.560   0.101  1.00  0.00    -0.295 N 
HETATM    2  C   UNL     1       6.578   2.647  -0.564  1.00  0.00     0.322 C 
HETATM    3  O   UNL     1       6.896   1.801  -1.394  1.00  0.00    -0.247 OA
HETATM    4  N   UNL     1       7.384   3.674  -0.192  1.00  0.00    -0.336 N 
HETATM    5  H   UNL     1       4.867   1.715  -0.095  1.00  0.00     0.172 HD
HETATM    6  H   UNL     1       6.946   4.351   0.426  1.00  0.00     0.164 HD
ENDROOT
BRANCH   1   7
HETATM    7  C   UNL     1       4.891   3.446   1.070  1.00  0.00     0.109 A 
HETATM    8  N   UNL     1       5.497   4.646   1.210  1.00  0.00    -0.346 N 
HETATM    9  C   UNL     1       5.082   5.485   2.182  1.00  0.00     0.007 A 
ATOM     10  HN  UNL     1       6.259   4.914   0.588  1.00  0.00     0.167 HD
HETATM   11  C   UNL     1       4.071   5.144   3.064  1.00  0.00     0.031 A 
HETATM   12  C   UNL     1       5.809   6.791   2.262  1.00  0.00     0.068 C 
HETATM   13  C   UNL     1       3.439   3.904   2.919  1.00  0.00    -0.057 A 
HETATM   14  C   UNL     1       2.374   3.473   3.882  1.00  0.00     0.048 C 
HETATM   15  C   UNL     1       3.840   3.052   1.882  1.00  0.00     0.055 A 
ENDBRANCH   1   7
BRANCH   4  16
HETATM   16  C   UNL     1       8.730   3.904  -0.641  1.00  0.00     0.117 C 
HETATM   17  C   UNL     1       9.386   5.085   0.099  1.00  0.00     0.059 C 
HETATM   18  C   UNL     1       9.791   5.995  -1.058  1.00  0.00     0.124 C 
HETATM   19  C   UNL     1       8.564   6.641  -1.701  1.00  0.00     0.034 C 
HETATM   20  O   UNL     1      10.167   5.026  -2.063  1.00  0.00    -0.378 OA
HETATM   21  C   UNL     1       7.965   5.477  -2.490  1.00  0.00     0.036 C 
HETATM   22  C   UNL     1       8.892   4.323  -2.109  1.00  0.00     0.144 C 
ENDBRANCH   4  16
TORSDOF 2
