REMARK  5 active torsions:
REMARK  status: ('A' for Active; 'I' for Inactive)
REMARK    1  A    between atoms: N_6  and  C_7 
REMARK    2  A    between atoms: C_7  and  C_8 
REMARK       I    between atoms: C_8  and  N_10 
REMARK    3  A    between atoms: N_10  and  C_11 
REMARK    4  A    between atoms: C_11  and  C_12 
REMARK    5  A    between atoms: C_12  and  N_13 
ROOT
HETATM    1  C   UNL     1       5.034  -3.215  -0.338  1.00  0.00     0.237 C 
HETATM    2  O   UNL     1       3.843  -3.478  -0.491  1.00  0.00    -0.272 OA
HETATM    3  N   UNL     1       5.986  -4.197  -0.136  1.00  0.00    -0.358 N 
HETATM    4  H   UNL     1       6.938  -3.928   0.087  1.00  0.00     0.162 HD
ENDROOT
BRANCH   3   5
HETATM    5  C   UNL     1       5.588  -5.594  -0.023  1.00  0.00     0.142 C 
BRANCH   5   6
HETATM    6  C   UNL     1       6.782  -6.549   0.065  1.00  0.00     0.145 C 
BRANCH   6   7
HETATM    7  N   UNL     1       6.432  -7.969   0.187  1.00  0.00    -0.351 N 
HETATM    8  C   UNL     1       6.202  -8.718  -1.051  1.00  0.00     0.126 C 
HETATM    9  C   UNL     1       6.939 -10.051  -1.094  1.00  0.00     0.020 C 
HETATM   10  C   UNL     1       6.174 -11.201  -0.444  1.00  0.00     0.002 C 
HETATM   11  C   UNL     1       5.342 -10.819   0.776  1.00  0.00     0.009 C 
HETATM   12  C   UNL     1       6.074  -9.902   1.735  1.00  0.00     0.103 C 
HETATM   13  C   UNL     1       6.021  -8.413   1.437  1.00  0.00     0.219 C 
HETATM   14  O   UNL     1       5.766  -7.623   2.350  1.00  0.00    -0.273 OA
ENDBRANCH   6   7
ENDBRANCH   5   6
ENDBRANCH   3   5
BRANCH   1  15
HETATM   15  C   UNL     1       5.544  -1.794  -0.342  1.00  0.00     0.251 C 
BRANCH  15  16
HETATM   16  N   UNL     1       5.716  -1.304  -1.692  1.00  0.00    -0.288 N 
HETATM   17  C   UNL     1       4.795  -0.677  -2.495  1.00  0.00     0.027 A 
HETATM   18  C   UNL     1       5.469  -0.354  -3.652  1.00  0.00     0.052 A 
HETATM   19  C   UNL     1       3.377  -0.449  -2.117  1.00  0.00     0.070 C 
HETATM   20  C   UNL     1       6.791  -0.811  -3.457  1.00  0.00     0.024 A 
HETATM   21  C   UNL     1       7.934  -0.713  -4.393  1.00  0.00     0.070 C 
HETATM   22  N   UNL     1       6.943  -1.381  -2.257  1.00  0.00    -0.303 N 
ATOM     23  HN  UNL     1       7.791  -1.783  -1.858  1.00  0.00     0.186 HD
ENDBRANCH  15  16
ENDBRANCH   1  15
TORSDOF 5
