REMARK  7 active torsions:
REMARK  status: ('A' for Active; 'I' for Inactive)
REMARK    1  A    between atoms: C_2  and  N_3 
REMARK    2  A    between atoms: C_2  and  C_13 
REMARK    3  A    between atoms: N_3  and  C_4 
REMARK    4  A    between atoms: C_4  and  C_5 
REMARK       I    between atoms: C_5  and  N_7 
REMARK    5  A    between atoms: N_7  and  C_8 
REMARK    6  A    between atoms: C_8  and  C_9 
REMARK    7  A    between atoms: C_13  and  N_15 
ROOT
HETATM    1  N   UNL     1       2.811   1.477   0.440  1.00  0.00     0.098 N 
HETATM    2  H   UNL     1       2.422   2.089  -0.283  1.00  0.00     0.317 HD
ENDROOT
BRANCH   1   3
HETATM    3  C   UNL     1       2.420   0.076   0.133  1.00  0.00     0.241 C 
HETATM    4  C   UNL     1       0.891  -0.027   0.008  1.00  0.00     0.045 C 
BRANCH   3   5
HETATM    5  C   UNL     1       3.017  -0.999   1.098  1.00  0.00     0.136 C 
HETATM    6  C   UNL     1       2.626  -2.437   0.733  1.00  0.00     0.036 C 
BRANCH   5   7
HETATM    7  N   UNL     1       4.474  -0.895   1.192  1.00  0.00    -0.297 N 
HETATM    8  C   UNL     1       5.195  -0.611   2.320  1.00  0.00     0.112 A 
HETATM    9  C   UNL     1       6.519  -0.657   1.949  1.00  0.00     0.037 A 
HETATM   10  C   UNL     1       6.495  -0.989   0.583  1.00  0.00     0.108 A 
HETATM   11  N   UNL     1       5.253  -1.152   0.120  1.00  0.00    -0.310 N 
ATOM     12  HN  UNL     1       4.961  -1.410  -0.823  1.00  0.00     0.186 HD
ENDBRANCH   5   7
ENDBRANCH   3   5
ENDBRANCH   1   3
BRANCH   1  13
HETATM   13  C   UNL     1       2.348   1.964   1.756  1.00  0.00     0.372 C 
BRANCH  13  14
HETATM   14  C   UNL     1       2.877   3.377   2.017  1.00  0.00     0.246 C 
HETATM   15  O   UNL     1       2.246   4.214   2.651  1.00  0.00    -0.272 OA
HETATM   16  N   UNL     1       4.152   3.598   1.547  1.00  0.00    -0.351 N 
HETATM   17  H   UNL     1       4.488   2.922   0.862  1.00  0.00     0.162 HD
BRANCH  16  18
HETATM   18  C   UNL     1       4.762   4.919   1.650  1.00  0.00     0.240 C 
BRANCH  18  19
HETATM   19  C   UNL     1       4.299   5.957   0.618  1.00  0.00     0.403 C 
HETATM   20  F   UNL     1       3.460   5.430  -0.303  1.00  0.00    -0.169 F 
HETATM   21  F   UNL     1       3.674   7.004   1.200  1.00  0.00    -0.169 F 
HETATM   22  F   UNL     1       5.366   6.452  -0.057  1.00  0.00    -0.169 F 
ENDBRANCH  18  19
ENDBRANCH  16  18
ENDBRANCH  13  14
ENDBRANCH   1  13
TORSDOF 7
