REMARK  3 active torsions:
REMARK  status: ('A' for Active; 'I' for Inactive)
REMARK       I    between atoms: C_2  and  N_4 
REMARK    1  A    between atoms: C_7  and  N_10 
REMARK       I    between atoms: N_10  and  C_11 
REMARK       I    between atoms: C_11  and  N_13 
REMARK    2  A    between atoms: N_13  and  C_14 
REMARK    3  A    between atoms: C_17  and  N_21 
ROOT
HETATM    1  N   UNL     1       5.184  -3.602   2.567  1.00  0.00    -0.338 N 
HETATM    2  C   UNL     1       6.475  -3.503   3.034  1.00  0.00     0.321 C 
HETATM    3  O   UNL     1       7.431  -3.278   2.301  1.00  0.00    -0.247 OA
HETATM    4  N   UNL     1       6.548  -3.741   4.386  1.00  0.00    -0.308 N 
HETATM    5  H   UNL     1       4.444  -3.407   3.233  1.00  0.00     0.164 HD
HETATM    6  H   UNL     1       5.871  -4.412   4.719  1.00  0.00     0.170 HD
ENDROOT
BRANCH   4   7
HETATM    7  C   UNL     1       7.769  -3.670   5.090  1.00  0.00     0.051 A 
HETATM    8  C   UNL     1       8.059  -4.636   6.041  1.00  0.00     0.035 A 
HETATM    9  C   UNL     1       9.286  -4.589   6.711  1.00  0.00     0.051 A 
HETATM   10  C   UNL     1      10.184  -3.542   6.495  1.00  0.00     0.103 A 
HETATM   11  N   UNL     1       9.889  -2.593   5.579  1.00  0.00    -0.350 N 
HETATM   12  C   UNL     1       8.721  -2.680   4.890  1.00  0.00     0.119 A 
ATOM     13  HN  UNL     1      10.534  -1.822   5.407  1.00  0.00     0.166 HD
BRANCH  10  14
HETATM   14  N   UNL     1      11.378  -3.457   7.177  1.00  0.00    -0.367 N 
HETATM   15  C   UNL     1      12.189  -2.247   7.035  1.00  0.00     0.124 C 
HETATM   16  C   UNL     1      13.020  -2.179   8.318  1.00  0.00     0.021 C 
HETATM   17  C   UNL     1      12.262  -3.047   9.310  1.00  0.00     0.021 C 
HETATM   18  C   UNL     1      11.643  -4.130   8.440  1.00  0.00     0.124 C 
ENDBRANCH  10  14
ENDBRANCH   4   7
BRANCH   1  19
HETATM   19  C   UNL     1       4.893  -3.559   1.135  1.00  0.00     0.089 C 
HETATM   20  C   UNL     1       3.600  -2.805   0.821  1.00  0.00     0.045 C 
HETATM   21  C   UNL     1       2.357  -3.602   1.193  1.00  0.00     0.127 C 
HETATM   22  N   UNL     1       2.394  -4.939   0.608  1.00  0.00    -0.352 N 
HETATM   23  C   UNL     1       1.245  -5.432   0.003  1.00  0.00     0.215 C 
HETATM   24  C   UNL     1       3.587  -5.727   0.918  1.00  0.00     0.127 C 
HETATM   25  C   UNL     1       1.295  -6.837  -0.540  1.00  0.00     0.117 C 
HETATM   26  O   UNL     1       0.214  -4.768  -0.109  1.00  0.00    -0.274 OA
HETATM   27  C   UNL     1       4.860  -4.972   0.542  1.00  0.00     0.045 C 
ENDBRANCH   1  19
TORSDOF 3
