REMARK  10 active torsions:
REMARK  status: ('A' for Active; 'I' for Inactive)
REMARK    1  A    between atoms: N_5  and  C_15 
REMARK    2  A    between atoms: C_10  and  N_17 
REMARK    3  A    between atoms: C_12  and  O_20 
REMARK    4  A    between atoms: C_12  and  C_13 
REMARK    5  A    between atoms: C_13  and  N_18 
REMARK    6  A    between atoms: C_13  and  C_19 
REMARK    7  A    between atoms: C_15  and  O_21 
REMARK    8  A    between atoms: O_20  and  C_22 
REMARK    9  A    between atoms: O_21  and  C_25 
REMARK   10  A    between atoms: C_22  and  C_25 
ROOT
HETATM    1  C   UNL     1       1.854  -7.662  -1.708  1.00  0.00     0.158 A 
HETATM    2  C   UNL     1       1.296  -8.385  -2.704  1.00  0.00     0.147 A 
HETATM    3  N   UNL     1       2.653  -8.215  -0.759  1.00  0.00    -0.174 N 
ATOM      4  HN  UNL     1       3.052  -7.646  -0.012  1.00  0.00     0.186 HD
HETATM    5  N   UNL     1       1.492  -6.377  -1.835  1.00  0.00    -0.305 N 
HETATM    6  N   UNL     1       2.393 -10.307  -1.865  1.00  0.00    -0.154 N 
HETATM    7  N   UNL     1       0.531  -7.595  -3.480  1.00  0.00    -0.345 N 
ATOM      8  HN  UNL     1      -0.020  -7.856  -4.298  1.00  0.00     0.167 HD
HETATM    9  C   UNL     1       1.568  -9.743  -2.810  1.00  0.00     0.290 A 
HETATM   10  C   UNL     1       2.908  -9.558  -0.834  1.00  0.00     0.680 A 
HETATM   11  C   UNL     1       0.668  -6.364  -2.914  1.00  0.00     0.187 A 
HETATM   12  O   UNL     1       1.085 -10.415  -3.704  1.00  0.00    -0.265 OA
HETATM   13  H   UNL     1       2.607 -11.331  -1.915  1.00  0.00     0.187 HD
ENDROOT
BRANCH   5  14
HETATM   14  C   UNL     1       1.913  -5.250  -1.014  1.00  0.00     0.301 C 
BRANCH  14  15
HETATM   15  O   UNL     1       3.316  -5.120  -1.129  1.00  0.00    -0.369 OA
BRANCH  15  16
HETATM   16  C   UNL     1       3.780  -4.086  -0.288  1.00  0.00     0.196 C 
BRANCH  16  17
HETATM   17  C   UNL     1       5.295  -3.930  -0.461  1.00  0.00     0.205 C 
BRANCH  17  18
HETATM   18  O   UNL     1       5.967  -5.097  -0.120  1.00  0.00    -0.318 OA
BRANCH  18  19
HETATM   19  C   UNL     1       6.753  -5.828  -0.964  1.00  0.00     0.292 C 
HETATM   20  O   UNL     1       6.866  -5.494  -2.135  1.00  0.00    -0.263 OA
BRANCH  19  21
HETATM   21  C   UNL     1       7.510  -7.073  -0.501  1.00  0.00     0.319 C 
BRANCH  21  22
HETATM   22  N   UNL     1       8.945  -6.881  -0.717  1.00  0.00     0.092 N 
HETATM   23  H   UNL     1       9.281  -6.048  -0.182  1.00  0.00     0.313 HD
HETATM   24  H   UNL     1       9.137  -6.741  -1.735  1.00  0.00     0.313 HD
ENDBRANCH  21  22
BRANCH  21  25
HETATM   25  C   UNL     1       7.248  -7.477   0.978  1.00  0.00     0.020 C 
HETATM   26  C   UNL     1       5.779  -7.840   1.165  1.00  0.00     0.012 C 
HETATM   27  C   UNL     1       8.077  -8.718   1.380  1.00  0.00     0.012 C 
ENDBRANCH  21  25
ENDBRANCH  19  21
ENDBRANCH  18  19
ENDBRANCH  17  18
ENDBRANCH  16  17
ENDBRANCH  15  16
ENDBRANCH  14  15
ENDBRANCH   5  14
BRANCH  10  28
HETATM   28  N   UNL     1       3.683 -10.190   0.164  1.00  0.00    -0.234 N 
HETATM   29  H   UNL     1       3.875  -9.704   1.049  1.00  0.00     0.174 HD
HETATM   30  H   UNL     1       3.986 -11.168   0.061  1.00  0.00     0.174 HD
ENDBRANCH  10  28
TORSDOF 10
