REMARK  7 active torsions:
REMARK  status: ('A' for Active; 'I' for Inactive)
REMARK    1  A    between atoms: O_2  and  C_3 
REMARK    2  A    between atoms: C_3  and  C_4 
REMARK    3  A    between atoms: C_4  and  C_5 
REMARK    4  A    between atoms: C_5  and  C_6 
REMARK    5  A    between atoms: C_6  and  N_7 
REMARK       I    between atoms: N_7  and  C_8 
REMARK    6  A    between atoms: C_8  and  C_10 
REMARK    7  A    between atoms: C_16  and  N_17 
ROOT
HETATM    1  C   UNL     1       8.969   4.424  -3.795  1.00  0.00     0.075 A 
HETATM    2  C   UNL     1       8.408   5.721  -3.774  1.00  0.00     0.022 A 
HETATM    3  C   UNL     1       8.843   6.699  -4.656  1.00  0.00     0.018 A 
HETATM    4  C   UNL     1       9.827   6.350  -5.551  1.00  0.00     0.089 A 
HETATM    5  N   UNL     1      10.350   5.111  -5.640  1.00  0.00    -0.352 N 
ATOM      6  HN  UNL     1      11.067   4.907  -6.337  1.00  0.00     0.166 HD
HETATM    7  C   UNL     1       9.917   4.130  -4.794  1.00  0.00     0.119 A 
ENDROOT
BRANCH   1   8
HETATM    8  C   UNL     1       8.454   3.430  -2.793  1.00  0.00     0.255 C 
HETATM    9  N   UNL     1       8.022   3.977  -1.593  1.00  0.00    -0.357 N 
HETATM   10  H   UNL     1       8.216   4.948  -1.398  1.00  0.00     0.162 HD
HETATM   11  O   UNL     1       8.427   2.224  -3.001  1.00  0.00    -0.268 OA
BRANCH   9  12
HETATM   12  C   UNL     1       7.628   3.165  -0.456  1.00  0.00     0.123 C 
BRANCH  12  13
HETATM   13  C   UNL     1       8.820   2.811   0.431  1.00  0.00     0.022 C 
BRANCH  13  14
HETATM   14  C   UNL     1       9.497   4.050   1.031  1.00  0.00     0.028 C 
BRANCH  14  15
HETATM   15  C   UNL     1      10.668   3.678   1.938  1.00  0.00     0.167 C 
BRANCH  15  16
HETATM   16  O   UNL     1      11.650   2.989   1.170  1.00  0.00    -0.396 OA
HETATM   17  C   UNL     1      12.752   2.578   1.966  1.00  0.00     0.201 C 
ENDBRANCH  15  16
ENDBRANCH  14  15
ENDBRANCH  13  14
ENDBRANCH  12  13
ENDBRANCH   9  12
ENDBRANCH   1   8
BRANCH   7  18
HETATM   18  N   UNL     1      10.370   2.846  -5.071  1.00  0.00    -0.362 N 
HETATM   19  C   UNL     1      10.840   2.627  -6.452  1.00  0.00     0.150 C 
HETATM   20  C   UNL     1      10.889   1.114  -6.708  1.00  0.00     0.187 C 
HETATM   21  O   UNL     1      11.771   0.458  -5.779  1.00  0.00    -0.388 OA
HETATM   22  C   UNL     1      11.333   0.695  -4.424  1.00  0.00     0.187 C 
HETATM   23  C   UNL     1      11.271   2.203  -4.097  1.00  0.00     0.150 C 
ENDBRANCH   7  18
TORSDOF 7
