REMARK  8 active torsions:
REMARK  status: ('A' for Active; 'I' for Inactive)
REMARK    1  A    between atoms: C_2  and  C_3 
REMARK    2  A    between atoms: C_3  and  N_4 
REMARK    3  A    between atoms: C_5  and  N_6 
REMARK    4  A    between atoms: C_7  and  N_8 
REMARK    5  A    between atoms: N_8  and  C_9 
REMARK       I    between atoms: N_8  and  C_13 
REMARK    6  A    between atoms: C_9  and  C_10 
REMARK    7  A    between atoms: C_10  and  O_11 
REMARK    8  A    between atoms: C_13  and  C_15 
ROOT
HETATM    1  N   UNL     1       4.315  -0.883   1.027  1.00  0.00    -0.288 N 
HETATM    2  C   UNL     1       4.987  -2.105   0.906  1.00  0.00     0.117 C 
HETATM    3  C   UNL     1       6.344  -2.132   1.008  1.00  0.00     0.145 C 
HETATM    4  C   UNL     1       7.066  -0.844   1.218  1.00  0.00     0.279 C 
HETATM    5  O   UNL     1       8.217  -0.817   1.643  1.00  0.00    -0.265 OA
HETATM    6  N   UNL     1       6.343   0.281   0.995  1.00  0.00    -0.273 N 
HETATM    7  C   UNL     1       4.998   0.325   1.184  1.00  0.00     0.330 C 
HETATM    8  O   UNL     1       4.470   1.394   1.485  1.00  0.00    -0.246 OA
HETATM    9  H   UNL     1       6.814   1.153   1.186  1.00  0.00     0.173 HD
ENDROOT
BRANCH   3  10
HETATM   10  N   UNL     1       7.064  -3.329   1.094  1.00  0.00    -0.301 N 
HETATM   11  C   UNL     1       7.623  -3.787   2.318  1.00  0.00     0.332 C 
HETATM   12  O   UNL     1       8.444  -4.721   2.302  1.00  0.00    -0.263 OA
BRANCH  10  13
HETATM   13  C   UNL     1       7.811  -3.823  -0.076  1.00  0.00     0.159 C 
BRANCH  13  14
HETATM   14  C   UNL     1       7.390  -3.414  -1.488  1.00  0.00     0.187 C 
BRANCH  14  15
HETATM   15  O   UNL     1       7.822  -2.085  -1.787  1.00  0.00    -0.394 OA
HETATM   16  C   UNL     1       7.651  -1.803  -3.174  1.00  0.00     0.201 C 
ENDBRANCH  14  15
ENDBRANCH  13  14
ENDBRANCH  10  13
BRANCH  11  17
HETATM   17  C   UNL     1       7.145  -3.225   3.678  1.00  0.00     0.472 C 
HETATM   18  F   UNL     1       6.288  -2.170   3.616  1.00  0.00    -0.162 F 
HETATM   19  F   UNL     1       6.482  -4.187   4.388  1.00  0.00    -0.162 F 
HETATM   20  F   UNL     1       8.184  -2.831   4.467  1.00  0.00    -0.162 F 
ENDBRANCH  11  17
ENDBRANCH   3  10
BRANCH   2  21
HETATM   21  N   UNL     1       4.292  -3.303   0.756  1.00  0.00    -0.286 NA
HETATM   22  H   UNL     1       3.484  -3.362   1.367  1.00  0.00     0.125 HD
HETATM   23  H   UNL     1       4.892  -4.114   0.882  1.00  0.00     0.125 HD
ENDBRANCH   2  21
BRANCH   1  24
HETATM   24  C   UNL     1       2.847  -0.792   1.069  1.00  0.00     0.135 C 
BRANCH  24  25
HETATM   25  C   UNL     1       2.241   0.072  -0.047  1.00  0.00     0.016 C 
HETATM   26  C   UNL     1       2.637  -0.404  -1.434  1.00  0.00     0.006 C 
ENDBRANCH  24  25
ENDBRANCH   1  24
TORSDOF 8
