REMARK  5 active torsions:
REMARK  status: ('A' for Active; 'I' for Inactive)
REMARK    1  A    between atoms: C_2  and  N_3 
REMARK    2  A    between atoms: N_3  and  C_4 
REMARK    3  A    between atoms: N_3  and  C_6 
REMARK    4  A    between atoms: C_9  and  N_10 
REMARK       I    between atoms: N_10  and  C_11 
REMARK       I    between atoms: C_11  and  N_13 
REMARK    5  A    between atoms: N_13  and  C_14 
ROOT
HETATM    1  N   UNL     1       8.621  -1.912   0.987  1.00  0.00    -0.308 N 
HETATM    2  C   UNL     1       9.569  -1.051   0.481  1.00  0.00     0.321 C 
HETATM    3  O   UNL     1       9.356   0.071   0.038  1.00  0.00    -0.247 OA
HETATM    4  N   UNL     1      10.846  -1.566   0.516  1.00  0.00    -0.337 N 
HETATM    5  H   UNL     1       8.882  -2.879   1.093  1.00  0.00     0.170 HD
HETATM    6  H   UNL     1      10.959  -2.561   0.641  1.00  0.00     0.164 HD
ENDROOT
BRANCH   1   7
HETATM    7  C   UNL     1       7.248  -1.591   1.127  1.00  0.00     0.051 A 
HETATM    8  C   UNL     1       6.761  -0.292   1.128  1.00  0.00     0.035 A 
HETATM    9  C   UNL     1       5.387  -0.057   1.200  1.00  0.00     0.051 A 
HETATM   10  C   UNL     1       4.502  -1.129   1.267  1.00  0.00     0.102 A 
HETATM   11  N   UNL     1       4.961  -2.400   1.314  1.00  0.00    -0.350 N 
HETATM   12  C   UNL     1       6.304  -2.602   1.260  1.00  0.00     0.119 A 
ATOM     13  HN  UNL     1       4.316  -3.187   1.388  1.00  0.00     0.166 HD
BRANCH  10  14
HETATM   14  N   UNL     1       3.118  -0.872   1.213  1.00  0.00    -0.368 N 
BRANCH  14  15
HETATM   15  C   UNL     1       2.359  -2.003   0.665  1.00  0.00     0.120 C 
HETATM   16  C   UNL     1       0.940  -1.617   0.271  1.00  0.00     0.026 C 
ENDBRANCH  14  15
BRANCH  14  17
HETATM   17  C   UNL     1       2.591  -0.147   2.379  1.00  0.00     0.120 C 
HETATM   18  C   UNL     1       2.562  -0.977   3.656  1.00  0.00     0.026 C 
ENDBRANCH  14  17
ENDBRANCH  10  14
ENDBRANCH   1   7
BRANCH   4  19
HETATM   19  C   UNL     1      11.985  -0.808  -0.005  1.00  0.00     0.101 C 
HETATM   20  C   UNL     1      12.218   0.538   0.721  1.00  0.00     0.041 C 
HETATM   21  C   UNL     1      12.898   1.529  -0.221  1.00  0.00     0.142 C 
HETATM   22  S   UNL     1      13.138   0.698  -1.771  1.00  0.00     0.146 S 
HETATM   23  O   UNL     1      12.733   1.561  -2.859  1.00  0.00    -0.228 OA
HETATM   24  O   UNL     1      14.435   0.052  -1.746  1.00  0.00    -0.228 OA
HETATM   25  C   UNL     1      11.904  -0.543  -1.506  1.00  0.00     0.165 C 
ENDBRANCH   4  19
TORSDOF 5
