REMARK  3 active torsions:
REMARK  status: ('A' for Active; 'I' for Inactive)
REMARK    1  A    between atoms: N_1  and  S_2 
REMARK    2  A    between atoms: S_2  and  C_5 
REMARK    3  A    between atoms: C_11  and  N_12 
ROOT
HETATM    1  C   UNL     1       3.248  -1.154   1.241  1.00  0.00     0.118 A 
HETATM    2  C   UNL     1       3.766  -0.904   2.531  1.00  0.00     0.030 A 
HETATM    3  C   UNL     1       3.990  -1.945   3.413  1.00  0.00     0.019 A 
HETATM    4  C   UNL     1       3.704  -3.212   2.965  1.00  0.00     0.090 A 
HETATM    5  N   UNL     1       3.259  -3.482   1.717  1.00  0.00    -0.351 N 
ATOM      6  HN  UNL     1       3.101  -4.450   1.436  1.00  0.00     0.166 HD
HETATM    7  C   UNL     1       3.019  -2.474   0.830  1.00  0.00     0.126 A 
ENDROOT
BRANCH   1   8
HETATM    8  S   UNL     1       2.703   0.285   0.362  1.00  0.00     0.243 S 
HETATM    9  O   UNL     1       3.383   0.405  -0.905  1.00  0.00    -0.206 OA
HETATM   10  O   UNL     1       2.668   1.400   1.282  1.00  0.00    -0.206 OA
BRANCH   8  11
HETATM   11  N   UNL     1       1.082   0.002   0.039  1.00  0.00    -0.225 NA
HETATM   12  H   UNL     1       0.910   0.045  -0.962  1.00  0.00     0.136 HD
HETATM   13  H   UNL     1       0.506   0.638   0.592  1.00  0.00     0.136 HD
ENDBRANCH   8  11
ENDBRANCH   1   8
BRANCH   7  14
HETATM   14  N   UNL     1       2.524  -2.883  -0.390  1.00  0.00    -0.362 N 
HETATM   15  C   UNL     1       1.782  -4.159  -0.464  1.00  0.00     0.150 C 
HETATM   16  C   UNL     1       2.495  -5.199  -1.339  1.00  0.00     0.187 C 
HETATM   17  O   UNL     1       2.774  -4.667  -2.642  1.00  0.00    -0.388 OA
HETATM   18  C   UNL     1       3.671  -3.560  -2.517  1.00  0.00     0.187 C 
HETATM   19  C   UNL     1       3.088  -2.420  -1.666  1.00  0.00     0.150 C 
ENDBRANCH   7  14
TORSDOF 3
