REMARK  5 active torsions:
REMARK  status: ('A' for Active; 'I' for Inactive)
REMARK    1  A    between atoms: N_5  and  C_6 
REMARK    2  A    between atoms: C_6  and  C_7 
REMARK    3  A    between atoms: C_7  and  O_8 
REMARK    4  A    between atoms: C_7  and  C_9 
REMARK    5  A    between atoms: C_9  and  N_10 
ROOT
HETATM    1  C   UNL     1       5.183   0.340  -3.890  1.00  0.00     0.164 C 
ENDROOT
BRANCH   1   2
HETATM    2  C   UNL     1       4.605  -0.588  -2.793  1.00  0.00     0.305 C 
BRANCH   2   3
HETATM    3  N   UNL     1       3.131  -0.732  -2.770  1.00  0.00     0.091 N 
HETATM    4  C   UNL     1       2.398   0.527  -2.548  1.00  0.00     0.273 C 
HETATM    5  C   UNL     1       2.640   1.124  -1.158  1.00  0.00     0.034 C 
HETATM    6  C   UNL     1       2.257   0.136  -0.046  1.00  0.00    -0.015 C 
HETATM    7  C   UNL     1       0.737   0.057   0.115  1.00  0.00     0.010 C 
HETATM    8  C   UNL     1       2.871  -1.248  -0.314  1.00  0.00     0.034 C 
HETATM    9  C   UNL     1       2.698  -1.718  -1.765  1.00  0.00     0.273 C 
ENDBRANCH   2   3
ENDBRANCH   1   2
BRANCH   1  10
HETATM   10  O   UNL     1       4.753   1.694  -3.694  1.00  0.00    -0.392 OA
HETATM   11  H   UNL     1       5.349   2.129  -3.052  1.00  0.00     0.210 HD
ENDBRANCH   1  10
BRANCH   1  12
HETATM   12  C   UNL     1       6.731   0.287  -3.887  1.00  0.00     0.166 C 
BRANCH  12  13
HETATM   13  N   UNL     1       7.277   1.194  -4.891  1.00  0.00    -0.307 N 
HETATM   14  C   UNL     1       7.582   0.743  -6.144  1.00  0.00     0.186 C 
HETATM   15  N   UNL     1       7.879   1.493  -7.146  1.00  0.00    -0.355 N 
HETATM   16  C   UNL     1       7.799   2.856  -6.962  1.00  0.00     0.017 C 
ATOM     17  HN  UNL     1       8.162   1.094  -8.041  1.00  0.00     0.166 HD
HETATM   18  C   UNL     1       7.993   3.662  -8.219  1.00  0.00     0.069 C 
HETATM   19  C   UNL     1       7.521   3.437  -5.781  1.00  0.00     0.028 C 
HETATM   20  C   UNL     1       7.312   4.897  -5.524  1.00  0.00     0.056 C 
HETATM   21  C   UNL     1       7.318   2.545  -4.611  1.00  0.00     0.256 C 
HETATM   22  O   UNL     1       7.144   3.004  -3.482  1.00  0.00    -0.267 OA
ENDBRANCH  12  13
ENDBRANCH   1  12
TORSDOF 5
