REMARK  5 active torsions:
REMARK  status: ('A' for Active; 'I' for Inactive)
REMARK    1  A    between atoms: C_5  and  N_6 
REMARK    2  A    between atoms: N_6  and  C_7 
REMARK    3  A    between atoms: C_7  and  C_8 
REMARK    4  A    between atoms: C_8  and  N_9 
REMARK    5  A    between atoms: C_8  and  C_12 
ROOT
HETATM    1  C   UNL     1       4.981   0.010  -3.819  1.00  0.00     0.310 C 
ENDROOT
BRANCH   1   2
HETATM    2  N   UNL     1       4.353  -0.827  -2.796  1.00  0.00     0.090 N 
HETATM    3  H   UNL     1       4.582  -1.787  -3.033  1.00  0.00     0.316 HD
BRANCH   2   4
HETATM    4  C   UNL     1       2.888  -0.742  -2.731  1.00  0.00     0.224 C 
HETATM    5  C   UNL     1       2.367   0.675  -2.426  1.00  0.00     0.036 C 
HETATM    6  C   UNL     1       2.773   1.159  -1.033  1.00  0.00     0.006 C 
HETATM    7  C   UNL     1       2.326   0.195   0.074  1.00  0.00    -0.018 C 
HETATM    8  C   UNL     1       0.811   0.252   0.291  1.00  0.00     0.010 C 
HETATM    9  C   UNL     1       2.792  -1.239  -0.224  1.00  0.00     0.010 C 
HETATM   10  C   UNL     1       2.385  -1.721  -1.630  1.00  0.00     0.015 C 
HETATM   11  C   UNL     1       2.849  -3.169  -1.842  1.00  0.00     0.012 C 
ENDBRANCH   2   4
ENDBRANCH   1   2
BRANCH   1  12
HETATM   12  C   UNL     1       6.546  -0.124  -3.885  1.00  0.00     0.285 C 
BRANCH  12  13
HETATM   13  N   UNL     1       7.163  -1.452  -4.134  1.00  0.00     0.090 N 
HETATM   14  C   UNL     1       7.014  -2.413  -3.046  1.00  0.00     0.310 C 
HETATM   15  C   UNL     1       6.835  -2.070  -5.413  1.00  0.00     0.310 C 
ENDBRANCH  12  13
BRANCH  12  16
HETATM   16  C   UNL     1       7.066   0.874  -4.897  1.00  0.00     0.011 A 
HETATM   17  C   UNL     1       7.965   1.948  -4.679  1.00  0.00     0.118 A 
HETATM   18  N   UNL     1       8.170   2.682  -5.778  1.00  0.00    -0.310 N 
HETATM   19  N   UNL     1       7.411   2.080  -6.706  1.00  0.00    -0.308 N 
ATOM     20  HN  UNL     1       8.763   3.505  -5.885  1.00  0.00     0.186 HD
HETATM   21  C   UNL     1       7.369   2.564  -8.063  1.00  0.00     0.177 C 
HETATM   22  C   UNL     1       6.708   1.017  -6.225  1.00  0.00     0.120 A 
ENDBRANCH  12  16
ENDBRANCH   1  12
TORSDOF 5
