REMARK  4 active torsions:
REMARK  status: ('A' for Active; 'I' for Inactive)
REMARK    1  A    between atoms: C_2  and  N_3 
REMARK    2  A    between atoms: N_4  and  C_15 
REMARK    3  A    between atoms: C_15  and  C_19 
REMARK    4  A    between atoms: C_19  and  O_27 
ROOT
HETATM    1  C   UNL     1       0.339  -0.773   0.061  1.00  0.00     0.117 A 
HETATM    2  C   UNL     1      -0.826  -1.582   0.065  1.00  0.00     0.115 A 
HETATM    3  N   UNL     1       1.408   1.133  -0.003  1.00  0.00    -0.324 N 
HETATM    4  C   UNL     1       0.151   0.597   0.011  1.00  0.00     0.140 A 
HETATM    5  N   UNL     1       1.690  -1.072   0.080  1.00  0.00    -0.346 N 
ATOM      6  HN  UNL     1       2.120  -1.996   0.104  1.00  0.00     0.167 HD
HETATM    7  C   UNL     1       2.300   0.095   0.060  1.00  0.00     0.185 A 
HETATM    8  N   UNL     1      -2.028  -0.938   0.053  1.00  0.00    -0.341 N 
ATOM      9  HN  UNL     1      -2.898  -1.469   0.082  1.00  0.00     0.167 HD
HETATM   10  N   UNL     1      -1.013   1.265  -0.030  1.00  0.00    -0.336 N 
ATOM     11  HN  UNL     1      -1.098   2.280  -0.079  1.00  0.00     0.168 HD
HETATM   12  C   UNL     1      -2.052   0.410   0.002  1.00  0.00     0.183 A 
ENDROOT
BRANCH   2  13
HETATM   13  N   UNL     1      -0.758  -2.974   0.032  1.00  0.00    -0.257 NA
HETATM   14  C   UNL     1      -1.887  -3.693  -0.610  1.00  0.00     0.122 C 
HETATM   15  C   UNL     1      -2.259  -3.176  -2.021  1.00  0.00     0.294 C 
HETATM   16  C   UNL     1      -1.438  -5.176  -0.732  1.00  0.00     0.143 C 
HETATM   17  N   UNL     1      -3.265  -3.996  -2.728  1.00  0.00     0.086 N 
HETATM   18  C   UNL     1      -2.818  -5.390  -2.825  1.00  0.00     0.274 C 
HETATM   19  C   UNL     1      -4.589  -3.881  -2.114  1.00  0.00     0.310 C 
HETATM   20  C   UNL     1      -2.461  -6.022  -1.482  1.00  0.00     0.064 C 
HETATM   21  O   UNL     1      -1.229  -5.747   0.578  1.00  0.00    -0.383 OA
HETATM   22  C   UNL     1      -0.192  -5.029   1.275  1.00  0.00     0.183 C 
HETATM   23  C   UNL     1      -0.495  -3.522   1.383  1.00  0.00     0.124 C 
ENDBRANCH   2  13
BRANCH   3  24
HETATM   24  C   UNL     1       1.721   2.544   0.083  1.00  0.00     0.169 C 
BRANCH  24  25
HETATM   25  C   UNL     1       2.083   3.245  -1.250  1.00  0.00     0.078 C 
HETATM   26  C   UNL     1       2.438   4.715  -0.952  1.00  0.00     0.066 C 
HETATM   27  C   UNL     1       1.197   5.569  -0.750  1.00  0.00     0.170 C 
HETATM   28  O   UNL     1       0.386   5.515  -1.918  1.00  0.00    -0.391 OA
HETATM   29  C   UNL     1      -0.119   4.205  -2.172  1.00  0.00     0.170 C 
HETATM   30  C   UNL     1       1.007   3.193  -2.352  1.00  0.00     0.066 C 
BRANCH  25  31
HETATM   31  O   UNL     1       3.288   2.632  -1.745  1.00  0.00    -0.388 OA
HETATM   32  H   UNL     1       3.070   1.749  -2.094  1.00  0.00     0.210 HD
ENDBRANCH  25  31
ENDBRANCH  24  25
ENDBRANCH   3  24
TORSDOF 4
