REMARK  6 active torsions:
REMARK  status: ('A' for Active; 'I' for Inactive)
REMARK    1  A    between atoms: C_2  and  N_3 
REMARK    2  A    between atoms: C_2  and  C_9 
REMARK    3  A    between atoms: N_3  and  C_4 
REMARK    4  A    between atoms: C_4  and  C_5 
REMARK    5  A    between atoms: C_5  and  O_8 
REMARK    6  A    between atoms: C_9  and  N_11 
ROOT
HETATM    1  C   UNL     1       0.839   0.073   0.110  1.00  0.00     0.045 C 
HETATM    2  C   UNL     1       2.372   0.055  -0.004  1.00  0.00     0.240 C 
ENDROOT
BRANCH   2   3
HETATM    3  N   UNL     1       2.731  -1.315  -0.457  1.00  0.00     0.092 N 
HETATM    4  H   UNL     1       2.297  -1.486  -1.364  1.00  0.00     0.316 HD
BRANCH   3   5
HETATM    5  C   UNL     1       4.182  -1.552  -0.530  1.00  0.00     0.306 C 
BRANCH   5   6
HETATM    6  C   UNL     1       4.523  -2.978  -1.044  1.00  0.00     0.077 C 
HETATM    7  C   UNL     1       4.007  -3.229  -2.464  1.00  0.00     0.047 C 
HETATM    8  C   UNL     1       6.038  -3.192  -1.001  1.00  0.00     0.047 C 
BRANCH   6   9
HETATM    9  O   UNL     1       3.915  -3.941  -0.179  1.00  0.00    -0.389 OA
HETATM   10  H   UNL     1       3.024  -3.590   0.018  1.00  0.00     0.210 HD
ENDBRANCH   6   9
ENDBRANCH   5   6
ENDBRANCH   3   5
ENDBRANCH   2   3
BRANCH   2  11
HETATM   11  C   UNL     1       2.923   1.212  -0.897  1.00  0.00     0.136 C 
HETATM   12  C   UNL     1       2.496   1.122  -2.368  1.00  0.00     0.036 C 
BRANCH  11  13
HETATM   13  N   UNL     1       2.657   2.532  -0.320  1.00  0.00    -0.297 N 
HETATM   14  C   UNL     1       3.484   3.231   0.516  1.00  0.00     0.112 A 
HETATM   15  C   UNL     1       2.857   4.429   0.766  1.00  0.00     0.037 A 
HETATM   16  C   UNL     1       1.661   4.361   0.031  1.00  0.00     0.108 A 
HETATM   17  N   UNL     1       1.536   3.211  -0.634  1.00  0.00    -0.310 N 
ATOM     18  HN  UNL     1       0.770   2.915  -1.239  1.00  0.00     0.186 HD
ENDBRANCH  11  13
ENDBRANCH   2  11
TORSDOF 6
