REMARK  7 active torsions:
REMARK  status: ('A' for Active; 'I' for Inactive)
REMARK    1  A    between atoms: O_2  and  C_3 
REMARK    2  A    between atoms: C_3  and  C_4 
REMARK    3  A    between atoms: C_4  and  N_5 
REMARK    4  A    between atoms: C_6  and  S_7 
REMARK    5  A    between atoms: S_7  and  C_8 
REMARK    6  A    between atoms: C_8  and  C_9 
REMARK    7  A    between atoms: C_13  and  N_14 
ROOT
HETATM    1  N   UNL     1       4.841   1.980  -1.920  1.00  0.00    -0.324 N 
HETATM    2  C   UNL     1       4.622   3.328  -1.742  1.00  0.00     0.148 A 
HETATM    3  N   UNL     1       5.101   4.037  -2.739  1.00  0.00    -0.335 N 
ATOM      4  HN  UNL     1       5.072   5.051  -2.846  1.00  0.00     0.168 HD
HETATM    5  C   UNL     1       5.649   3.125  -3.606  1.00  0.00     0.061 A 
HETATM    6  C   UNL     1       6.279   3.333  -4.843  1.00  0.00     0.032 A 
HETATM    7  C   UNL     1       6.768   2.229  -5.553  1.00  0.00     0.002 A 
HETATM    8  C   UNL     1       6.630   0.939  -5.045  1.00  0.00     0.002 A 
HETATM    9  C   UNL     1       5.988   0.709  -3.824  1.00  0.00     0.032 A 
HETATM   10  C   UNL     1       5.511   1.826  -3.121  1.00  0.00     0.063 A 
ENDROOT
BRANCH   2  11
HETATM   11  S   UNL     1       3.775   3.997  -0.381  1.00  0.00    -0.088 SA
BRANCH  11  12
HETATM   12  C   UNL     1       3.913   5.789  -0.705  1.00  0.00     0.139 C 
BRANCH  12  13
HETATM   13  C   UNL     1       3.152   6.612   0.318  1.00  0.00     0.020 A 
HETATM   14  C   UNL     1       1.817   6.945   0.099  1.00  0.00     0.026 A 
HETATM   15  C   UNL     1       1.134   7.668   1.079  1.00  0.00     0.005 A 
HETATM   16  C   UNL     1       1.803   8.037   2.237  1.00  0.00     0.042 A 
HETATM   17  C   UNL     1       3.140   7.694   2.372  1.00  0.00     0.077 A 
HETATM   18  N   UNL     1       3.814   6.989   1.445  1.00  0.00    -0.350 N 
ATOM     19  HN  UNL     1       4.794   6.744   1.584  1.00  0.00     0.167 HD
BRANCH  17  20
HETATM   20  N   UNL     1       3.838   8.042   3.528  1.00  0.00    -0.289 NA
HETATM   21  H   UNL     1       3.763   9.032   3.726  1.00  0.00     0.125 HD
HETATM   22  H   UNL     1       4.802   7.752   3.387  1.00  0.00     0.125 HD
ENDBRANCH  17  20
ENDBRANCH  12  13
ENDBRANCH  11  12
ENDBRANCH   2  11
BRANCH   1  23
HETATM   23  C   UNL     1       4.383   0.875  -1.099  1.00  0.00     0.157 C 
BRANCH  23  24
HETATM   24  C   UNL     1       5.506   0.051  -0.471  1.00  0.00     0.187 C 
BRANCH  24  25
HETATM   25  O   UNL     1       4.925  -1.042   0.246  1.00  0.00    -0.394 OA
HETATM   26  C   UNL     1       5.917  -1.918   0.768  1.00  0.00     0.201 C 
ENDBRANCH  24  25
ENDBRANCH  23  24
ENDBRANCH   1  23
TORSDOF 7
