REMARK  6 active torsions:
REMARK  status: ('A' for Active; 'I' for Inactive)
REMARK    1  A    between atoms: C_8  and  C_9 
REMARK    2  A    between atoms: C_9  and  C_10 
REMARK    3  A    between atoms: C_10  and  N_11 
REMARK       I    between atoms: N_11  and  C_12 
REMARK    4  A    between atoms: C_12  and  C_14 
REMARK    5  A    between atoms: C_14  and  C_15 
REMARK    6  A    between atoms: C_15  and  C_16 
ROOT
HETATM    1  N   UNL     1       0.650  -3.815  -0.737  1.00  0.00    -0.361 N 
HETATM    2  C   UNL     1      -0.567  -4.057  -0.143  1.00  0.00     0.217 C 
HETATM    3  O   UNL     1      -1.248  -3.186   0.386  1.00  0.00    -0.274 OA
HETATM    4  H   UNL     1       1.212  -4.587  -1.076  1.00  0.00     0.162 HD
ENDROOT
BRANCH   1   5
HETATM    5  C   UNL     1       1.228  -2.487  -0.815  1.00  0.00     0.130 C 
BRANCH   5   6
HETATM    6  C   UNL     1       2.031  -2.129   0.437  1.00  0.00     0.098 C 
BRANCH   6   7
HETATM    7  C   UNL     1       3.262  -2.960   0.556  1.00  0.00     0.100 A 
HETATM    8  N   UNL     1       3.632  -3.702   1.648  1.00  0.00    -0.335 N 
HETATM    9  C   UNL     1       2.923  -3.858   2.889  1.00  0.00     0.158 C 
HETATM   10  C   UNL     1       4.824  -4.276   1.334  1.00  0.00     0.200 A 
HETATM   11  N   UNL     1       5.168  -3.934   0.116  1.00  0.00    -0.295 N 
HETATM   12  N   UNL     1       4.189  -3.104  -0.373  1.00  0.00    -0.288 N 
ATOM     13  HN  UNL     1       6.009  -4.230  -0.378  1.00  0.00     0.187 HD
ATOM     14  HN  UNL     1       4.180  -2.672  -1.297  1.00  0.00     0.188 HD
ENDBRANCH   6   7
ENDBRANCH   5   6
ENDBRANCH   1   5
BRANCH   2  15
HETATM   15  C   UNL     1      -0.933  -5.525  -0.147  1.00  0.00     0.103 C 
BRANCH  15  16
HETATM   16  C   UNL     1      -2.441  -5.741  -0.203  1.00  0.00     0.014 C 
BRANCH  16  17
HETATM   17  C   UNL     1      -2.868  -7.216  -0.255  1.00  0.00    -0.014 C 
HETATM   18  C   UNL     1      -2.256  -7.981  -1.439  1.00  0.00     0.004 C 
HETATM   19  C   UNL     1      -2.856  -9.380  -1.537  1.00  0.00     0.000 C 
HETATM   20  C   UNL     1      -2.700 -10.163  -0.233  1.00  0.00     0.000 C 
HETATM   21  C   UNL     1      -3.156  -9.376   0.995  1.00  0.00     0.000 C 
HETATM   22  C   UNL     1      -2.550  -7.973   1.042  1.00  0.00     0.004 C 
ENDBRANCH  16  17
ENDBRANCH  15  16
ENDBRANCH   2  15
TORSDOF 6
