REMARK  6 active torsions:
REMARK  status: ('A' for Active; 'I' for Inactive)
REMARK    1  A    between atoms: C_2  and  C_3 
REMARK    2  A    between atoms: C_2  and  C_17 
REMARK    3  A    between atoms: C_3  and  N_4 
REMARK       I    between atoms: N_4  and  C_5 
REMARK    4  A    between atoms: C_5  and  C_7 
REMARK    5  A    between atoms: C_7  and  C_10 
REMARK    6  A    between atoms: C_17  and  N_18 
ROOT
HETATM    1  N   UNL     1       2.364   2.336   1.111  1.00  0.00    -0.360 N 
HETATM    2  C   UNL     1       3.398   3.247   1.131  1.00  0.00     0.230 C 
HETATM    3  O   UNL     1       4.563   2.911   1.332  1.00  0.00    -0.272 OA
HETATM    4  H   UNL     1       1.431   2.658   0.885  1.00  0.00     0.162 HD
ENDROOT
BRANCH   1   5
HETATM    5  C   UNL     1       2.560   0.914   1.357  1.00  0.00     0.128 C 
BRANCH   5   6
HETATM    6  C   UNL     1       2.266   0.069   0.106  1.00  0.00     0.028 C 
HETATM    7  C   UNL     1       0.790   0.217  -0.304  1.00  0.00     0.013 C 
BRANCH   6   8
HETATM    8  C   UNL     1       2.555  -1.436   0.325  1.00  0.00     0.278 C 
BRANCH   8   9
HETATM    9  N   UNL     1       3.906  -1.803   0.777  1.00  0.00     0.092 N 
HETATM   10  C   UNL     1       4.990  -1.435  -0.162  1.00  0.00     0.298 C 
HETATM   11  C   UNL     1       5.057  -2.305  -1.430  1.00  0.00     0.198 C 
HETATM   12  O   UNL     1       5.139  -3.702  -1.115  1.00  0.00    -0.388 OA
HETATM   13  C   UNL     1       4.047  -4.102  -0.280  1.00  0.00     0.198 C 
HETATM   14  C   UNL     1       4.000  -3.267   1.013  1.00  0.00     0.298 C 
ENDBRANCH   8   9
ENDBRANCH   6   8
ENDBRANCH   5   6
ENDBRANCH   1   5
BRANCH   2  15
HETATM   15  C   UNL     1       2.999   4.725   0.853  1.00  0.00     0.062 C 
HETATM   16  C   UNL     1       1.927   5.150   1.882  1.00  0.00     0.030 C 
HETATM   17  C   UNL     1       4.233   5.625   1.109  1.00  0.00     0.030 C 
BRANCH  15  18
HETATM   18  C   UNL     1       2.563   4.897  -0.608  1.00  0.00    -0.026 A 
HETATM   19  C   UNL     1       3.427   4.544  -1.659  1.00  0.00     0.011 A 
HETATM   20  C   UNL     1       3.051   4.746  -2.984  1.00  0.00     0.018 A 
HETATM   21  C   UNL     1       1.804   5.286  -3.234  1.00  0.00     0.087 A 
HETATM   22  N   UNL     1       0.932   5.624  -2.264  1.00  0.00    -0.375 N 
HETATM   23  C   UNL     1       1.332   5.430  -0.985  1.00  0.00     0.096 A 
ATOM     24  HN  UNL     1       0.013   6.008  -2.483  1.00  0.00     0.164 HD
ENDBRANCH  15  18
ENDBRANCH   2  15
TORSDOF 6
