REMARK  5 active torsions:
REMARK  status: ('A' for Active; 'I' for Inactive)
REMARK       I    between atoms: N_4  and  C_8 
REMARK    1  A    between atoms: C_8  and  C_10 
REMARK    2  A    between atoms: C_10  and  N_11 
REMARK    3  A    between atoms: N_11  and  C_12 
REMARK    4  A    between atoms: C_12  and  C_13 
REMARK    5  A    between atoms: C_13  and  N_14 
ROOT
HETATM    1  N   UNL     1       0.670   3.436  -3.865  1.00  0.00     0.093 N 
HETATM    2  H   UNL     1      -0.152   2.895  -4.150  1.00  0.00     0.316 HD
ENDROOT
BRANCH   1   3
HETATM    3  C   UNL     1       1.303   2.703  -2.754  1.00  0.00     0.372 C 
BRANCH   3   4
HETATM    4  C   UNL     1       1.751   1.315  -3.222  1.00  0.00     0.248 C 
HETATM    5  N   UNL     1       2.971   1.202  -3.866  1.00  0.00    -0.346 N 
HETATM    6  C   UNL     1       3.884   2.297  -4.202  1.00  0.00     0.157 C 
HETATM    7  C   UNL     1       3.550  -0.118  -4.101  1.00  0.00     0.152 C 
HETATM    8  C   UNL     1       5.211   2.141  -3.436  1.00  0.00     0.135 C 
HETATM    9  C   UNL     1       5.080   2.459  -1.951  1.00  0.00     0.041 C 
HETATM   10  O   UNL     1       5.779   0.830  -3.644  1.00  0.00    -0.383 OA
HETATM   11  C   UNL     1       4.872  -0.245  -3.334  1.00  0.00     0.188 C 
HETATM   12  O   UNL     1       1.032   0.337  -3.001  1.00  0.00    -0.271 OA
ENDBRANCH   3   4
ENDBRANCH   1   3
BRANCH   1  13
HETATM   13  C   UNL     1       0.225   4.773  -3.438  1.00  0.00     0.291 C 
BRANCH  13  14
HETATM   14  C   UNL     1       1.386   5.731  -3.156  1.00  0.00     0.178 C 
BRANCH  14  15
HETATM   15  N   UNL     1       0.916   7.046  -2.772  1.00  0.00    -0.302 N 
HETATM   16  C   UNL     1       0.730   8.119  -3.593  1.00  0.00     0.118 A 
HETATM   17  C   UNL     1       0.288   9.148  -2.788  1.00  0.00    -0.028 A 
HETATM   18  C   UNL     1      -0.076  10.525  -3.180  1.00  0.00     0.051 C 
HETATM   19  C   UNL     1       0.261   8.583  -1.493  1.00  0.00     0.115 A 
HETATM   20  N   UNL     1       0.641   7.304  -1.482  1.00  0.00    -0.310 N 
ATOM     21  HN  UNL     1       0.707   6.672  -0.684  1.00  0.00     0.186 HD
ENDBRANCH  14  15
ENDBRANCH  13  14
ENDBRANCH   1  13
TORSDOF 5
