REMARK  5 active torsions:
REMARK  status: ('A' for Active; 'I' for Inactive)
REMARK    1  A    between atoms: C_2  and  C_3 
REMARK       I    between atoms: C_2  and  N_22 
REMARK    2  A    between atoms: C_3  and  C_4 
REMARK    3  A    between atoms: C_4  and  N_5 
REMARK       I    between atoms: N_5  and  C_6 
REMARK       I    between atoms: C_6  and  N_8 
REMARK    4  A    between atoms: N_8  and  C_9 
REMARK    5  A    between atoms: C_12  and  N_16 
ROOT
HETATM    1  N   UNL     1       2.626  -3.045  -2.457  1.00  0.00    -0.342 N 
HETATM    2  C   UNL     1       1.837  -3.684  -3.393  1.00  0.00     0.320 C 
HETATM    3  O   UNL     1       0.676  -3.347  -3.596  1.00  0.00    -0.247 OA
HETATM    4  N   UNL     1       2.487  -4.751  -3.980  1.00  0.00    -0.308 N 
HETATM    5  H   UNL     1       3.599  -2.937  -2.724  1.00  0.00     0.164 HD
HETATM    6  H   UNL     1       3.321  -5.066  -3.504  1.00  0.00     0.170 HD
ENDROOT
BRANCH   4   7
HETATM    7  C   UNL     1       1.901  -5.624  -4.929  1.00  0.00     0.051 A 
HETATM    8  C   UNL     1       0.774  -5.297  -5.665  1.00  0.00     0.035 A 
HETATM    9  C   UNL     1       0.197  -6.239  -6.516  1.00  0.00     0.051 A 
HETATM   10  C   UNL     1       0.738  -7.516  -6.646  1.00  0.00     0.103 A 
HETATM   11  N   UNL     1       1.882  -7.821  -5.993  1.00  0.00    -0.350 N 
HETATM   12  C   UNL     1       2.434  -6.885  -5.168  1.00  0.00     0.119 A 
ATOM     13  HN  UNL     1       2.323  -8.732  -6.115  1.00  0.00     0.166 HD
BRANCH  10  14
HETATM   14  N   UNL     1       0.145  -8.450  -7.474  1.00  0.00    -0.363 N 
HETATM   15  C   UNL     1      -1.315  -8.532  -7.636  1.00  0.00     0.150 C 
HETATM   16  C   UNL     1      -1.865  -9.843  -7.051  1.00  0.00     0.187 C 
HETATM   17  O   UNL     1      -1.175 -10.992  -7.565  1.00  0.00    -0.388 OA
HETATM   18  C   UNL     1       0.222 -10.911  -7.233  1.00  0.00     0.187 C 
HETATM   19  C   UNL     1       0.873  -9.667  -7.853  1.00  0.00     0.150 C 
ENDBRANCH  10  14
ENDBRANCH   4   7
BRANCH   1  20
HETATM   20  C   UNL     1       2.075  -1.899  -1.741  1.00  0.00     0.133 C 
BRANCH  20  21
HETATM   21  C   UNL     1       2.702  -1.694  -0.367  1.00  0.00     0.122 C 
BRANCH  21  22
HETATM   22  C   UNL     1       4.160  -1.291  -0.454  1.00  0.00     0.221 C 
HETATM   23  O   UNL     1       4.731  -1.164  -1.536  1.00  0.00    -0.273 OA
HETATM   24  N   UNL     1       4.816  -1.106   0.743  1.00  0.00    -0.352 N 
HETATM   25  C   UNL     1       4.272  -1.229   2.086  1.00  0.00     0.126 C 
HETATM   26  C   UNL     1       6.216  -0.743   0.787  1.00  0.00     0.126 C 
HETATM   27  C   UNL     1       5.489  -1.239   3.012  1.00  0.00     0.021 C 
HETATM   28  C   UNL     1       6.695  -1.364   2.084  1.00  0.00     0.021 C 
ENDBRANCH  21  22
ENDBRANCH  20  21
ENDBRANCH   1  20
TORSDOF 5
