REMARK  4 active torsions:
REMARK  status: ('A' for Active; 'I' for Inactive)
REMARK    1  A    between atoms: C_2  and  C_3 
REMARK       I    between atoms: C_2  and  N_12 
REMARK    2  A    between atoms: C_3  and  N_4 
REMARK    3  A    between atoms: N_12  and  C_13 
REMARK    4  A    between atoms: C_13  and  C_14 
ROOT
HETATM    1  O   UNL     1       6.174   1.686  -0.832  1.00  0.00    -0.272 OA
HETATM    2  C   UNL     1       5.023   2.114  -0.762  1.00  0.00     0.235 C 
HETATM    3  N   UNL     1       4.089   1.655   0.144  1.00  0.00    -0.359 N 
HETATM    4  H   UNL     1       3.230   2.190   0.254  1.00  0.00     0.162 HD
ENDROOT
BRANCH   3   5
HETATM    5  C   UNL     1       4.373   0.599   1.102  1.00  0.00     0.132 C 
BRANCH   5   6
HETATM    6  C   UNL     1       4.838   1.109   2.485  1.00  0.00    -0.023 C 
HETATM    7  C   UNL     1       3.765   2.022   3.132  1.00  0.00     0.015 C 
HETATM    8  C   UNL     1       4.224   2.503   4.518  1.00  0.00    -0.013 C 
HETATM    9  C   UNL     1       5.541   3.283   4.370  1.00  0.00     0.009 C 
HETATM   10  C   UNL     1       4.451   1.286   5.429  1.00  0.00     0.009 C 
HETATM   11  C   UNL     1       6.628   2.374   3.774  1.00  0.00    -0.013 C 
HETATM   12  C   UNL     1       6.838   1.158   4.689  1.00  0.00     0.009 C 
HETATM   13  C   UNL     1       6.171   1.894   2.387  1.00  0.00     0.015 C 
HETATM   14  C   UNL     1       5.526   0.370   4.824  1.00  0.00    -0.013 C 
HETATM   15  C   UNL     1       5.069  -0.102   3.431  1.00  0.00     0.015 C 
ENDBRANCH   5   6
ENDBRANCH   3   5
BRANCH   2  16
HETATM   16  C   UNL     1       4.534   3.257  -1.649  1.00  0.00     0.235 C 
BRANCH  16  17
HETATM   17  N   UNL     1       4.696   4.548  -0.981  1.00  0.00    -0.301 N 
HETATM   18  C   UNL     1       5.873   5.253  -1.129  1.00  0.00     0.102 A 
HETATM   19  C   UNL     1       6.069   6.428  -0.527  1.00  0.00     0.092 A 
HETATM   20  C   UNL     1       4.997   6.983   0.315  1.00  0.00     0.250 A 
HETATM   21  O   UNL     1       5.147   8.040   0.916  1.00  0.00    -0.268 OA
HETATM   22  N   UNL     1       3.854   6.241   0.387  1.00  0.00    -0.275 N 
HETATM   23  C   UNL     1       3.663   5.008  -0.177  1.00  0.00     0.329 A 
HETATM   24  H   UNL     1       3.117   6.594   0.975  1.00  0.00     0.173 HD
HETATM   25  O   UNL     1       2.639   4.361   0.044  1.00  0.00    -0.246 OA
ENDBRANCH  16  17
ENDBRANCH   2  16
TORSDOF 4
