REMARK  5 active torsions:
REMARK  status: ('A' for Active; 'I' for Inactive)
REMARK    1  A    between atoms: N_2  and  C_4 
REMARK    2  A    between atoms: C_4  and  C_7 
REMARK    3  A    between atoms: C_7  and  N_8 
REMARK       I    between atoms: N_8  and  C_9 
REMARK       I    between atoms: C_9  and  N_11 
REMARK    4  A    between atoms: N_11  and  C_12 
REMARK    5  A    between atoms: C_15  and  N_19 
ROOT
HETATM    1  C   UNL     1       8.287  -1.418  -4.337  1.00  0.00     0.051 A 
HETATM    2  C   UNL     1       8.915  -2.607  -4.671  1.00  0.00     0.035 A 
HETATM    3  C   UNL     1      10.284  -2.600  -4.959  1.00  0.00     0.051 A 
HETATM    4  C   UNL     1      11.007  -1.404  -4.971  1.00  0.00     0.103 A 
HETATM    5  N   UNL     1      10.380  -0.239  -4.704  1.00  0.00    -0.350 N 
ATOM      6  HN  UNL     1      10.886   0.645  -4.749  1.00  0.00     0.166 HD
HETATM    7  C   UNL     1       9.060  -0.266  -4.373  1.00  0.00     0.119 A 
ENDROOT
BRANCH   1   8
HETATM    8  N   UNL     1       6.924  -1.442  -3.971  1.00  0.00    -0.308 N 
HETATM    9  C   UNL     1       6.445  -0.714  -2.901  1.00  0.00     0.320 C 
HETATM   10  N   UNL     1       5.118  -1.012  -2.660  1.00  0.00    -0.340 N 
HETATM   11  O   UNL     1       7.111   0.024  -2.187  1.00  0.00    -0.247 OA
HETATM   12  H   UNL     1       4.557  -1.023  -3.502  1.00  0.00     0.164 HD
HETATM   13  H   UNL     1       6.432  -2.314  -4.107  1.00  0.00     0.170 HD
BRANCH  10  14
HETATM   14  C   UNL     1       4.481  -0.497  -1.450  1.00  0.00     0.165 C 
BRANCH  14  15
HETATM   15  C   UNL     1       3.188  -1.266  -0.989  1.00  0.00     0.167 C 
HETATM   16  C   UNL     1       3.519  -2.770  -0.854  1.00  0.00     0.050 C 
HETATM   17  C   UNL     1       2.125  -1.101  -2.105  1.00  0.00     0.050 C 
BRANCH  15  18
HETATM   18  N   UNL     1       2.648  -0.674   0.282  1.00  0.00     0.090 N 
HETATM   19  C   UNL     1       1.405  -1.283   0.773  1.00  0.00     0.310 C 
HETATM   20  C   UNL     1       3.609  -0.623   1.391  1.00  0.00     0.310 C 
ENDBRANCH  15  18
ENDBRANCH  14  15
ENDBRANCH  10  14
ENDBRANCH   1   8
BRANCH   4  21
HETATM   21  N   UNL     1      12.343  -1.389  -5.320  1.00  0.00    -0.363 N 
HETATM   22  C   UNL     1      13.279  -2.428  -4.873  1.00  0.00     0.150 C 
HETATM   23  C   UNL     1      14.310  -1.856  -3.885  1.00  0.00     0.187 C 
HETATM   24  O   UNL     1      14.977  -0.703  -4.419  1.00  0.00    -0.388 OA
HETATM   25  C   UNL     1      14.016   0.333  -4.685  1.00  0.00     0.187 C 
HETATM   26  C   UNL     1      12.974  -0.121  -5.716  1.00  0.00     0.150 C 
ENDBRANCH   4  21
TORSDOF 5
