REMARK  5 active torsions:
REMARK  status: ('A' for Active; 'I' for Inactive)
REMARK    1  A    between atoms: C_6  and  N_7 
REMARK    2  A    between atoms: N_7  and  C_8 
REMARK    3  A    between atoms: C_8  and  C_9 
REMARK    4  A    between atoms: C_9  and  O_11 
REMARK    5  A    between atoms: C_9  and  C_12 
ROOT
HETATM    1  C   UNL     1       2.596  -3.394  -3.536  1.00  0.00     0.312 C 
ENDROOT
BRANCH   1   2
HETATM    2  N   UNL     1       2.998  -2.973  -2.177  1.00  0.00     0.091 N 
HETATM    3  H   UNL     1       2.576  -3.639  -1.529  1.00  0.00     0.316 HD
BRANCH   2   4
HETATM    4  C   UNL     1       2.492  -1.628  -1.826  1.00  0.00     0.224 C 
HETATM    5  C   UNL     1       3.034  -0.542  -2.780  1.00  0.00     0.036 C 
HETATM    6  C   UNL     1       2.593   0.865  -2.392  1.00  0.00     0.002 C 
HETATM    7  C   UNL     1       2.936   1.187  -0.945  1.00  0.00     0.005 C 
HETATM    8  C   UNL     1       2.385   0.143   0.037  1.00  0.00    -0.013 C 
HETATM    9  C   UNL     1       0.859   0.253   0.154  1.00  0.00     0.010 C 
HETATM   10  C   UNL     1       2.880  -1.275  -0.358  1.00  0.00     0.018 C 
HETATM   11  C   UNL     1       2.419  -2.321   0.667  1.00  0.00     0.012 C 
ENDBRANCH   2   4
ENDBRANCH   1   2
BRANCH   1  12
HETATM   12  C   UNL     1       3.093  -4.822  -3.931  1.00  0.00     0.110 C 
HETATM   13  C   UNL     1       4.628  -4.907  -3.895  1.00  0.00     0.053 C 
BRANCH  12  14
HETATM   14  O   UNL     1       2.585  -5.750  -2.953  1.00  0.00    -0.383 OA
HETATM   15  H   UNL     1       3.084  -5.580  -2.137  1.00  0.00     0.211 HD
ENDBRANCH  12  14
BRANCH  12  16
HETATM   16  C   UNL     1       2.573  -5.171  -5.301  1.00  0.00     0.011 A 
HETATM   17  C   UNL     1       2.815  -4.483  -6.518  1.00  0.00     0.119 A 
HETATM   18  N   UNL     1       2.176  -5.023  -7.557  1.00  0.00    -0.310 N 
HETATM   19  N   UNL     1       1.524  -6.067  -7.016  1.00  0.00    -0.307 N 
ATOM     20  HN  UNL     1       2.181  -4.717  -8.530  1.00  0.00     0.186 HD
HETATM   21  C   UNL     1       0.686  -6.903  -7.840  1.00  0.00     0.177 C 
HETATM   22  C   UNL     1       1.733  -6.200  -5.676  1.00  0.00     0.121 A 
ENDBRANCH  12  16
ENDBRANCH   1  12
TORSDOF 5
