REMARK  4 active torsions:
REMARK  status: ('A' for Active; 'I' for Inactive)
REMARK    1  A    between atoms: C_2  and  C_3 
REMARK    2  A    between atoms: C_2  and  N_10 
REMARK    3  A    between atoms: C_3  and  N_4 
REMARK       I    between atoms: N_10  and  C_11 
REMARK    4  A    between atoms: C_11  and  C_13 
ROOT
HETATM    1  N   UNL     1       3.175  -1.234   0.748  1.00  0.00    -0.355 N 
HETATM    2  C   UNL     1       4.525  -1.497   0.693  1.00  0.00     0.223 C 
HETATM    3  O   UNL     1       5.336  -0.732   0.185  1.00  0.00    -0.273 OA
HETATM    4  H   UNL     1       2.556  -2.010   0.952  1.00  0.00     0.162 HD
ENDROOT
BRANCH   1   5
HETATM    5  C   UNL     1       2.565  -0.029   0.152  1.00  0.00     0.100 C 
HETATM    6  C   UNL     1       1.044  -0.157   0.285  1.00  0.00     0.034 C 
BRANCH   5   7
HETATM    7  C   UNL     1       3.100   1.271   0.790  1.00  0.00     0.172 C 
BRANCH   7   8
HETATM    8  N   UNL     1       2.525   2.485   0.237  1.00  0.00    -0.302 N 
HETATM    9  C   UNL     1       3.006   3.219  -0.811  1.00  0.00     0.111 A 
HETATM   10  C   UNL     1       2.172   4.308  -0.927  1.00  0.00     0.037 A 
HETATM   11  C   UNL     1       1.227   4.146   0.098  1.00  0.00     0.108 A 
HETATM   12  N   UNL     1       1.437   3.035   0.811  1.00  0.00    -0.310 N 
ATOM     13  HN  UNL     1       0.899   2.685   1.604  1.00  0.00     0.186 HD
ENDBRANCH   7   8
ENDBRANCH   5   7
ENDBRANCH   1   5
BRANCH   2  14
HETATM   14  C   UNL     1       4.922  -2.825   1.315  1.00  0.00     0.092 C 
HETATM   15  C   UNL     1       4.514  -2.916   2.797  1.00  0.00     0.030 C 
HETATM   16  C   UNL     1       5.445  -3.874   3.541  1.00  0.00     0.141 C 
HETATM   17  S   UNL     1       6.741  -4.327   2.412  1.00  0.00     0.145 S 
HETATM   18  O   UNL     1       8.024  -4.116   3.044  1.00  0.00    -0.228 OA
HETATM   19  O   UNL     1       6.378  -5.583   1.788  1.00  0.00    -0.228 OA
HETATM   20  C   UNL     1       6.432  -3.024   1.255  1.00  0.00     0.154 C 
ENDBRANCH   2  14
TORSDOF 4
