REMARK  9 active torsions:
REMARK  status: ('A' for Active; 'I' for Inactive)
REMARK    1  A    between atoms: N_6  and  C_7 
REMARK    2  A    between atoms: C_7  and  C_8 
REMARK    3  A    between atoms: C_8  and  N_9 
REMARK    4  A    between atoms: N_9  and  C_10 
REMARK    5  A    between atoms: C_10  and  C_11 
REMARK       I    between atoms: C_11  and  N_13 
REMARK    6  A    between atoms: N_13  and  C_14 
REMARK    7  A    between atoms: C_14  and  C_16 
REMARK    8  A    between atoms: C_14  and  C_20 
REMARK    9  A    between atoms: C_16  and  N_17 
ROOT
HETATM    1  C   UNL     1       7.241  -6.252   0.126  1.00  0.00     0.247 C 
HETATM    2  O   UNL     1       7.305  -7.218   0.877  1.00  0.00    -0.272 OA
HETATM    3  N   UNL     1       8.249  -5.842  -0.715  1.00  0.00    -0.339 N 
HETATM    4  H   UNL     1       8.145  -4.905  -1.096  1.00  0.00     0.164 HD
ENDROOT
BRANCH   1   5
HETATM    5  C   UNL     1       5.975  -5.421  -0.003  1.00  0.00     0.371 C 
BRANCH   5   6
HETATM    6  N   UNL     1       6.337  -3.991  -0.036  1.00  0.00     0.093 N 
HETATM    7  H   UNL     1       6.864  -3.776   0.814  1.00  0.00     0.316 HD
BRANCH   6   8
HETATM    8  C   UNL     1       5.136  -3.138  -0.067  1.00  0.00     0.291 C 
BRANCH   8   9
HETATM    9  C   UNL     1       4.230  -3.276   1.161  1.00  0.00     0.178 C 
BRANCH   9  10
HETATM   10  N   UNL     1       3.096  -2.379   1.085  1.00  0.00    -0.302 N 
HETATM   11  N   UNL     1       3.183  -1.146   1.602  1.00  0.00    -0.310 N 
HETATM   12  C   UNL     1       1.967  -0.633   1.384  1.00  0.00     0.115 A 
ATOM     13  HN  UNL     1       3.984  -0.705   2.053  1.00  0.00     0.186 HD
HETATM   14  C   UNL     1       1.109  -1.534   0.716  1.00  0.00    -0.028 A 
HETATM   15  C   UNL     1      -0.294  -1.327   0.303  1.00  0.00     0.051 C 
HETATM   16  C   UNL     1       1.881  -2.663   0.536  1.00  0.00     0.118 A 
ENDBRANCH   9  10
ENDBRANCH   8   9
ENDBRANCH   6   8
ENDBRANCH   5   6
ENDBRANCH   1   5
BRANCH   3  17
HETATM   17  C   UNL     1       9.524  -6.552  -0.872  1.00  0.00     0.104 C 
HETATM   18  C   UNL     1      10.464  -6.213   0.282  1.00  0.00     0.054 C 
BRANCH  17  19
HETATM   19  C   UNL     1       9.253  -8.048  -0.880  1.00  0.00    -0.046 C 
BRANCH  19  20
HETATM   20  N   UNL     1       9.028  -9.289  -0.886  1.00  0.00    -0.367 N 
ATOM     21  HN2 UNL     1       9.202  -8.284  -0.855  1.00  0.00     0.165 HD
ATOM     22  HN1 UNL     1       8.846 -10.293  -0.891  1.00  0.00     0.165 HD
ENDBRANCH  19  20
ENDBRANCH  17  19
BRANCH  17  23
HETATM   23  C   UNL     1      10.014  -6.189  -2.260  1.00  0.00     0.027 A 
HETATM   24  C   UNL     1      11.297  -6.652  -2.908  1.00  0.00     0.009 A 
HETATM   25  C   UNL     1      11.170  -5.223  -2.458  1.00  0.00     0.009 A 
ENDBRANCH  17  23
ENDBRANCH   3  17
TORSDOF 9
