REMARK  7 active torsions:
REMARK  status: ('A' for Active; 'I' for Inactive)
REMARK    1  A    between atoms: C_2  and  N_3 
REMARK    2  A    between atoms: N_3  and  C_4 
REMARK    3  A    between atoms: N_3  and  S_6 
REMARK    4  A    between atoms: S_6  and  N_9 
REMARK    5  A    between atoms: N_9  and  C_10 
REMARK    6  A    between atoms: C_10  and  C_11 
REMARK    7  A    between atoms: C_16  and  N_18 
ROOT
HETATM    1  C   UNL     1       7.275  -1.724   4.114  1.00  0.00    -0.039 A 
HETATM    2  C   UNL     1       8.624  -1.820   4.441  1.00  0.00     0.025 A 
HETATM    3  C   UNL     1       8.972  -2.517   5.587  1.00  0.00     0.090 A 
HETATM    4  N   UNL     1       8.083  -3.118   6.412  1.00  0.00    -0.352 N 
ATOM      5  HN  UNL     1       8.400  -3.637   7.231  1.00  0.00     0.166 HD
HETATM    6  C   UNL     1       6.770  -3.015   6.127  1.00  0.00     0.103 A 
HETATM    7  C   UNL     1       6.355  -2.316   4.993  1.00  0.00     0.056 A 
ENDROOT
BRANCH   1   8
HETATM    8  C   UNL     1       6.851  -1.047   2.825  1.00  0.00     0.144 C 
BRANCH   8   9
HETATM    9  N   UNL     1       5.389  -1.055   2.632  1.00  0.00    -0.202 NA
HETATM   10  H   UNL     1       5.033  -2.011   2.632  1.00  0.00     0.141 HD
BRANCH   9  11
HETATM   11  S   UNL     1       4.800  -0.355   1.239  1.00  0.00     0.281 S 
HETATM   12  O   UNL     1       3.373  -0.573   1.246  1.00  0.00    -0.194 OA
HETATM   13  O   UNL     1       5.611  -0.824   0.143  1.00  0.00    -0.194 OA
BRANCH  11  14
HETATM   14  N   UNL     1       5.102   1.293   1.468  1.00  0.00    -0.198 NA
BRANCH  14  15
HETATM   15  C   UNL     1       4.654   2.076   0.268  1.00  0.00     0.104 C 
HETATM   16  C   UNL     1       5.060   3.539   0.302  1.00  0.00     0.021 C 
ENDBRANCH  14  15
BRANCH  14  17
HETATM   17  C   UNL     1       4.738   1.891   2.783  1.00  0.00     0.104 C 
HETATM   18  C   UNL     1       3.258   1.854   3.111  1.00  0.00     0.021 C 
ENDBRANCH  14  17
ENDBRANCH  11  14
ENDBRANCH   9  11
ENDBRANCH   8   9
ENDBRANCH   1   8
BRANCH   6  19
HETATM   19  N   UNL     1       5.846  -3.660   6.921  1.00  0.00    -0.363 N 
HETATM   20  C   UNL     1       4.539  -3.073   7.234  1.00  0.00     0.150 C 
HETATM   21  C   UNL     1       4.400  -2.819   8.745  1.00  0.00     0.187 C 
HETATM   22  O   UNL     1       4.708  -3.986   9.520  1.00  0.00    -0.388 OA
HETATM   23  C   UNL     1       6.062  -4.401   9.266  1.00  0.00     0.187 C 
HETATM   24  C   UNL     1       6.261  -4.766   7.790  1.00  0.00     0.150 C 
ENDBRANCH   6  19
TORSDOF 7
