REMARK  4 active torsions:
REMARK  status: ('A' for Active; 'I' for Inactive)
REMARK    1  A    between atoms: C_2  and  N_3 
REMARK    2  A    between atoms: C_2  and  C_16 
REMARK       I    between atoms: N_3  and  C_4 
REMARK    3  A    between atoms: C_4  and  C_6 
REMARK    4  A    between atoms: C_6  and  N_7 
ROOT
HETATM    1  N   UNL     1       2.741  -0.300   1.352  1.00  0.00    -0.353 N 
HETATM    2  C   UNL     1       2.353   0.564   2.355  1.00  0.00     0.236 C 
HETATM    3  O   UNL     1       1.617   1.527   2.151  1.00  0.00    -0.272 OA
HETATM    4  H   UNL     1       3.520  -0.925   1.529  1.00  0.00     0.163 HD
ENDROOT
BRANCH   2   5
HETATM    5  C   UNL     1       2.803   0.172   3.762  1.00  0.00     0.235 C 
BRANCH   5   6
HETATM    6  N   UNL     1       1.818  -0.693   4.425  1.00  0.00    -0.301 N 
HETATM    7  C   UNL     1       0.556  -0.201   4.674  1.00  0.00     0.102 A 
HETATM    8  C   UNL     1      -0.386  -0.942   5.253  1.00  0.00     0.092 A 
HETATM    9  C   UNL     1      -0.067  -2.310   5.683  1.00  0.00     0.252 A 
HETATM   10  O   UNL     1      -0.953  -2.988   6.197  1.00  0.00    -0.268 OA
HETATM   11  N   UNL     1       1.238  -2.721   5.483  1.00  0.00    -0.271 N 
HETATM   12  C   UNL     1       1.643  -4.015   5.993  1.00  0.00     0.164 C 
HETATM   13  C   UNL     1       2.196  -1.984   4.788  1.00  0.00     0.331 A 
HETATM   14  O   UNL     1       3.310  -2.439   4.521  1.00  0.00    -0.246 OA
ENDBRANCH   5   6
ENDBRANCH   2   5
BRANCH   1  15
HETATM   15  C   UNL     1       2.381  -0.066  -0.050  1.00  0.00     0.109 C 
HETATM   16  C   UNL     1       2.260  -1.422  -0.748  1.00  0.00     0.035 C 
BRANCH  15  17
HETATM   17  C   UNL     1       3.385   0.893  -0.723  1.00  0.00     0.143 C 
HETATM   18  C   UNL     1       3.007   1.345  -2.131  1.00  0.00     0.036 C 
HETATM   19  C   UNL     1       4.322   1.403  -2.884  1.00  0.00     0.029 C 
HETATM   20  C   UNL     1       5.371   1.033  -1.859  1.00  0.00     0.168 C 
HETATM   21  O   UNL     1       4.684   0.283  -0.852  1.00  0.00    -0.384 OA
ENDBRANCH  15  17
ENDBRANCH   1  15
TORSDOF 4
