REMARK  6 active torsions:
REMARK  status: ('A' for Active; 'I' for Inactive)
REMARK    1  A    between atoms: C_2  and  O_3 
REMARK    2  A    between atoms: O_3  and  C_4 
REMARK    3  A    between atoms: C_4  and  C_5 
REMARK    4  A    between atoms: C_5  and  N_6 
REMARK    5  A    between atoms: C_7  and  C_8 
REMARK    6  A    between atoms: C_8  and  O_9 
ROOT
HETATM    1  N   UNL     1       6.396   0.168  -2.858  1.00  0.00    -0.331 N 
HETATM    2  C   UNL     1       7.199  -0.952  -2.941  1.00  0.00     0.108 A 
HETATM    3  N   UNL     1       8.478  -0.616  -2.896  1.00  0.00    -0.342 N 
ATOM      4  HN  UNL     1       9.280  -1.245  -2.931  1.00  0.00     0.167 HD
HETATM    5  C   UNL     1       8.504   0.751  -2.792  1.00  0.00     0.060 A 
HETATM    6  C   UNL     1       9.606   1.617  -2.738  1.00  0.00     0.032 A 
HETATM    7  C   UNL     1       9.379   2.995  -2.645  1.00  0.00     0.002 A 
HETATM    8  C   UNL     1       8.079   3.499  -2.586  1.00  0.00     0.002 A 
HETATM    9  C   UNL     1       6.968   2.649  -2.621  1.00  0.00     0.032 A 
HETATM   10  C   UNL     1       7.216   1.276  -2.744  1.00  0.00     0.062 A 
ENDROOT
BRANCH   1  11
HETATM   11  C   UNL     1       4.947   0.211  -2.873  1.00  0.00     0.156 C 
BRANCH  11  12
HETATM   12  C   UNL     1       4.378   0.910  -4.106  1.00  0.00     0.187 C 
BRANCH  12  13
HETATM   13  O   UNL     1       2.955   0.986  -3.989  1.00  0.00    -0.390 OA
BRANCH  13  14
HETATM   14  C   UNL     1       2.381   1.720  -5.071  1.00  0.00     0.163 C 
HETATM   15  C   UNL     1       0.876   1.759  -4.892  1.00  0.00     0.033 C 
ENDBRANCH  13  14
ENDBRANCH  12  13
ENDBRANCH  11  12
ENDBRANCH   1  11
BRANCH   2  16
HETATM   16  C   UNL     1       6.699  -2.348  -3.093  1.00  0.00     0.240 C 
BRANCH  16  17
HETATM   17  O   UNL     1       5.988  -2.701  -1.913  1.00  0.00    -0.393 OA
HETATM   18  H   UNL     1       6.660  -2.773  -1.211  1.00  0.00     0.209 HD
ENDBRANCH  16  17
ENDBRANCH   2  16
TORSDOF 6
