REMARK  6 active torsions:
REMARK  status: ('A' for Active; 'I' for Inactive)
REMARK    1  A    between atoms: C_2  and  C_4 
REMARK    2  A    between atoms: C_7  and  C_8 
REMARK    3  A    between atoms: C_8  and  C_9 
REMARK       I    between atoms: C_9  and  N_11 
REMARK    4  A    between atoms: N_11  and  C_12 
REMARK    5  A    between atoms: C_12  and  C_13 
REMARK    6  A    between atoms: C_13  and  N_14 
ROOT
HETATM    1  C   UNL     1       4.902  -5.310   1.842  1.00  0.00     0.223 C 
HETATM    2  O   UNL     1       3.778  -5.753   1.616  1.00  0.00    -0.273 OA
HETATM    3  N   UNL     1       5.999  -6.114   2.096  1.00  0.00    -0.359 N 
HETATM    4  H   UNL     1       6.760  -5.664   2.592  1.00  0.00     0.162 HD
ENDROOT
BRANCH   1   5
HETATM    5  C   UNL     1       5.197  -3.823   1.869  1.00  0.00     0.160 C 
BRANCH   5   6
HETATM    6  C   UNL     1       4.775  -3.219   3.164  1.00  0.00     0.025 A 
HETATM    7  N   UNL     1       5.720  -3.036   4.169  1.00  0.00    -0.356 N 
HETATM    8  C   UNL     1       5.161  -2.470   5.222  1.00  0.00     0.054 A 
ATOM      9  HN  UNL     1       6.703  -3.301   4.102  1.00  0.00     0.166 HD
HETATM   10  S   UNL     1       3.481  -2.126   5.064  1.00  0.00    -0.086 SA
HETATM   11  C   UNL     1       3.503  -2.783   3.487  1.00  0.00     0.077 A 
BRANCH   8  12
HETATM   12  C   UNL     1       5.880  -2.117   6.503  1.00  0.00     0.035 C 
HETATM   13  C   UNL     1       6.426  -3.374   7.179  1.00  0.00     0.016 C 
HETATM   14  C   UNL     1       6.997  -1.108   6.248  1.00  0.00     0.016 C 
ENDBRANCH   8  12
ENDBRANCH   5   6
ENDBRANCH   1   5
BRANCH   3  15
HETATM   15  C   UNL     1       5.835  -7.539   2.336  1.00  0.00     0.152 C 
BRANCH  15  16
HETATM   16  C   UNL     1       5.371  -8.362   1.111  1.00  0.00     0.292 C 
BRANCH  16  17
HETATM   17  N   UNL     1       5.355  -9.819   1.349  1.00  0.00     0.094 N 
HETATM   18  C   UNL     1       4.944 -10.565   0.135  1.00  0.00     0.298 C 
HETATM   19  C   UNL     1       3.427 -10.571  -0.132  1.00  0.00     0.198 C 
HETATM   20  O   UNL     1       2.704 -11.067   1.001  1.00  0.00    -0.388 OA
HETATM   21  C   UNL     1       2.979 -10.262   2.152  1.00  0.00     0.198 C 
HETATM   22  C   UNL     1       4.483 -10.242   2.469  1.00  0.00     0.298 C 
ENDBRANCH  16  17
ENDBRANCH  15  16
ENDBRANCH   3  15
TORSDOF 6
