REMARK  6 active torsions:
REMARK  status: ('A' for Active; 'I' for Inactive)
REMARK       I    between atoms: N_1  and  C_2 
REMARK    1  A    between atoms: C_2  and  C_4 
REMARK    2  A    between atoms: C_4  and  C_5 
REMARK    3  A    between atoms: N_14  and  C_15 
REMARK    4  A    between atoms: C_15  and  C_16 
REMARK    5  A    between atoms: C_16  and  O_17 
REMARK    6  A    between atoms: C_16  and  C_18 
ROOT
HETATM    1  C   UNL     1       4.670   0.177  -0.984  1.00  0.00     0.093 A 
HETATM    2  N   UNL     1       5.396   1.274  -0.855  1.00  0.00    -0.344 N 
ATOM      3  HN  UNL     1       5.064   2.237  -0.906  1.00  0.00     0.167 HD
HETATM    4  C   UNL     1       6.681   0.859  -0.640  1.00  0.00     0.060 A 
HETATM    5  C   UNL     1       7.835   1.628  -0.434  1.00  0.00     0.032 A 
HETATM    6  C   UNL     1       9.054   0.973  -0.233  1.00  0.00     0.002 A 
HETATM    7  C   UNL     1       9.120  -0.420  -0.240  1.00  0.00     0.002 A 
HETATM    8  C   UNL     1       7.975  -1.203  -0.442  1.00  0.00     0.032 A 
HETATM    9  C   UNL     1       6.763  -0.531  -0.639  1.00  0.00     0.062 A 
HETATM   10  N   UNL     1       5.463  -0.947  -0.855  1.00  0.00    -0.332 N 
ENDROOT
BRANCH  10  11
HETATM   11  C   UNL     1       5.015  -2.333  -0.853  1.00  0.00     0.167 C 
BRANCH  11  12
HETATM   12  C   UNL     1       4.909  -2.941  -2.263  1.00  0.00     0.169 C 
BRANCH  12  13
HETATM   13  O   UNL     1       6.198  -3.073  -2.865  1.00  0.00    -0.389 OA
HETATM   14  H   UNL     1       6.780  -3.546  -2.248  1.00  0.00     0.210 HD
ENDBRANCH  12  13
BRANCH  12  15
HETATM   15  C   UNL     1       4.242  -4.306  -2.327  1.00  0.00    -0.028 A 
HETATM   16  C   UNL     1       3.617  -4.697  -3.528  1.00  0.00     0.013 A 
HETATM   17  C   UNL     1       2.995  -5.941  -3.647  1.00  0.00     0.043 A 
HETATM   18  C   UNL     1       3.001  -6.814  -2.568  1.00  0.00     0.116 A 
HETATM   19  F   UNL     1       2.405  -8.008  -2.678  1.00  0.00    -0.206 F 
HETATM   20  C   UNL     1       3.623  -6.464  -1.377  1.00  0.00     0.043 A 
HETATM   21  C   UNL     1       4.248  -5.218  -1.257  1.00  0.00     0.013 A 
ENDBRANCH  12  15
ENDBRANCH  11  12
ENDBRANCH  10  11
BRANCH   1  22
HETATM   22  C   UNL     1       3.195   0.179  -1.233  1.00  0.00     0.179 C 
BRANCH  22  23
HETATM   23  C   UNL     1       2.862   0.809  -2.575  1.00  0.00     0.222 C 
HETATM   24  N   UNL     1       3.550   1.933  -2.925  1.00  0.00    -0.370 N 
HETATM   25  H   UNL     1       3.397   2.331  -3.840  1.00  0.00     0.159 HD
HETATM   26  H   UNL     1       4.403   2.178  -2.422  1.00  0.00     0.159 HD
HETATM   27  O   UNL     1       1.958   0.381  -3.291  1.00  0.00    -0.273 OA
ENDBRANCH  22  23
ENDBRANCH   1  22
TORSDOF 6
