REMARK  3 active torsions:
REMARK  status: ('A' for Active; 'I' for Inactive)
REMARK    1  A    between atoms: C_2  and  N_5 
REMARK       I    between atoms: N_5  and  C_6 
REMARK       I    between atoms: C_6  and  N_8 
REMARK    2  A    between atoms: N_8  and  C_9 
REMARK    3  A    between atoms: C_12  and  N_16 
ROOT
HETATM    1  C   UNL     1       6.410   3.071   0.944  1.00  0.00     0.051 A 
HETATM    2  C   UNL     1       6.896   4.368   0.933  1.00  0.00     0.035 A 
HETATM    3  C   UNL     1       8.270   4.614   0.904  1.00  0.00     0.051 A 
HETATM    4  C   UNL     1       9.176   3.563   0.835  1.00  0.00     0.103 A 
HETATM    5  N   UNL     1       8.717   2.289   0.846  1.00  0.00    -0.350 N 
ATOM      6  HN  UNL     1       9.368   1.505   0.815  1.00  0.00     0.166 HD
HETATM    7  C   UNL     1       7.371   2.069   0.899  1.00  0.00     0.119 A 
ENDROOT
BRANCH   1   8
HETATM    8  N   UNL     1       5.024   2.757   0.979  1.00  0.00    -0.308 N 
HETATM    9  C   UNL     1       4.048   3.654   1.348  1.00  0.00     0.321 C 
HETATM   10  N   UNL     1       2.769   3.179   1.164  1.00  0.00    -0.335 N 
HETATM   11  O   UNL     1       4.261   4.769   1.807  1.00  0.00    -0.247 OA
HETATM   12  H   UNL     1       2.657   2.457   0.465  1.00  0.00     0.165 HD
HETATM   13  H   UNL     1       4.762   1.782   0.962  1.00  0.00     0.170 HD
BRANCH  10  14
HETATM   14  C   UNL     1       1.590   4.035   1.444  1.00  0.00     0.023 C 
HETATM   15  C   UNL     1       1.577   5.287   0.543  1.00  0.00     0.037 C 
HETATM   16  C   UNL     1       1.563   4.449   2.928  1.00  0.00     0.037 C 
HETATM   17  C   UNL     1       0.305   3.238   1.155  1.00  0.00     0.037 C 
ENDBRANCH  10  14
ENDBRANCH   1   8
BRANCH   4  18
HETATM   18  N   UNL     1      10.531   3.788   0.763  1.00  0.00    -0.367 N 
HETATM   19  C   UNL     1      11.434   2.663   0.540  1.00  0.00     0.124 C 
HETATM   20  C   UNL     1      12.684   3.283  -0.090  1.00  0.00     0.021 C 
HETATM   21  C   UNL     1      12.243   4.652  -0.579  1.00  0.00     0.021 C 
HETATM   22  C   UNL     1      11.147   5.053   0.395  1.00  0.00     0.124 C 
ENDBRANCH   4  18
TORSDOF 3
