REMARK  4 active torsions:
REMARK  status: ('A' for Active; 'I' for Inactive)
REMARK       I    between atoms: N_1  and  C_2 
REMARK    1  A    between atoms: C_2  and  C_4 
REMARK    2  A    between atoms: C_4  and  C_5 
REMARK    3  A    between atoms: C_8  and  N_9 
REMARK       I    between atoms: N_9  and  C_10 
REMARK    4  A    between atoms: C_10  and  C_12 
ROOT
HETATM    1  C   UNL     1       4.728   0.677  -1.197  1.00  0.00     0.026 A 
HETATM    2  C   UNL     1       5.471   1.693  -0.620  1.00  0.00     0.078 A 
HETATM    3  S   UNL     1       7.008   1.092  -0.133  1.00  0.00    -0.064 SA
HETATM    4  C   UNL     1       6.543  -0.459  -0.662  1.00  0.00     0.151 A 
HETATM    5  N   UNL     1       5.375  -0.547  -1.236  1.00  0.00    -0.339 N 
ATOM      6  HN  UNL     1       4.993  -1.396  -1.654  1.00  0.00     0.168 HD
ENDROOT
BRANCH   4   7
HETATM    7  N   UNL     1       7.445  -1.456  -0.425  1.00  0.00    -0.307 N 
HETATM    8  C   UNL     1       7.093  -2.784  -0.576  1.00  0.00     0.227 C 
HETATM    9  O   UNL     1       5.969  -3.207  -0.829  1.00  0.00    -0.273 OA
HETATM   10  H   UNL     1       8.332  -1.193  -0.025  1.00  0.00     0.171 HD
BRANCH   8  11
HETATM   11  C   UNL     1       8.265  -3.722  -0.317  1.00  0.00     0.078 C 
HETATM   12  C   UNL     1       9.412  -3.520  -1.314  1.00  0.00     0.014 C 
HETATM   13  C   UNL     1      10.009  -4.904  -1.573  1.00  0.00     0.001 C 
HETATM   14  C   UNL     1       9.246  -5.869  -0.678  1.00  0.00     0.001 C 
HETATM   15  C   UNL     1       7.901  -5.197  -0.469  1.00  0.00     0.014 C 
ENDBRANCH   8  11
ENDBRANCH   4   7
BRANCH   1  16
HETATM   16  C   UNL     1       3.351   0.764  -1.769  1.00  0.00     0.160 C 
BRANCH  16  17
HETATM   17  C   UNL     1       2.353  -0.178  -1.113  1.00  0.00     0.221 C 
HETATM   18  N   UNL     1       2.809  -1.396  -0.708  1.00  0.00    -0.370 N 
HETATM   19  H   UNL     1       2.172  -2.063  -0.299  1.00  0.00     0.159 HD
HETATM   20  H   UNL     1       3.789  -1.662  -0.824  1.00  0.00     0.159 HD
HETATM   21  O   UNL     1       1.159   0.103  -1.011  1.00  0.00    -0.273 OA
ENDBRANCH  16  17
ENDBRANCH   1  16
TORSDOF 4
