REMARK  3 active torsions:
REMARK  status: ('A' for Active; 'I' for Inactive)
REMARK    1  A    between atoms: N_6  and  C_7 
REMARK    2  A    between atoms: C_7  and  C_8 
REMARK       I    between atoms: C_8  and  N_10 
REMARK    3  A    between atoms: N_10  and  C_11 
ROOT
HETATM    1  C   UNL     1       6.847  -0.102   0.058  1.00  0.00     0.255 C 
ENDROOT
BRANCH   1   2
HETATM    2  N   UNL     1       7.602   0.951   0.736  1.00  0.00    -0.248 N 
HETATM    3  N   UNL     1       8.562   1.607  -0.003  1.00  0.00    -0.305 N 
HETATM    4  C   UNL     1       9.125   2.630   0.557  1.00  0.00     0.133 A 
ATOM      5  HN  UNL     1       8.816   1.303  -0.943  1.00  0.00     0.186 HD
HETATM    6  C   UNL     1       8.848   3.134   1.908  1.00  0.00     0.078 A 
HETATM    7 CL   UNL     1       9.720   4.519   2.421  1.00  0.00    -0.081 Cl
HETATM    8  C   UNL     1       7.945   2.470   2.629  1.00  0.00     0.126 A 
HETATM    9  C   UNL     1       7.244   1.292   2.042  1.00  0.00     0.285 A 
HETATM   10 CL   UNL     1       7.507   2.924   4.239  1.00  0.00    -0.076 Cl
HETATM   11  O   UNL     1       6.392   0.680   2.680  1.00  0.00    -0.265 OA
ENDBRANCH   1   2
BRANCH   1  12
HETATM   12  C   UNL     1       7.451  -1.482   0.295  1.00  0.00     0.237 C 
HETATM   13  O   UNL     1       6.782  -2.434   0.685  1.00  0.00    -0.272 OA
HETATM   14  N   UNL     1       8.769  -1.616  -0.098  1.00  0.00    -0.354 N 
HETATM   15  H   UNL     1       9.264  -0.757  -0.328  1.00  0.00     0.162 HD
BRANCH  14  16
HETATM   16  C   UNL     1       9.524  -2.858   0.038  1.00  0.00     0.099 C 
HETATM   17  C   UNL     1       8.922  -4.056  -0.730  1.00  0.00     0.041 C 
HETATM   18  C   UNL     1       9.318  -5.365  -0.045  1.00  0.00     0.142 C 
HETATM   19  S   UNL     1      10.324  -4.936   1.354  1.00  0.00     0.146 S 
HETATM   20  O   UNL     1       9.907  -5.696   2.512  1.00  0.00    -0.228 OA
HETATM   21  O   UNL     1      11.707  -4.887   0.922  1.00  0.00    -0.228 OA
HETATM   22  C   UNL     1       9.733  -3.273   1.490  1.00  0.00     0.165 C 
ENDBRANCH  14  16
ENDBRANCH   1  12
TORSDOF 3
