REMARK  5 active torsions:
REMARK  status: ('A' for Active; 'I' for Inactive)
REMARK    1  A    between atoms: O_2  and  C_3 
REMARK    2  A    between atoms: C_3  and  C_4 
REMARK    3  A    between atoms: C_4  and  N_5 
REMARK       I    between atoms: N_5  and  C_6 
REMARK    4  A    between atoms: C_6  and  C_8 
REMARK    5  A    between atoms: C_14  and  N_15 
ROOT
HETATM    1  C   UNL     1       6.728  -4.249   0.782  1.00  0.00     0.075 A 
HETATM    2  C   UNL     1       7.805  -4.606   1.624  1.00  0.00     0.022 A 
HETATM    3  C   UNL     1       8.186  -5.931   1.761  1.00  0.00     0.018 A 
HETATM    4  C   UNL     1       7.452  -6.868   1.079  1.00  0.00     0.089 A 
HETATM    5  N   UNL     1       6.418  -6.557   0.269  1.00  0.00    -0.352 N 
ATOM      6  HN  UNL     1       5.914  -7.303  -0.211  1.00  0.00     0.166 HD
HETATM    7  C   UNL     1       6.037  -5.258   0.082  1.00  0.00     0.119 A 
ENDROOT
BRANCH   1   8
HETATM    8  C   UNL     1       6.355  -2.806   0.792  1.00  0.00     0.255 C 
HETATM    9  N   UNL     1       7.406  -1.909   0.682  1.00  0.00    -0.355 N 
HETATM   10  H   UNL     1       8.362  -2.234   0.707  1.00  0.00     0.162 HD
HETATM   11  O   UNL     1       5.195  -2.443   0.931  1.00  0.00    -0.268 OA
BRANCH   9  12
HETATM   12  C   UNL     1       7.198  -0.470   0.727  1.00  0.00     0.149 C 
BRANCH  12  13
HETATM   13  C   UNL     1       6.993   0.071   2.144  1.00  0.00     0.186 C 
BRANCH  13  14
HETATM   14  O   UNL     1       8.186  -0.128   2.914  1.00  0.00    -0.394 OA
HETATM   15  C   UNL     1       8.044   0.408   4.225  1.00  0.00     0.201 C 
ENDBRANCH  13  14
ENDBRANCH  12  13
ENDBRANCH   9  12
ENDBRANCH   1   8
BRANCH   7  16
HETATM   16  N   UNL     1       5.066  -5.110  -0.886  1.00  0.00    -0.362 N 
HETATM   17  C   UNL     1       4.056  -6.185  -1.006  1.00  0.00     0.150 C 
HETATM   18  C   UNL     1       3.610  -6.322  -2.470  1.00  0.00     0.187 C 
HETATM   19  O   UNL     1       3.110  -5.079  -2.985  1.00  0.00    -0.388 OA
HETATM   20  C   UNL     1       4.137  -4.078  -2.920  1.00  0.00     0.187 C 
HETATM   21  C   UNL     1       4.634  -3.842  -1.481  1.00  0.00     0.150 C 
ENDBRANCH   7  16
TORSDOF 5
