REMARK  4 active torsions:
REMARK  status: ('A' for Active; 'I' for Inactive)
REMARK    1  A    between atoms: C_2  and  N_3 
REMARK    2  A    between atoms: C_2  and  C_20 
REMARK       I    between atoms: N_3  and  C_4 
REMARK       I    between atoms: C_4  and  N_6 
REMARK    3  A    between atoms: N_6  and  C_7 
REMARK    4  A    between atoms: C_10  and  N_14 
ROOT
HETATM    1  C   UNL     1       2.696  -2.176   4.469  1.00  0.00     0.051 A 
HETATM    2  C   UNL     1       2.414  -1.111   5.306  1.00  0.00     0.035 A 
HETATM    3  C   UNL     1       2.257  -1.315   6.682  1.00  0.00     0.051 A 
HETATM    4  C   UNL     1       2.403  -2.580   7.246  1.00  0.00     0.103 A 
HETATM    5  N   UNL     1       2.680  -3.624   6.430  1.00  0.00    -0.350 N 
ATOM      6  HN  UNL     1       2.791  -4.562   6.815  1.00  0.00     0.166 HD
HETATM    7  C   UNL     1       2.810  -3.411   5.090  1.00  0.00     0.119 A 
ENDROOT
BRANCH   1   8
HETATM    8  N   UNL     1       2.886  -2.049   3.072  1.00  0.00    -0.308 N 
HETATM    9  C   UNL     1       2.569  -0.938   2.319  1.00  0.00     0.321 C 
HETATM   10  N   UNL     1       2.939  -1.084   0.999  1.00  0.00    -0.336 N 
HETATM   11  O   UNL     1       1.989   0.063   2.717  1.00  0.00    -0.247 OA
HETATM   12  H   UNL     1       3.831  -1.537   0.847  1.00  0.00     0.164 HD
HETATM   13  H   UNL     1       3.097  -2.886   2.548  1.00  0.00     0.170 HD
BRANCH  10  14
HETATM   14  C   UNL     1       2.615  -0.021   0.033  1.00  0.00     0.111 C 
HETATM   15  C   UNL     1       2.447  -0.651  -1.349  1.00  0.00     0.035 C 
BRANCH  14  16
HETATM   16  C   UNL     1       3.662   1.116   0.075  1.00  0.00     0.143 C 
HETATM   17  C   UNL     1       3.326   2.344  -0.771  1.00  0.00     0.036 C 
HETATM   18  C   UNL     1       4.644   2.765  -1.390  1.00  0.00     0.029 C 
HETATM   19  C   UNL     1       5.668   1.847  -0.762  1.00  0.00     0.168 C 
HETATM   20  O   UNL     1       4.947   0.663  -0.400  1.00  0.00    -0.384 OA
ENDBRANCH  14  16
ENDBRANCH  10  14
ENDBRANCH   1   8
BRANCH   4  21
HETATM   21  N   UNL     1       2.251  -2.812   8.595  1.00  0.00    -0.363 N 
HETATM   22  C   UNL     1       2.045  -1.782   9.621  1.00  0.00     0.150 C 
HETATM   23  C   UNL     1       3.265  -1.713  10.554  1.00  0.00     0.187 C 
HETATM   24  O   UNL     1       3.550  -2.993  11.141  1.00  0.00    -0.388 OA
HETATM   25  C   UNL     1       3.812  -3.965  10.112  1.00  0.00     0.187 C 
HETATM   26  C   UNL     1       2.615  -4.124   9.157  1.00  0.00     0.150 C 
ENDBRANCH   4  21
TORSDOF 4
