REMARK  4 active torsions:
REMARK  status: ('A' for Active; 'I' for Inactive)
REMARK    1  A    between atoms: N_7  and  C_8 
REMARK    2  A    between atoms: C_8  and  C_9 
REMARK    3  A    between atoms: C_9  and  N_10 
REMARK    4  A    between atoms: N_10  and  C_11 
ROOT
HETATM    1  N   UNL     1       0.876  -3.859   0.042  1.00  0.00     0.090 N 
HETATM    2  H   UNL     1       1.310  -4.581  -0.534  1.00  0.00     0.316 HD
ENDROOT
BRANCH   1   3
HETATM    3  C   UNL     1       1.346  -4.003   1.435  1.00  0.00     0.290 C 
BRANCH   3   4
HETATM    4  C   UNL     1       2.881  -3.971   1.593  1.00  0.00     0.162 C 
BRANCH   4   5
HETATM    5  N   UNL     1       3.298  -4.310   2.958  1.00  0.00    -0.310 N 
HETATM    6  C   UNL     1       3.569  -3.391   3.965  1.00  0.00     0.018 A 
HETATM    7  C   UNL     1       3.492  -1.922   3.748  1.00  0.00     0.069 C 
HETATM    8  C   UNL     1       3.901  -3.969   5.132  1.00  0.00     0.080 A 
HETATM    9  S   UNL     1       3.876  -5.699   5.040  1.00  0.00    -0.039 SA
HETATM   10  C   UNL     1       3.385  -5.645   3.340  1.00  0.00     0.290 A 
HETATM   11  O   UNL     1       3.157  -6.639   2.669  1.00  0.00    -0.260 OA
ENDBRANCH   4   5
ENDBRANCH   3   4
ENDBRANCH   1   3
BRANCH   1  12
HETATM   12  C   UNL     1      -0.605  -3.952  -0.081  1.00  0.00     0.228 C 
HETATM   13  C   UNL     1      -1.135  -5.336   0.371  1.00  0.00     0.036 C 
HETATM   14  C   UNL     1      -0.703  -6.463  -0.566  1.00  0.00     0.002 C 
HETATM   15  C   UNL     1      -1.126  -6.201  -2.007  1.00  0.00     0.001 C 
HETATM   16  C   UNL     1      -0.704  -4.816  -2.501  1.00  0.00     0.011 C 
HETATM   17  C   UNL     1      -1.118  -3.666  -1.548  1.00  0.00    -0.017 C 
HETATM   18  C   UNL     1      -2.664  -3.521  -1.552  1.00  0.00     0.017 C 
HETATM   19  C   UNL     1      -0.566  -2.339  -2.110  1.00  0.00     0.017 C 
ENDBRANCH   1  12
TORSDOF 4
