REMARK  3 active torsions:
REMARK  status: ('A' for Active; 'I' for Inactive)
REMARK       I    between atoms: N_8  and  C_9 
REMARK       I    between atoms: C_9  and  N_11 
REMARK    1  A    between atoms: N_11  and  C_12 
REMARK    2  A    between atoms: C_12  and  C_13 
REMARK    3  A    between atoms: C_13  and  N_14 
ROOT
HETATM    1  C   UNL     1       5.980   5.848  -1.125  1.00  0.00     0.078 C 
HETATM    2  C   UNL     1       6.485   4.455  -1.082  1.00  0.00     0.066 A 
HETATM    3  N   UNL     1       7.741   4.117  -1.290  1.00  0.00    -0.296 N 
ATOM      4  HN  UNL     1       8.475   4.776  -1.551  1.00  0.00     0.187 HD
HETATM    5  N   UNL     1       7.943   2.770  -1.113  1.00  0.00    -0.279 N 
ATOM      6  HN  UNL     1       8.847   2.309  -1.221  1.00  0.00     0.189 HD
HETATM    7  C   UNL     1       6.835   2.147  -0.789  1.00  0.00     0.169 A 
HETATM    8  N   UNL     1       6.671   0.827  -0.481  1.00  0.00    -0.288 N 
HETATM    9  C   UNL     1       7.695  -0.050  -0.276  1.00  0.00     0.322 C 
HETATM   10  O   UNL     1       7.450  -1.216   0.014  1.00  0.00    -0.247 OA
HETATM   11  N   UNL     1       8.964   0.452  -0.337  1.00  0.00    -0.341 N 
HETATM   12  S   UNL     1       5.447   3.129  -0.716  1.00  0.00    -0.038 SA
HETATM   13  H   UNL     1       5.742   0.473  -0.317  1.00  0.00     0.172 HD
HETATM   14  H   UNL     1       9.089   1.332  -0.831  1.00  0.00     0.164 HD
ENDROOT
BRANCH  11  15
HETATM   15  C   UNL     1      10.123  -0.375  -0.104  1.00  0.00     0.144 C 
BRANCH  15  16
HETATM   16  C   UNL     1      11.438   0.421  -0.069  1.00  0.00     0.145 C 
BRANCH  16  17
HETATM   17  N   UNL     1      12.590  -0.459   0.139  1.00  0.00    -0.351 N 
HETATM   18  C   UNL     1      12.677  -1.171   1.412  1.00  0.00     0.126 C 
HETATM   19  C   UNL     1      12.693  -2.677   1.221  1.00  0.00     0.020 C 
HETATM   20  C   UNL     1      14.091  -3.239   0.980  1.00  0.00     0.002 C 
HETATM   21  C   UNL     1      15.058  -2.333   0.218  1.00  0.00     0.009 C 
HETATM   22  C   UNL     1      14.450  -1.639  -0.987  1.00  0.00     0.103 C 
HETATM   23  C   UNL     1      13.668  -0.363  -0.722  1.00  0.00     0.219 C 
HETATM   24  O   UNL     1      13.893   0.650  -1.390  1.00  0.00    -0.273 OA
ENDBRANCH  16  17
ENDBRANCH  15  16
ENDBRANCH  11  15
TORSDOF 3
