REMARK  5 active torsions:
REMARK  status: ('A' for Active; 'I' for Inactive)
REMARK    1  A    between atoms: C_2  and  C_3 
REMARK       I    between atoms: C_2  and  N_10 
REMARK    2  A    between atoms: C_3  and  C_4 
REMARK    3  A    between atoms: N_10  and  S_11 
REMARK    4  A    between atoms: S_11  and  C_14 
REMARK    5  A    between atoms: C_14  and  C_15 
ROOT
HETATM    1  O   UNL     1       1.929   0.159   1.382  1.00  0.00    -0.272 OA
HETATM    2  C   UNL     1       2.280  -0.003   0.220  1.00  0.00     0.234 C 
HETATM    3  N   UNL     1       1.982  -1.175  -0.490  1.00  0.00    -0.254 N 
HETATM    4  H   UNL     1       2.187  -1.266  -1.481  1.00  0.00     0.181 HD
ENDROOT
BRANCH   3   5
HETATM    5  S   UNL     1       1.394  -2.566   0.206  1.00  0.00     0.238 S 
HETATM    6  O   UNL     1       1.297  -3.497  -0.899  1.00  0.00    -0.205 OA
HETATM    7  O   UNL     1       2.218  -2.873   1.355  1.00  0.00    -0.205 OA
BRANCH   5   8
HETATM    8  C   UNL     1      -0.260  -2.088   0.729  1.00  0.00     0.222 C 
BRANCH   8   9
HETATM    9  C   UNL     1      -0.982  -3.223   1.353  1.00  0.00     0.050 A 
HETATM   10  C   UNL     1      -0.660  -3.937   2.533  1.00  0.00     0.054 A 
HETATM   11  C   UNL     1      -1.664  -4.860   2.653  1.00  0.00     0.169 A 
HETATM   12  O   UNL     1      -2.548  -4.703   1.638  1.00  0.00    -0.250 OA
HETATM   13  N   UNL     1      -2.132  -3.664   0.824  1.00  0.00    -0.265 N 
ATOM     14  HN  UNL     1      -2.603  -3.307  -0.007  1.00  0.00     0.194 HD
ENDBRANCH   8   9
ENDBRANCH   5   8
ENDBRANCH   3   5
BRANCH   2  15
HETATM   15  C   UNL     1       2.985   1.081  -0.582  1.00  0.00     0.137 C 
BRANCH  15  16
HETATM   16  C   UNL     1       2.008   2.036  -1.238  1.00  0.00    -0.075 A 
HETATM   17  C   UNL     1       1.977   2.198  -2.568  1.00  0.00    -0.023 A 
HETATM   18  C   UNL     1       1.112   3.175  -3.290  1.00  0.00     0.027 A 
HETATM   19  C   UNL     1       0.169   4.028  -2.450  1.00  0.00     0.004 A 
HETATM   20  C   UNL     1       0.180   3.853  -0.935  1.00  0.00     0.005 A 
HETATM   21  C   UNL     1       1.142   2.843  -0.312  1.00  0.00     0.034 A 
ENDBRANCH  15  16
ENDBRANCH   2  15
TORSDOF 5
