REMARK  7 active torsions:
REMARK  status: ('A' for Active; 'I' for Inactive)
REMARK    1  A    between atoms: C_2  and  O_3 
REMARK    2  A    between atoms: O_3  and  C_4 
REMARK    3  A    between atoms: C_4  and  C_5 
REMARK    4  A    between atoms: C_5  and  N_6 
REMARK    5  A    between atoms: C_7  and  C_8 
REMARK    6  A    between atoms: C_8  and  N_9 
REMARK       I    between atoms: N_9  and  C_10 
REMARK    7  A    between atoms: C_10  and  C_12 
ROOT
HETATM    1  N   UNL     1       6.253  -2.635  -0.963  1.00  0.00    -0.331 N 
HETATM    2  C   UNL     1       7.002  -2.934   0.162  1.00  0.00     0.102 A 
HETATM    3  N   UNL     1       8.295  -2.894  -0.123  1.00  0.00    -0.343 N 
ATOM      4  HN  UNL     1       9.068  -3.097   0.511  1.00  0.00     0.167 HD
HETATM    5  C   UNL     1       8.386  -2.525  -1.442  1.00  0.00     0.060 A 
HETATM    6  C   UNL     1       9.523  -2.316  -2.237  1.00  0.00     0.032 A 
HETATM    7  C   UNL     1       9.355  -1.936  -3.577  1.00  0.00     0.002 A 
HETATM    8  C   UNL     1       8.080  -1.756  -4.110  1.00  0.00     0.002 A 
HETATM    9  C   UNL     1       6.938  -1.943  -3.326  1.00  0.00     0.032 A 
HETATM   10  C   UNL     1       7.125  -2.339  -1.994  1.00  0.00     0.062 A 
ENDROOT
BRANCH   2  11
HETATM   11  C   UNL     1       6.445  -3.193   1.526  1.00  0.00     0.199 C 
BRANCH  11  12
HETATM   12  N   UNL     1       6.805  -4.514   1.975  1.00  0.00    -0.348 N 
HETATM   13  C   UNL     1       6.120  -5.116   3.010  1.00  0.00     0.275 C 
HETATM   14  O   UNL     1       5.081  -4.641   3.465  1.00  0.00    -0.265 OA
HETATM   15  H   UNL     1       7.720  -4.874   1.728  1.00  0.00     0.163 HD
BRANCH  13  16
HETATM   16  C   UNL     1       6.721  -6.331   3.524  1.00  0.00     0.142 A 
HETATM   17  C   UNL     1       6.265  -7.230   4.472  1.00  0.00     0.045 A 
HETATM   18  C   UNL     1       7.260  -8.226   4.605  1.00  0.00     0.027 A 
HETATM   19  C   UNL     1       8.268  -7.873   3.740  1.00  0.00     0.143 A 
HETATM   20  O   UNL     1       7.953  -6.731   3.074  1.00  0.00    -0.317 OA
ENDBRANCH  13  16
ENDBRANCH  11  12
ENDBRANCH   2  11
BRANCH   1  21
HETATM   21  C   UNL     1       4.805  -2.582  -1.084  1.00  0.00     0.156 C 
BRANCH  21  22
HETATM   22  C   UNL     1       4.238  -3.638  -2.031  1.00  0.00     0.187 C 
BRANCH  22  23
HETATM   23  O   UNL     1       4.500  -4.940  -1.511  1.00  0.00    -0.390 OA
BRANCH  23  24
HETATM   24  C   UNL     1       4.129  -5.960  -2.435  1.00  0.00     0.163 C 
HETATM   25  C   UNL     1       4.529  -7.297  -1.850  1.00  0.00     0.033 C 
ENDBRANCH  23  24
ENDBRANCH  22  23
ENDBRANCH  21  22
ENDBRANCH   1  21
TORSDOF 7
