REMARK  3 active torsions:
REMARK  status: ('A' for Active; 'I' for Inactive)
REMARK    1  A    between atoms: O_2  and  C_3 
REMARK    2  A    between atoms: C_6  and  N_7 
REMARK       I    between atoms: N_7  and  C_8 
REMARK       I    between atoms: C_8  and  N_10 
REMARK    3  A    between atoms: N_10  and  C_11 
ROOT
HETATM    1  N   UNL     1       3.973  -3.479  -2.124  1.00  0.00    -0.337 N 
HETATM    2  C   UNL     1       3.759  -4.764  -2.527  1.00  0.00     0.322 C 
HETATM    3  O   UNL     1       3.407  -5.665  -1.771  1.00  0.00    -0.247 OA
HETATM    4  N   UNL     1       4.015  -5.035  -3.844  1.00  0.00    -0.295 N 
HETATM    5  H   UNL     1       4.152  -2.846  -2.900  1.00  0.00     0.164 HD
HETATM    6  H   UNL     1       3.972  -6.020  -4.065  1.00  0.00     0.172 HD
ENDROOT
BRANCH   1   7
HETATM    7  C   UNL     1       3.711  -2.965  -0.773  1.00  0.00     0.099 C 
HETATM    8  C   UNL     1       2.280  -2.409  -0.613  1.00  0.00     0.064 C 
HETATM    9  C   UNL     1       2.816  -0.960  -0.818  1.00  0.00     0.067 C 
HETATM   10  C   UNL     1       2.638  -0.413  -2.237  1.00  0.00     0.047 C 
HETATM   11  C   UNL     1       4.261  -1.530  -0.459  1.00  0.00     0.004 C 
HETATM   12  C   UNL     1       5.437  -0.998  -1.285  1.00  0.00     0.020 C 
HETATM   13  C   UNL     1       4.622  -1.410   1.038  1.00  0.00     0.020 C 
BRANCH   9  14
HETATM   14  O   UNL     1       2.335   0.033   0.132  1.00  0.00    -0.384 OA
HETATM   15  C   UNL     1       0.945   0.339   0.126  1.00  0.00     0.202 C 
ENDBRANCH   9  14
ENDBRANCH   1   7
BRANCH   4  16
HETATM   16  C   UNL     1       4.319  -4.129  -4.867  1.00  0.00     0.108 A 
HETATM   17  C   UNL     1       4.772  -4.623  -6.085  1.00  0.00     0.052 A 
HETATM   18  C   UNL     1       5.121  -3.717  -7.091  1.00  0.00     0.047 A 
HETATM   19  C   UNL     1       4.971  -2.359  -6.862  1.00  0.00     0.131 A 
HETATM   20  F   UNL     1       5.291  -1.466  -7.806  1.00  0.00    -0.205 F 
HETATM   21  C   UNL     1       4.483  -1.947  -5.641  1.00  0.00     0.132 A 
HETATM   22  N   UNL     1       4.174  -2.802  -4.637  1.00  0.00    -0.349 N 
ATOM     23  HN  UNL     1       3.843  -2.457  -3.736  1.00  0.00     0.167 HD
ENDBRANCH   4  16
TORSDOF 3
