REMARK  4 active torsions:
REMARK  status: ('A' for Active; 'I' for Inactive)
REMARK    1  A    between atoms: C_4  and  N_5 
REMARK       I    between atoms: N_5  and  C_6 
REMARK       I    between atoms: C_6  and  N_8 
REMARK    2  A    between atoms: N_8  and  C_9 
REMARK    3  A    between atoms: C_9  and  C_10 
REMARK    4  A    between atoms: C_9  and  C_13 
ROOT
HETATM    1  N   UNL     1       5.007   2.611  -0.572  1.00  0.00    -0.308 N 
HETATM    2  C   UNL     1       4.337   3.819  -0.568  1.00  0.00     0.321 C 
HETATM    3  O   UNL     1       3.121   3.966  -0.604  1.00  0.00    -0.247 OA
HETATM    4  N   UNL     1       5.191   4.890  -0.468  1.00  0.00    -0.338 N 
HETATM    5  H   UNL     1       6.004   2.662  -0.449  1.00  0.00     0.170 HD
HETATM    6  H   UNL     1       6.146   4.778  -0.764  1.00  0.00     0.164 HD
ENDROOT
BRANCH   1   7
HETATM    7  C   UNL     1       4.445   1.351  -0.639  1.00  0.00     0.052 A 
HETATM    8  C   UNL     1       3.129   1.107  -0.769  1.00  0.00     0.123 A 
HETATM    9  N   UNL     1       2.613  -0.175  -0.847  1.00  0.00    -0.327 N 
HETATM   10  C   UNL     1       1.185  -0.350  -1.040  1.00  0.00     0.159 C 
HETATM   11  C   UNL     1       3.419  -1.306  -0.808  1.00  0.00     0.247 A 
HETATM   12  C   UNL     1       4.876  -1.047  -0.644  1.00  0.00     0.077 A 
HETATM   13  O   UNL     1       3.016  -2.462  -0.900  1.00  0.00    -0.268 OA
HETATM   14  C   UNL     1       5.342   0.210  -0.569  1.00  0.00     0.036 A 
ENDBRANCH   1   7
BRANCH   4  15
HETATM   15  C   UNL     1       4.659   6.241  -0.436  1.00  0.00     0.094 C 
BRANCH  15  16
HETATM   16  C   UNL     1       5.579   7.091   0.402  1.00  0.00     0.009 A 
HETATM   17  C   UNL     1       5.821   6.757   1.856  1.00  0.00     0.007 A 
HETATM   18  C   UNL     1       5.011   7.967   1.495  1.00  0.00     0.007 A 
ENDBRANCH  15  16
BRANCH  15  19
HETATM   19  C   UNL     1       4.546   6.765  -1.847  1.00  0.00     0.009 A 
HETATM   20  C   UNL     1       3.943   8.122  -2.126  1.00  0.00     0.007 A 
HETATM   21  C   UNL     1       3.194   6.880  -2.513  1.00  0.00     0.007 A 
ENDBRANCH  15  19
ENDBRANCH   4  15
TORSDOF 4
