REMARK  4 active torsions:
REMARK  status: ('A' for Active; 'I' for Inactive)
REMARK    1  A    between atoms: C_2  and  C_3 
REMARK    2  A    between atoms: C_2  and  N_10 
REMARK    3  A    between atoms: C_3  and  N_4 
REMARK       I    between atoms: N_10  and  C_11 
REMARK    4  A    between atoms: C_11  and  C_13 
REMARK       I    between atoms: N_17  and  C_19 
ROOT
HETATM    1  N   UNL     1       3.027  -1.378  -0.406  1.00  0.00    -0.355 N 
HETATM    2  C   UNL     1       4.312  -1.417  -0.899  1.00  0.00     0.223 C 
HETATM    3  O   UNL     1       4.910  -0.389  -1.212  1.00  0.00    -0.273 OA
HETATM    4  H   UNL     1       2.452  -2.205  -0.487  1.00  0.00     0.162 HD
ENDROOT
BRANCH   1   5
HETATM    5  C   UNL     1       2.337  -0.087  -0.230  1.00  0.00     0.100 C 
HETATM    6  C   UNL     1       1.750   0.387  -1.563  1.00  0.00     0.034 C 
BRANCH   5   7
HETATM    7  C   UNL     1       1.281  -0.185   0.880  1.00  0.00     0.172 C 
BRANCH   7   8
HETATM    8  N   UNL     1       0.688   1.093   1.224  1.00  0.00    -0.302 N 
HETATM    9  C   UNL     1       1.146   1.988   2.148  1.00  0.00     0.111 A 
HETATM   10  C   UNL     1       0.281   3.056   2.102  1.00  0.00     0.037 A 
HETATM   11  C   UNL     1      -0.675   2.700   1.134  1.00  0.00     0.108 A 
HETATM   12  N   UNL     1      -0.446   1.491   0.615  1.00  0.00    -0.310 N 
ATOM     13  HN  UNL     1      -0.999   0.988  -0.079  1.00  0.00     0.186 HD
ENDBRANCH   7   8
ENDBRANCH   5   7
ENDBRANCH   1   5
BRANCH   2  14
HETATM   14  C   UNL     1       4.998  -2.779  -1.048  1.00  0.00     0.096 C 
HETATM   15  C   UNL     1       4.172  -4.057  -0.819  1.00  0.00     0.017 C 
HETATM   16  C   UNL     1       4.016  -4.445   0.657  1.00  0.00     0.021 C 
HETATM   17  C   UNL     1       5.353  -4.407   1.390  1.00  0.00     0.126 C 
HETATM   18  N   UNL     1       5.972  -3.100   1.205  1.00  0.00    -0.352 N 
HETATM   19  C   UNL     1       6.278  -2.787  -0.195  1.00  0.00     0.139 C 
HETATM   20  C   UNL     1       6.109  -2.100   2.153  1.00  0.00     0.215 C 
HETATM   21  O   UNL     1       6.624  -1.012   1.886  1.00  0.00    -0.274 OA
HETATM   22  C   UNL     1       5.607  -2.315   3.559  1.00  0.00     0.117 C 
ENDBRANCH   2  14
TORSDOF 4
