REMARK  4 active torsions:
REMARK  status: ('A' for Active; 'I' for Inactive)
REMARK    1  A    between atoms: C_5  and  N_6 
REMARK       I    between atoms: N_6  and  C_7 
REMARK       I    between atoms: C_7  and  N_9 
REMARK    2  A    between atoms: N_9  and  C_10 
REMARK    3  A    between atoms: C_10  and  C_11 
REMARK    4  A    between atoms: N_13  and  C_14 
ROOT
HETATM    1  N   UNL     1       6.815   0.104  -0.523  1.00  0.00    -0.295 N 
HETATM    2  C   UNL     1       7.519   1.272  -0.545  1.00  0.00     0.321 C 
HETATM    3  O   UNL     1       6.950   2.336  -0.312  1.00  0.00    -0.247 OA
HETATM    4  N   UNL     1       8.846   1.185  -0.828  1.00  0.00    -0.342 N 
HETATM    5  H   UNL     1       5.840   0.232  -0.300  1.00  0.00     0.172 HD
HETATM    6  H   UNL     1       9.171   0.253  -1.082  1.00  0.00     0.164 HD
ENDROOT
BRANCH   1   7
HETATM    7  C   UNL     1       7.273  -1.188  -0.802  1.00  0.00     0.108 A 
HETATM    8  C   UNL     1       6.364  -2.237  -0.746  1.00  0.00     0.049 A 
HETATM    9  C   UNL     1       6.801  -3.524  -1.066  1.00  0.00     0.012 A 
HETATM   10  C   UNL     1       8.131  -3.732  -1.432  1.00  0.00    -0.046 A 
HETATM   11  C   UNL     1       8.660  -5.076  -1.818  1.00  0.00     0.049 C 
HETATM   12  C   UNL     1       8.970  -2.629  -1.432  1.00  0.00     0.096 A 
HETATM   13  N   UNL     1       8.571  -1.376  -1.131  1.00  0.00    -0.352 N 
ATOM     14  HN  UNL     1       9.227  -0.595  -1.151  1.00  0.00     0.166 HD
ENDBRANCH   1   7
BRANCH   4  15
HETATM   15  C   UNL     1       9.705   2.331  -0.948  1.00  0.00     0.131 C 
BRANCH  15  16
HETATM   16  C   UNL     1      11.146   1.955  -1.272  1.00  0.00     0.030 C 
HETATM   17  C   UNL     1      12.029   3.192  -1.337  1.00  0.00     0.133 C 
HETATM   18  N   UNL     1      13.079   2.834  -2.252  1.00  0.00    -0.347 N 
HETATM   19  C   UNL     1      12.693   1.785  -3.089  1.00  0.00     0.220 C 
HETATM   20  O   UNL     1      13.296   1.363  -4.064  1.00  0.00    -0.273 OA
HETATM   21  C   UNL     1      11.329   1.312  -2.649  1.00  0.00     0.110 C 
BRANCH  18  22
HETATM   22  C   UNL     1      14.065   3.790  -2.653  1.00  0.00     0.087 A 
HETATM   23  C   UNL     1      15.523   3.550  -2.375  1.00  0.00     0.027 A 
HETATM   24  C   UNL     1      14.802   4.659  -1.669  1.00  0.00     0.027 A 
ENDBRANCH  18  22
ENDBRANCH  15  16
ENDBRANCH   4  15
TORSDOF 4
