REMARK  7 active torsions:
REMARK  status: ('A' for Active; 'I' for Inactive)
REMARK    1  A    between atoms: O_2  and  C_3 
REMARK    2  A    between atoms: C_3  and  C_4 
REMARK    3  A    between atoms: C_4  and  N_5 
REMARK    4  A    between atoms: C_6  and  C_7 
REMARK    5  A    between atoms: C_7  and  C_8 
REMARK    6  A    between atoms: C_8  and  C_9 
REMARK    7  A    between atoms: C_9  and  O_10 
ROOT
HETATM    1  N   UNL     1       4.892  -2.678  -0.484  1.00  0.00    -0.333 N 
HETATM    2  C   UNL     1       6.017  -2.960  -1.239  1.00  0.00     0.084 A 
HETATM    3  N   UNL     1       6.141  -4.259  -1.417  1.00  0.00    -0.344 N 
ATOM      4  HN  UNL     1       6.862  -4.736  -1.958  1.00  0.00     0.167 HD
HETATM    5  C   UNL     1       5.110  -4.842  -0.731  1.00  0.00     0.060 A 
HETATM    6  C   UNL     1       4.782  -6.198  -0.605  1.00  0.00     0.032 A 
HETATM    7  C   UNL     1       3.666  -6.557   0.159  1.00  0.00     0.002 A 
HETATM    8  C   UNL     1       2.908  -5.582   0.808  1.00  0.00     0.002 A 
HETATM    9  C   UNL     1       3.234  -4.224   0.705  1.00  0.00     0.032 A 
HETATM   10  C   UNL     1       4.331  -3.881  -0.098  1.00  0.00     0.062 A 
ENDROOT
BRANCH   2  11
HETATM   11  C   UNL     1       6.967  -1.965  -1.823  1.00  0.00     0.079 C 
BRANCH  11  12
HETATM   12  C   UNL     1       8.134  -1.617  -0.900  1.00  0.00     0.033 C 
BRANCH  12  13
HETATM   13  C   UNL     1       9.025  -2.801  -0.533  1.00  0.00     0.164 C 
BRANCH  13  14
HETATM   14  O   UNL     1      10.113  -2.336   0.265  1.00  0.00    -0.401 OA
HETATM   15  H   UNL     1      10.635  -1.720  -0.278  1.00  0.00     0.209 HD
ENDBRANCH  13  14
ENDBRANCH  12  13
ENDBRANCH  11  12
ENDBRANCH   2  11
BRANCH   1  16
HETATM   16  C   UNL     1       4.359  -1.374  -0.138  1.00  0.00     0.156 C 
BRANCH  16  17
HETATM   17  C   UNL     1       2.953  -1.117  -0.686  1.00  0.00     0.187 C 
BRANCH  17  18
HETATM   18  O   UNL     1       2.515   0.178  -0.264  1.00  0.00    -0.394 OA
HETATM   19  C   UNL     1       1.179   0.442  -0.678  1.00  0.00     0.201 C 
ENDBRANCH  17  18
ENDBRANCH  16  17
ENDBRANCH   1  16
TORSDOF 7
