REMARK  6 active torsions:
REMARK  status: ('A' for Active; 'I' for Inactive)
REMARK    1  A    between atoms: C_2  and  O_3 
REMARK    2  A    between atoms: C_2  and  C_7 
REMARK    3  A    between atoms: O_3  and  C_4 
REMARK    4  A    between atoms: C_4  and  C_5 
REMARK       I    between atoms: C_7  and  N_9 
REMARK    5  A    between atoms: N_9  and  C_10 
REMARK    6  A    between atoms: C_16  and  N_17 
ROOT
HETATM    1  C   UNL     1       4.811   3.177   0.478  1.00  0.00     0.077 A 
HETATM    2  C   UNL     1       4.058   4.327   0.718  1.00  0.00     0.119 A 
HETATM    3  N   UNL     1       4.575   5.573   0.834  1.00  0.00    -0.373 N 
ATOM      4  HN  UNL     1       3.984   6.388   1.000  1.00  0.00     0.164 HD
HETATM    5  C   UNL     1       5.908   5.677   0.719  1.00  0.00     0.090 A 
HETATM    6  C   UNL     1       6.750   4.601   0.481  1.00  0.00     0.048 A 
HETATM    7  C   UNL     1       6.214   3.313   0.333  1.00  0.00     0.060 A 
ENDROOT
BRANCH   1   8
HETATM    8  N   UNL     1       4.230   1.897   0.298  1.00  0.00    -0.322 N 
HETATM    9  C   UNL     1       2.934   1.533   0.615  1.00  0.00     0.251 C 
HETATM   10  O   UNL     1       2.095   2.279   1.111  1.00  0.00    -0.270 OA
HETATM   11  H   UNL     1       4.881   1.201  -0.047  1.00  0.00     0.169 HD
BRANCH   9  12
HETATM   12  C   UNL     1       2.610   0.051   0.292  1.00  0.00     0.209 C 
HETATM   13  C   UNL     1       1.572  -0.442   1.302  1.00  0.00     0.050 C 
BRANCH  12  14
HETATM   14  O   UNL     1       2.075  -0.178  -1.011  1.00  0.00    -0.373 OA
BRANCH  14  15
HETATM   15  C   UNL     1       2.977   0.150  -2.060  1.00  0.00     0.195 C 
BRANCH  15  16
HETATM   16  C   UNL     1       2.302  -0.110  -3.367  1.00  0.00    -0.011 C 
HETATM   17  C   UNL     1       2.107   0.828  -4.300  1.00  0.00     0.009 C 
ENDBRANCH  15  16
ENDBRANCH  14  15
ENDBRANCH  12  14
ENDBRANCH   9  12
ENDBRANCH   1   8
BRANCH   7  18
HETATM   18  N   UNL     1       7.015   2.211  -0.023  1.00  0.00    -0.379 N 
HETATM   19  C   UNL     1       8.255   2.486  -0.770  1.00  0.00     0.123 C 
HETATM   20  C   UNL     1       8.587   1.249  -1.601  1.00  0.00     0.020 C 
HETATM   21  C   UNL     1       8.687  -0.003  -0.727  1.00  0.00     0.003 C 
HETATM   22  C   UNL     1       7.477  -0.152   0.202  1.00  0.00     0.020 C 
HETATM   23  C   UNL     1       7.195   1.143   0.976  1.00  0.00     0.123 C 
ENDBRANCH   7  18
TORSDOF 6
