REMARK  5 active torsions:
REMARK  status: ('A' for Active; 'I' for Inactive)
REMARK    1  A    between atoms: O_2  and  C_3 
REMARK    2  A    between atoms: C_3  and  C_4 
REMARK    3  A    between atoms: C_4  and  N_5 
REMARK    4  A    between atoms: C_6  and  C_7 
REMARK    5  A    between atoms: C_7  and  O_8 
ROOT
HETATM    1  N   UNL     1       4.779  -2.349   1.569  1.00  0.00    -0.331 N 
HETATM    2  C   UNL     1       5.517  -2.302   2.738  1.00  0.00     0.108 A 
HETATM    3  N   UNL     1       5.687  -3.518   3.224  1.00  0.00    -0.342 N 
ATOM      4  HN  UNL     1       6.179  -3.773   4.080  1.00  0.00     0.167 HD
HETATM    5  C   UNL     1       5.068  -4.368   2.345  1.00  0.00     0.060 A 
HETATM    6  C   UNL     1       4.909  -5.760   2.413  1.00  0.00     0.032 A 
HETATM    7  C   UNL     1       4.222  -6.412   1.382  1.00  0.00     0.002 A 
HETATM    8  C   UNL     1       3.736  -5.698   0.287  1.00  0.00     0.002 A 
HETATM    9  C   UNL     1       3.903  -4.313   0.195  1.00  0.00     0.032 A 
HETATM   10  C   UNL     1       4.541  -3.671   1.265  1.00  0.00     0.062 A 
ENDROOT
BRANCH   1  11
HETATM   11  C   UNL     1       4.272  -1.218   0.807  1.00  0.00     0.156 C 
BRANCH  11  12
HETATM   12  C   UNL     1       2.744  -1.184   0.761  1.00  0.00     0.187 C 
BRANCH  12  13
HETATM   13  O   UNL     1       2.306  -0.083  -0.038  1.00  0.00    -0.394 OA
HETATM   14  C   UNL     1       0.893  -0.113  -0.219  1.00  0.00     0.201 C 
ENDBRANCH  12  13
ENDBRANCH  11  12
ENDBRANCH   1  11
BRANCH   2  15
HETATM   15  C   UNL     1       6.026  -1.058   3.381  1.00  0.00     0.240 C 
BRANCH  15  16
HETATM   16  O   UNL     1       6.962  -0.452   2.497  1.00  0.00    -0.393 OA
HETATM   17  H   UNL     1       7.731  -1.049   2.475  1.00  0.00     0.209 HD
ENDBRANCH  15  16
ENDBRANCH   2  15
TORSDOF 5
