REMARK  7 active torsions:
REMARK  status: ('A' for Active; 'I' for Inactive)
REMARK    1  A    between atoms: C_2  and  C_3 
REMARK    2  A    between atoms: C_2  and  N_9 
REMARK    3  A    between atoms: C_3  and  S_4 
REMARK    4  A    between atoms: S_4  and  C_5 
REMARK    5  A    between atoms: N_9  and  C_10 
REMARK    6  A    between atoms: C_10  and  C_11 
REMARK    7  A    between atoms: C_14  and  N_18 
ROOT
HETATM    1  C   UNL     1       4.921   0.969   2.821  1.00  0.00    -0.015 A 
HETATM    2  C   UNL     1       4.473   0.447   4.026  1.00  0.00     0.014 A 
HETATM    3  C   UNL     1       4.863   1.043   5.228  1.00  0.00     0.049 A 
HETATM    4  C   UNL     1       5.694   2.163   5.236  1.00  0.00     0.103 A 
HETATM    5  N   UNL     1       6.139   2.659   4.058  1.00  0.00    -0.352 N 
ATOM      6  HN  UNL     1       6.755   3.472   4.042  1.00  0.00     0.166 HD
HETATM    7  C   UNL     1       5.759   2.067   2.899  1.00  0.00     0.098 A 
ENDROOT
BRANCH   1   8
HETATM    8  C   UNL     1       4.462   0.408   1.505  1.00  0.00     0.310 C 
BRANCH   8   9
HETATM    9  N   UNL     1       3.016   0.523   1.298  1.00  0.00     0.092 N 
HETATM   10  H   UNL     1       2.757   0.074   0.422  1.00  0.00     0.316 HD
BRANCH   9  11
HETATM   11  C   UNL     1       2.485   1.897   1.346  1.00  0.00     0.226 C 
HETATM   12  C   UNL     1       3.033   2.752   0.194  1.00  0.00     0.043 C 
BRANCH  11  13
HETATM   13  C   UNL     1       0.935   1.913   1.267  1.00  0.00     0.109 C 
BRANCH  13  14
HETATM   14  S   UNL     1       0.107   1.035   2.650  1.00  0.00    -0.158 SA
BRANCH  14  15
HETATM   15  C   UNL     1      -1.682   1.361   2.292  1.00  0.00    -0.003 C 
HETATM   16  C   UNL     1      -2.091   0.734   0.954  1.00  0.00     0.026 C 
HETATM   17  C   UNL     1      -2.495   0.698   3.418  1.00  0.00     0.026 C 
HETATM   18  C   UNL     1      -1.974   2.867   2.297  1.00  0.00     0.026 C 
ENDBRANCH  14  15
ENDBRANCH  13  14
ENDBRANCH  11  13
ENDBRANCH   9  11
ENDBRANCH   8   9
ENDBRANCH   1   8
BRANCH   4  19
HETATM   19  N   UNL     1       6.094   2.787   6.394  1.00  0.00    -0.363 N 
HETATM   20  C   UNL     1       5.694   2.411   7.752  1.00  0.00     0.150 C 
HETATM   21  C   UNL     1       4.914   3.567   8.397  1.00  0.00     0.188 C 
HETATM   22  O   UNL     1       5.688   4.776   8.404  1.00  0.00    -0.383 OA
HETATM   23  C   UNL     1       6.029   5.167   7.056  1.00  0.00     0.135 C 
HETATM   24  C   UNL     1       6.838   6.453   7.156  1.00  0.00     0.041 C 
HETATM   25  C   UNL     1       6.833   4.060   6.332  1.00  0.00     0.155 C 
ENDBRANCH   4  19
TORSDOF 7
