REMARK  9 active torsions:
REMARK  status: ('A' for Active; 'I' for Inactive)
REMARK    1  A    between atoms: O_1  and  C_2 
REMARK    2  A    between atoms: C_2  and  C_3 
REMARK    3  A    between atoms: N_12  and  C_13 
REMARK    4  A    between atoms: C_13  and  C_14 
REMARK    5  A    between atoms: C_14  and  O_15 
REMARK    6  A    between atoms: C_14  and  C_16 
REMARK    7  A    between atoms: C_16  and  O_17 
REMARK    8  A    between atoms: O_17  and  C_18 
REMARK    9  A    between atoms: C_18  and  C_19 
ROOT
HETATM    1  C   UNL     1       2.659  -2.490   1.635  1.00  0.00     0.164 C 
ENDROOT
BRANCH   1   2
HETATM    2  N   UNL     1       2.976  -1.190   2.208  1.00  0.00    -0.330 N 
HETATM    3  C   UNL     1       4.203  -0.556   2.175  1.00  0.00     0.108 A 
HETATM    4  N   UNL     1       4.121   0.645   2.719  1.00  0.00    -0.342 N 
HETATM    5  C   UNL     1       2.813   0.800   3.097  1.00  0.00     0.060 A 
ATOM      6  HN  UNL     1       4.877   1.320   2.834  1.00  0.00     0.167 HD
HETATM    7  C   UNL     1       2.190   1.901   3.704  1.00  0.00     0.032 A 
HETATM    8  C   UNL     1       2.068  -0.336   2.799  1.00  0.00     0.062 A 
HETATM    9  C   UNL     1       0.825   1.825   4.003  1.00  0.00     0.002 A 
HETATM   10  C   UNL     1       0.096   0.674   3.705  1.00  0.00     0.002 A 
HETATM   11  C   UNL     1       0.701  -0.431   3.093  1.00  0.00     0.032 A 
BRANCH   3  12
HETATM   12  C   UNL     1       5.454  -1.151   1.628  1.00  0.00     0.240 C 
BRANCH  12  13
HETATM   13  O   UNL     1       5.273  -1.368   0.234  1.00  0.00    -0.393 OA
HETATM   14  H   UNL     1       6.161  -1.370  -0.160  1.00  0.00     0.209 HD
ENDBRANCH  12  13
ENDBRANCH   3  12
ENDBRANCH   1   2
BRANCH   1  15
HETATM   15  C   UNL     1       2.903  -3.664   2.597  1.00  0.00     0.160 C 
BRANCH  15  16
HETATM   16  O   UNL     1       1.988  -3.649   3.698  1.00  0.00    -0.392 OA
HETATM   17  H   UNL     1       1.086  -3.526   3.358  1.00  0.00     0.210 HD
ENDBRANCH  15  16
BRANCH  15  18
HETATM   18  C   UNL     1       2.765  -5.008   1.867  1.00  0.00     0.201 C 
BRANCH  18  19
HETATM   19  O   UNL     1       3.733  -5.089   0.828  1.00  0.00    -0.384 OA
BRANCH  19  20
HETATM   20  C   UNL     1       3.652  -6.320   0.106  1.00  0.00     0.209 C 
BRANCH  20  21
HETATM   21  C   UNL     1       4.657  -6.351  -1.015  1.00  0.00     0.004 A 
HETATM   22  C   UNL     1       5.559  -5.305  -1.262  1.00  0.00     0.012 A 
HETATM   23  C   UNL     1       6.467  -5.384  -2.322  1.00  0.00     0.001 A 
HETATM   24  C   UNL     1       6.486  -6.507  -3.149  1.00  0.00     0.003 A 
HETATM   25  C   UNL     1       5.598  -7.554  -2.913  1.00  0.00     0.043 A 
HETATM   26  C   UNL     1       4.697  -7.469  -1.854  1.00  0.00     0.124 A 
HETATM   27  F   UNL     1       3.850  -8.486  -1.644  1.00  0.00    -0.205 F 
ENDBRANCH  20  21
ENDBRANCH  19  20
ENDBRANCH  18  19
ENDBRANCH  15  18
ENDBRANCH   1  15
TORSDOF 9
