REMARK  3 active torsions:
REMARK  status: ('A' for Active; 'I' for Inactive)
REMARK    1  A    between atoms: C_5  and  C_6 
REMARK    2  A    between atoms: C_6  and  C_7 
REMARK    3  A    between atoms: C_7  and  N_8 
REMARK       I    between atoms: N_8  and  C_9 
REMARK       I    between atoms: C_9  and  N_11 
ROOT
HETATM    1  N   UNL     1       6.411  -4.096   0.048  1.00  0.00    -0.343 N 
HETATM    2  C   UNL     1       6.275  -5.453   0.173  1.00  0.00     0.318 C 
HETATM    3  O   UNL     1       5.168  -5.983   0.244  1.00  0.00    -0.247 OA
HETATM    4  N   UNL     1       7.449  -6.174   0.182  1.00  0.00    -0.329 N 
HETATM    5  C   UNL     1       8.813  -5.667   0.007  1.00  0.00     0.153 C 
HETATM    6  C   UNL     1       9.499  -6.341  -1.186  1.00  0.00     0.189 C 
HETATM    7  O   UNL     1       9.433  -7.770  -1.111  1.00  0.00    -0.378 OA
HETATM    8  C   UNL     1       8.085  -8.279  -0.981  1.00  0.00     0.070 C 
HETATM    9  C   UNL     1       7.290  -8.050  -2.276  1.00  0.00     0.047 C 
HETATM   10  C   UNL     1       8.230  -9.790  -0.758  1.00  0.00     0.047 C 
HETATM   11  C   UNL     1       7.383  -7.638   0.243  1.00  0.00     0.164 C 
HETATM   12  H   UNL     1       7.264  -3.690   0.390  1.00  0.00     0.164 HD
ENDROOT
BRANCH   1  13
HETATM   13  C   UNL     1       5.249  -3.216   0.052  1.00  0.00     0.131 C 
BRANCH  13  14
HETATM   14  C   UNL     1       4.910  -2.753   1.466  1.00  0.00     0.084 C 
BRANCH  14  15
HETATM   15  C   UNL     1       3.712  -1.860   1.488  1.00  0.00     0.052 A 
HETATM   16  S   UNL     1       2.145  -2.519   1.744  1.00  0.00    -0.087 SA
HETATM   17  C   UNL     1       1.487  -0.940   1.688  1.00  0.00     0.076 A 
HETATM   18  C   UNL     1       2.488  -0.013   1.473  1.00  0.00     0.012 A 
HETATM   19  C   UNL     1       2.322   1.460   1.373  1.00  0.00     0.068 C 
HETATM   20  N   UNL     1       3.760  -0.551   1.351  1.00  0.00    -0.357 N 
ATOM     21  HN  UNL     1       4.609  -0.012   1.180  1.00  0.00     0.166 HD
ENDBRANCH  14  15
ENDBRANCH  13  14
ENDBRANCH   1  13
TORSDOF 3
