REMARK  4 active torsions:
REMARK  status: ('A' for Active; 'I' for Inactive)
REMARK    1  A    between atoms: N_1  and  C_2 
REMARK    2  A    between atoms: C_2  and  C_3 
REMARK    3  A    between atoms: C_3  and  N_4 
REMARK    4  A    between atoms: C_3  and  C_10 
ROOT
HETATM    1  C   UNL     1       3.234  -0.892  -1.329  1.00  0.00     0.285 C 
ENDROOT
BRANCH   1   2
HETATM    2  C   UNL     1       2.761  -0.375   0.085  1.00  0.00     0.307 C 
BRANCH   2   3
HETATM    3  N   UNL     1       1.354  -0.623   0.429  1.00  0.00     0.080 N 
HETATM    4  H   UNL     1       1.156  -0.196   1.333  1.00  0.00     0.312 HD
HETATM    5  H   UNL     1       1.199  -1.624   0.542  1.00  0.00     0.312 HD
ENDBRANCH   2   3
ENDBRANCH   1   2
BRANCH   1   6
HETATM    6  N   UNL     1       2.750  -0.033  -2.449  1.00  0.00     0.103 N 
HETATM    7  C   UNL     1       1.290  -0.185  -2.693  1.00  0.00     0.299 C 
HETATM    8  C   UNL     1       0.901  -1.520  -3.362  1.00  0.00     0.198 C 
HETATM    9  O   UNL     1       1.589  -1.700  -4.605  1.00  0.00    -0.388 OA
HETATM   10  C   UNL     1       3.007  -1.610  -4.422  1.00  0.00     0.198 C 
HETATM   11  C   UNL     1       3.407  -0.284  -3.757  1.00  0.00     0.299 C 
ENDBRANCH   1   6
BRANCH   1  12
HETATM   12  C   UNL     1       4.757  -1.023  -1.272  1.00  0.00    -0.008 A 
HETATM   13  C   UNL     1       5.378  -2.253  -1.528  1.00  0.00     0.012 A 
HETATM   14  C   UNL     1       6.762  -2.368  -1.440  1.00  0.00     0.018 A 
HETATM   15  C   UNL     1       7.492  -1.247  -1.089  1.00  0.00     0.087 A 
HETATM   16  N   UNL     1       6.938  -0.041  -0.843  1.00  0.00    -0.375 N 
HETATM   17  C   UNL     1       5.589   0.046  -0.948  1.00  0.00     0.096 A 
ATOM     18  HN  UNL     1       7.507   0.767  -0.590  1.00  0.00     0.164 HD
ENDBRANCH   1  12
TORSDOF 4
