REMARK  4 active torsions:
REMARK  status: ('A' for Active; 'I' for Inactive)
REMARK       I    between atoms: C_2  and  N_4 
REMARK    1  A    between atoms: C_8  and  C_9 
REMARK       I    between atoms: C_9  and  N_11 
REMARK    2  A    between atoms: N_11  and  C_12 
REMARK    3  A    between atoms: C_12  and  C_13 
REMARK    4  A    between atoms: C_13  and  C_14 
ROOT
HETATM    1  C   UNL     1       1.708   3.032   0.549  1.00  0.00     0.240 C 
HETATM    2  O   UNL     1       0.672   3.383   1.110  1.00  0.00    -0.271 OA
HETATM    3  N   UNL     1       2.059   3.483  -0.707  1.00  0.00    -0.359 N 
HETATM    4  H   UNL     1       2.817   2.998  -1.176  1.00  0.00     0.162 HD
ENDROOT
BRANCH   3   5
HETATM    5  C   UNL     1       1.078   4.215  -1.495  1.00  0.00     0.128 C 
BRANCH   5   6
HETATM    6  C   UNL     1       1.635   4.732  -2.817  1.00  0.00     0.077 C 
BRANCH   6   7
HETATM    7  C   UNL     1       0.617   5.510  -3.584  1.00  0.00     0.018 A 
HETATM    8  C   UNL     1       0.399   6.874  -3.527  1.00  0.00     0.076 A 
HETATM    9  S   UNL     1      -0.877   7.316  -4.576  1.00  0.00    -0.087 SA
HETATM   10  C   UNL     1      -1.050   5.671  -5.042  1.00  0.00     0.046 A 
HETATM   11  C   UNL     1      -2.077   5.268  -6.042  1.00  0.00     0.076 C 
HETATM   12  N   UNL     1      -0.220   4.831  -4.457  1.00  0.00    -0.357 N 
ATOM     13  HN  UNL     1      -0.196   3.825  -4.623  1.00  0.00     0.166 HD
ENDBRANCH   6   7
ENDBRANCH   5   6
ENDBRANCH   3   5
BRANCH   1  14
HETATM   14  C   UNL     1       2.748   2.168   1.280  1.00  0.00     0.179 C 
HETATM   15  N   UNL     1       3.416   1.060   0.587  1.00  0.00    -0.339 N 
HETATM   16  C   UNL     1       2.793  -0.031   0.004  1.00  0.00     0.216 C 
HETATM   17  C   UNL     1       4.697   0.802   1.234  1.00  0.00     0.127 C 
HETATM   18  C   UNL     1       1.424   0.180  -0.587  1.00  0.00     0.117 C 
HETATM   19  O   UNL     1       3.354  -1.124  -0.109  1.00  0.00    -0.274 OA
HETATM   20  C   UNL     1       5.042   2.060   2.020  1.00  0.00     0.022 C 
HETATM   21  C   UNL     1       3.944   3.049   1.665  1.00  0.00     0.037 C 
ENDBRANCH   1  14
TORSDOF 4
