REMARK  3 active torsions:
REMARK  status: ('A' for Active; 'I' for Inactive)
REMARK       I    between atoms: N_2  and  C_3 
REMARK    1  A    between atoms: C_3  and  C_5 
REMARK    2  A    between atoms: C_11  and  N_12 
REMARK    3  A    between atoms: N_12  and  C_13 
ROOT
HETATM    1  C   UNL     1       6.849  -0.657  -0.670  1.00  0.00     0.070 A 
HETATM    2  C   UNL     1       7.755   0.381  -0.866  1.00  0.00     0.022 A 
HETATM    3  C   UNL     1       7.285   1.607  -1.313  1.00  0.00     0.018 A 
HETATM    4  C   UNL     1       5.922   1.733  -1.532  1.00  0.00     0.089 A 
HETATM    5  N   UNL     1       5.017   0.727  -1.378  1.00  0.00    -0.356 N 
ATOM      6  HN  UNL     1       4.025   0.878  -1.558  1.00  0.00     0.166 HD
HETATM    7  C   UNL     1       5.479  -0.478  -0.978  1.00  0.00     0.096 A 
ENDROOT
BRANCH   7   8
HETATM    8  N   UNL     1       4.641  -1.595  -1.033  1.00  0.00    -0.271 NA
HETATM    9  H   UNL     1       4.985  -2.307  -0.392  1.00  0.00     0.129 HD
BRANCH   8  10
HETATM   10  C   UNL     1       3.187  -1.505  -0.956  1.00  0.00     0.093 C 
HETATM   11  C   UNL     1       2.638  -2.952  -0.984  1.00  0.00     0.054 C 
HETATM   12  C   UNL     1       1.696  -2.935  -2.183  1.00  0.00     0.123 C 
HETATM   13  C   UNL     1       2.422  -2.808  -3.521  1.00  0.00     0.034 C 
HETATM   14  O   UNL     1       1.140  -1.608  -2.048  1.00  0.00    -0.379 OA
HETATM   15  C   UNL     1       2.895  -1.355  -3.498  1.00  0.00     0.036 C 
HETATM   16  C   UNL     1       2.412  -0.882  -2.131  1.00  0.00     0.140 C 
ENDBRANCH   8  10
ENDBRANCH   7   8
BRANCH   1  17
HETATM   17  C   UNL     1       7.336  -1.937  -0.097  1.00  0.00     0.254 C 
HETATM   18  N   UNL     1       6.570  -2.421   0.952  1.00  0.00    -0.361 N 
HETATM   19  C   UNL     1       6.738  -3.734   1.526  1.00  0.00     0.149 C 
HETATM   20  H   UNL     1       5.883  -1.810   1.375  1.00  0.00     0.162 HD
HETATM   21  O   UNL     1       8.347  -2.487  -0.526  1.00  0.00    -0.268 OA
ENDBRANCH   1  17
TORSDOF 3
