REMARK  2 active torsions:
REMARK  status: ('A' for Active; 'I' for Inactive)
REMARK    1  A    between atoms: C_4  and  C_8 
REMARK    2  A    between atoms: C_14  and  N_15 
ROOT
HETATM    1  C   UNL     1       5.547   1.205  -0.117  1.00  0.00     0.153 C 
HETATM    2  N   UNL     1       5.590   2.287  -1.079  1.00  0.00    -0.350 N 
HETATM    3  C   UNL     1       5.895   2.138  -2.399  1.00  0.00     0.218 C 
HETATM    4  O   UNL     1       5.716   3.075  -3.174  1.00  0.00    -0.274 OA
HETATM    5  C   UNL     1       6.546   0.844  -2.853  1.00  0.00     0.105 C 
HETATM    6  C   UNL     1       6.447  -0.331  -1.884  1.00  0.00     0.047 C 
HETATM    7  C   UNL     1       6.645   0.150  -0.444  1.00  0.00     0.245 C 
HETATM    8  H   UNL     1       5.137   3.162  -0.847  1.00  0.00     0.163 HD
ENDROOT
BRANCH   1   9
HETATM    9  C   UNL     1       4.145   0.655  -0.059  1.00  0.00     0.001 A 
HETATM   10  C   UNL     1       3.180   0.560  -1.047  1.00  0.00     0.120 A 
HETATM   11  N   UNL     1       2.104  -0.072  -0.489  1.00  0.00    -0.307 N 
HETATM   12  C   UNL     1       0.877  -0.451  -1.145  1.00  0.00     0.177 C 
HETATM   13  N   UNL     1       2.284  -0.368   0.811  1.00  0.00    -0.310 N 
HETATM   14  C   UNL     1       3.514   0.081   1.072  1.00  0.00     0.118 A 
ATOM     15  HN  UNL     1       1.633  -0.828   1.448  1.00  0.00     0.186 HD
ENDBRANCH   1   9
BRANCH   7  16
HETATM   16  N   UNL     1       6.738  -0.991   0.474  1.00  0.00     0.085 N 
HETATM   17  H   UNL     1       5.835  -1.460   0.552  1.00  0.00     0.313 HD
HETATM   18  H   UNL     1       6.981  -0.667   1.410  1.00  0.00     0.313 HD
ENDBRANCH   7  16
TORSDOF 2
