REMARK  5 active torsions:
REMARK  status: ('A' for Active; 'I' for Inactive)
REMARK    1  A    between atoms: C_2  and  C_3 
REMARK    2  A    between atoms: C_6  and  C_7 
REMARK    3  A    between atoms: C_7  and  C_8 
REMARK    4  A    between atoms: C_8  and  N_9 
REMARK       I    between atoms: N_9  and  C_10 
REMARK    5  A    between atoms: C_10  and  C_12 
ROOT
HETATM    1  C   UNL     1       4.434  -2.478  -4.321  1.00  0.00     0.129 C 
ENDROOT
BRANCH   1   2
HETATM    2  C   UNL     1       4.379  -1.004  -4.730  1.00  0.00     0.084 C 
BRANCH   2   3
HETATM    3  C   UNL     1       3.809  -0.144  -3.643  1.00  0.00     0.053 A 
HETATM    4  N   UNL     1       3.412  -0.577  -2.467  1.00  0.00    -0.356 N 
HETATM    5  C   UNL     1       2.981   0.479  -1.681  1.00  0.00     0.022 A 
ATOM      6  HN  UNL     1       3.420  -1.554  -2.174  1.00  0.00     0.166 HD
HETATM    7  C   UNL     1       3.020   1.718  -2.301  1.00  0.00     0.003 A 
HETATM    8  S   UNL     1       3.636   1.548  -3.892  1.00  0.00    -0.080 SA
HETATM    9  C   UNL     1       2.628   3.050  -1.768  1.00  0.00     0.058 C 
BRANCH   5  10
HETATM   10  C   UNL     1       2.539   0.175  -0.285  1.00  0.00     0.054 C 
HETATM   11  C   UNL     1       1.060  -0.166  -0.209  1.00  0.00     0.011 C 
ENDBRANCH   5  10
ENDBRANCH   2   3
ENDBRANCH   1   2
BRANCH   1  12
HETATM   12  N   UNL     1       5.022  -3.322  -5.351  1.00  0.00    -0.360 N 
HETATM   13  C   UNL     1       6.390  -3.450  -5.479  1.00  0.00     0.226 C 
HETATM   14  O   UNL     1       7.172  -2.830  -4.762  1.00  0.00    -0.273 OA
HETATM   15  H   UNL     1       4.407  -3.843  -5.961  1.00  0.00     0.162 HD
BRANCH  13  16
HETATM   16  C   UNL     1       6.857  -4.358  -6.625  1.00  0.00     0.037 C 
HETATM   17  C   UNL     1       6.511  -3.694  -7.967  1.00  0.00     0.025 C 
HETATM   18  C   UNL     1       6.252  -5.774  -6.540  1.00  0.00     0.019 C 
HETATM   19  C   UNL     1       7.356  -6.757  -6.948  1.00  0.00     0.001 C 
HETATM   20  C   UNL     1       8.583  -5.921  -7.279  1.00  0.00     0.001 C 
HETATM   21  C   UNL     1       8.369  -4.626  -6.517  1.00  0.00     0.019 C 
ENDBRANCH  13  16
ENDBRANCH   1  12
TORSDOF 5
