REMARK  6 active torsions:
REMARK  status: ('A' for Active; 'I' for Inactive)
REMARK    1  A    between atoms: C_2  and  O_3 
REMARK    2  A    between atoms: C_2  and  C_9 
REMARK    3  A    between atoms: O_3  and  C_4 
REMARK    4  A    between atoms: C_4  and  C_5 
REMARK       I    between atoms: C_9  and  N_11 
REMARK    5  A    between atoms: N_11  and  C_12 
REMARK    6  A    between atoms: C_18  and  N_19 
ROOT
HETATM    1  C   UNL     1       4.884  -0.249  -2.965  1.00  0.00     0.079 A 
HETATM    2  C   UNL     1       5.044   0.846  -3.812  1.00  0.00     0.035 A 
HETATM    3  C   UNL     1       5.689   0.657  -5.023  1.00  0.00     0.019 A 
HETATM    4  C   UNL     1       6.107  -0.625  -5.343  1.00  0.00     0.090 A 
HETATM    5  N   UNL     1       5.926  -1.713  -4.554  1.00  0.00    -0.351 N 
ATOM      6  HN  UNL     1       6.241  -2.637  -4.850  1.00  0.00     0.166 HD
HETATM    7  C   UNL     1       5.314  -1.533  -3.361  1.00  0.00     0.130 A 
ENDROOT
BRANCH   1   8
HETATM    8  N   UNL     1       4.332  -0.032  -1.685  1.00  0.00    -0.322 N 
HETATM    9  C   UNL     1       5.185  -0.021  -0.580  1.00  0.00     0.251 C 
HETATM   10  O   UNL     1       6.401  -0.157  -0.648  1.00  0.00    -0.270 OA
HETATM   11  H   UNL     1       3.546   0.593  -1.653  1.00  0.00     0.169 HD
BRANCH   9  12
HETATM   12  C   UNL     1       4.443   0.229   0.758  1.00  0.00     0.209 C 
HETATM   13  C   UNL     1       5.306  -0.321   1.895  1.00  0.00     0.050 C 
BRANCH  12  14
HETATM   14  O   UNL     1       4.138   1.586   1.091  1.00  0.00    -0.368 OA
BRANCH  14  15
HETATM   15  C   UNL     1       3.262   2.249   0.176  1.00  0.00     0.286 C 
BRANCH  15  16
HETATM   16  C   UNL     1       2.841   3.664   0.583  1.00  0.00     0.408 C 
HETATM   17  F   UNL     1       3.400   4.081   1.735  1.00  0.00    -0.169 F 
HETATM   18  F   UNL     1       3.185   4.546  -0.387  1.00  0.00    -0.169 F 
HETATM   19  F   UNL     1       1.495   3.734   0.719  1.00  0.00    -0.169 F 
ENDBRANCH  15  16
ENDBRANCH  14  15
ENDBRANCH  12  14
ENDBRANCH   9  12
ENDBRANCH   1   8
BRANCH   7  20
HETATM   20  N   UNL     1       5.090  -2.629  -2.538  1.00  0.00    -0.361 N 
HETATM   21  C   UNL     1       6.058  -3.726  -2.552  1.00  0.00     0.150 C 
HETATM   22  C   UNL     1       5.478  -4.993  -3.189  1.00  0.00     0.187 C 
HETATM   23  O   UNL     1       4.214  -5.349  -2.603  1.00  0.00    -0.388 OA
HETATM   24  C   UNL     1       3.268  -4.297  -2.834  1.00  0.00     0.187 C 
HETATM   25  C   UNL     1       3.711  -2.980  -2.181  1.00  0.00     0.150 C 
ENDBRANCH   7  20
TORSDOF 6
