REMARK  5 active torsions:
REMARK  status: ('A' for Active; 'I' for Inactive)
REMARK    1  A    between atoms: N_2  and  C_4 
REMARK    2  A    between atoms: C_10  and  N_11 
REMARK       I    between atoms: N_11  and  C_12 
REMARK    3  A    between atoms: C_12  and  C_14 
REMARK    4  A    between atoms: C_14  and  O_15 
REMARK    5  A    between atoms: O_15  and  C_16 
ROOT
HETATM    1  N   UNL     1       1.335  -2.749  -0.104  1.00  0.00    -0.322 N 
HETATM    2  C   UNL     1       0.844  -2.214   1.069  1.00  0.00     0.245 C 
HETATM    3  O   UNL     1       1.517  -1.787   2.007  1.00  0.00    -0.271 OA
HETATM    4  H   UNL     1       0.686  -2.869  -0.866  1.00  0.00     0.169 HD
ENDROOT
BRANCH   1   5
HETATM    5  C   UNL     1       2.708  -2.854  -0.397  1.00  0.00     0.079 A 
HETATM    6  C   UNL     1       3.272  -2.439  -1.629  1.00  0.00     0.129 A 
HETATM    7  N   UNL     1       4.587  -2.703  -1.869  1.00  0.00    -0.351 N 
HETATM    8  C   UNL     1       5.336  -3.324  -0.933  1.00  0.00     0.090 A 
ATOM      9  HN  UNL     1       5.007  -2.431  -2.758  1.00  0.00     0.166 HD
HETATM   10  C   UNL     1       4.854  -3.738   0.287  1.00  0.00     0.019 A 
HETATM   11  C   UNL     1       3.518  -3.493   0.555  1.00  0.00     0.035 A 
BRANCH   6  12
HETATM   12  N   UNL     1       2.615  -1.705  -2.609  1.00  0.00    -0.374 N 
HETATM   13  C   UNL     1       1.255  -1.228  -2.557  1.00  0.00     0.150 C 
HETATM   14  C   UNL     1       3.350  -1.478  -3.855  1.00  0.00     0.150 C 
ENDBRANCH   6  12
ENDBRANCH   1   5
BRANCH   2  15
HETATM   15  C   UNL     1      -0.676  -2.116   1.077  1.00  0.00     0.271 C 
BRANCH  15  16
HETATM   16  O   UNL     1      -1.215  -3.416   0.862  1.00  0.00    -0.377 OA
BRANCH  16  17
HETATM   17  C   UNL     1      -2.628  -3.458   0.971  1.00  0.00     0.122 C 
HETATM   18  C   UNL     1      -3.087  -4.919   0.987  1.00  0.00     0.032 C 
HETATM   19  C   UNL     1      -4.303  -5.000   0.066  1.00  0.00     0.002 C 
HETATM   20  C   UNL     1      -4.646  -3.563  -0.296  1.00  0.00     0.002 C 
HETATM   21  C   UNL     1      -3.309  -2.850  -0.247  1.00  0.00     0.032 C 
ENDBRANCH  16  17
ENDBRANCH  15  16
ENDBRANCH   2  15
TORSDOF 5
