REMARK  4 active torsions:
REMARK  status: ('A' for Active; 'I' for Inactive)
REMARK       I    between atoms: C_2  and  N_3 
REMARK       I    between atoms: C_2  and  N_11 
REMARK    1  A    between atoms: N_3  and  C_4 
REMARK    2  A    between atoms: C_4  and  C_5 
REMARK    3  A    between atoms: C_4  and  C_8 
REMARK    4  A    between atoms: N_11  and  C_12 
ROOT
HETATM    1  O   UNL     1       2.252  -1.965   0.569  1.00  0.00    -0.247 OA
HETATM    2  C   UNL     1       2.901  -1.012   0.142  1.00  0.00     0.322 C 
HETATM    3  N   UNL     1       2.922  -0.647  -1.165  1.00  0.00    -0.337 N 
HETATM    4  N   UNL     1       3.667  -0.305   1.014  1.00  0.00    -0.288 N 
HETATM    5  H   UNL     1       3.435   0.186  -1.428  1.00  0.00     0.164 HD
HETATM    6  H   UNL     1       3.687  -0.661   1.956  1.00  0.00     0.172 HD
ENDROOT
BRANCH   3   7
HETATM    7  C   UNL     1       2.256  -1.389  -2.211  1.00  0.00     0.094 C 
BRANCH   7   8
HETATM    8  C   UNL     1       1.400  -0.433  -3.001  1.00  0.00     0.009 A 
HETATM    9  C   UNL     1       0.231   0.268  -2.352  1.00  0.00     0.007 A 
HETATM   10  C   UNL     1      -0.015  -0.814  -3.364  1.00  0.00     0.007 A 
ENDBRANCH   7   8
BRANCH   7  11
HETATM   11  C   UNL     1       3.307  -2.043  -3.078  1.00  0.00     0.009 A 
HETATM   12  C   UNL     1       2.923  -2.885  -4.271  1.00  0.00     0.007 A 
HETATM   13  C   UNL     1       3.491  -3.542  -3.048  1.00  0.00     0.007 A 
ENDBRANCH   7  11
ENDBRANCH   3   7
BRANCH   4  14
HETATM   14  C   UNL     1       4.464   0.756   0.704  1.00  0.00     0.168 A 
HETATM   15  N   UNL     1       4.561   1.421  -0.424  1.00  0.00    -0.279 N 
HETATM   16  N   UNL     1       5.532   2.402  -0.354  1.00  0.00    -0.303 N 
ATOM     17  HN  UNL     1       3.991   1.237  -1.249  1.00  0.00     0.189 HD
HETATM   18  C   UNL     1       6.130   2.411   0.819  1.00  0.00     0.160 A 
ATOM     19  HN  UNL     1       5.758   3.040  -1.117  1.00  0.00     0.186 HD
HETATM   20  S   UNL     1       5.516   1.269   1.944  1.00  0.00    -0.046 SA
ENDBRANCH   4  14
TORSDOF 4
