REMARK  7 active torsions:
REMARK  status: ('A' for Active; 'I' for Inactive)
REMARK    1  A    between atoms: C_2  and  C_4 
REMARK    2  A    between atoms: C_4  and  O_5 
REMARK    3  A    between atoms: C_4  and  C_6 
REMARK    4  A    between atoms: C_6  and  C_7 
REMARK    5  A    between atoms: C_10  and  C_11 
REMARK    6  A    between atoms: C_11  and  C_12 
REMARK       I    between atoms: C_12  and  N_14 
REMARK    7  A    between atoms: N_14  and  C_15 
ROOT
HETATM    1  C   UNL     1       5.138   0.683   2.870  1.00  0.00     0.150 A 
HETATM    2  N   UNL     1       5.694  -0.291   3.553  1.00  0.00    -0.326 N 
ATOM      3  HN  UNL     1       5.959  -1.224   3.239  1.00  0.00     0.169 HD
HETATM    4  C   UNL     1       5.827   0.269   4.797  1.00  0.00     0.112 A 
HETATM    5  N   UNL     1       5.401   1.537   4.894  1.00  0.00    -0.247 N 
ATOM      6  HN  UNL     1       5.414   2.150   5.709  1.00  0.00     0.196 HD
HETATM    7  O   UNL     1       4.935   1.814   3.608  1.00  0.00    -0.223 OA
ENDROOT
BRANCH   4   8
HETATM    8  C   UNL     1       6.333  -0.480   5.963  1.00  0.00     0.181 C 
BRANCH   8   9
HETATM    9  C   UNL     1       5.212  -1.224   6.653  1.00  0.00     0.225 C 
HETATM   10  O   UNL     1       5.219  -2.447   6.764  1.00  0.00    -0.273 OA
HETATM   11  N   UNL     1       4.230  -0.431   7.220  1.00  0.00    -0.356 N 
HETATM   12  H   UNL     1       4.168   0.538   6.920  1.00  0.00     0.162 HD
BRANCH  11  13
HETATM   13  C   UNL     1       3.083  -1.023   7.877  1.00  0.00     0.084 C 
HETATM   14  C   UNL     1       1.922  -1.318   6.923  1.00  0.00     0.025 C 
HETATM   15  C   UNL     1       0.652  -1.191   7.770  1.00  0.00     0.002 C 
HETATM   16  C   UNL     1       1.111  -0.772   9.163  1.00  0.00     0.002 C 
HETATM   17  C   UNL     1       2.461  -0.113   8.928  1.00  0.00     0.025 C 
ENDBRANCH  11  13
ENDBRANCH   8   9
ENDBRANCH   4   8
BRANCH   1  18
HETATM   18  C   UNL     1       4.570   0.650   1.499  1.00  0.00     0.118 C 
BRANCH  18  19
HETATM   19  C   UNL     1       5.228   1.645   0.534  1.00  0.00     0.129 C 
BRANCH  19  20
HETATM   20  C   UNL     1       4.668   1.542  -0.909  1.00  0.00     0.006 C 
HETATM   21  C   UNL     1       5.356   2.550  -1.838  1.00  0.00     0.012 C 
HETATM   22  C   UNL     1       4.796   0.139  -1.506  1.00  0.00     0.012 C 
ENDBRANCH  19  20
BRANCH  19  23
HETATM   23  O   UNL     1       5.010   2.984   0.996  1.00  0.00    -0.395 OA
HETATM   24  H   UNL     1       4.052   3.148   1.045  1.00  0.00     0.210 HD
ENDBRANCH  19  23
ENDBRANCH  18  19
ENDBRANCH   1  18
TORSDOF 7
