REMARK  4 active torsions:
REMARK  status: ('A' for Active; 'I' for Inactive)
REMARK    1  A    between atoms: O_2  and  C_3 
REMARK    2  A    between atoms: C_6  and  N_7 
REMARK       I    between atoms: N_7  and  C_8 
REMARK       I    between atoms: C_8  and  N_10 
REMARK    3  A    between atoms: N_10  and  C_11 
REMARK    4  A    between atoms: C_13  and  C_18 
ROOT
HETATM    1  N   UNL     1       3.516   0.510   4.258  1.00  0.00    -0.337 N 
HETATM    2  C   UNL     1       3.325  -0.191   5.430  1.00  0.00     0.321 C 
HETATM    3  O   UNL     1       2.260  -0.760   5.647  1.00  0.00    -0.247 OA
HETATM    4  N   UNL     1       4.398  -0.173   6.292  1.00  0.00    -0.304 N 
HETATM    5  H   UNL     1       4.422   0.907   4.063  1.00  0.00     0.164 HD
HETATM    6  H   UNL     1       5.270   0.252   5.993  1.00  0.00     0.171 HD
ENDROOT
BRANCH   4   7
HETATM    7  C   UNL     1       4.428  -0.747   7.557  1.00  0.00     0.105 A 
HETATM    8  C   UNL     1       3.394  -1.341   8.176  1.00  0.00     0.052 A 
HETATM    9  C   UNL     1       3.484  -1.913   9.508  1.00  0.00     0.065 A 
HETATM   10  C   UNL     1       4.677  -1.914  10.122  1.00  0.00     0.107 A 
HETATM   11  N   UNL     1       5.774  -1.340   9.527  1.00  0.00    -0.331 N 
HETATM   12  C   UNL     1       5.743  -0.706   8.299  1.00  0.00     0.272 A 
HETATM   13  H   UNL     1       6.664  -1.322  10.013  1.00  0.00     0.168 HD
HETATM   14  O   UNL     1       6.724  -0.144   7.823  1.00  0.00    -0.266 OA
BRANCH   9  15
HETATM   15  C   UNL     1       2.234  -2.450  10.151  1.00  0.00     0.418 C 
HETATM   16  F   UNL     1       1.115  -2.255   9.409  1.00  0.00    -0.166 F 
HETATM   17  F   UNL     1       2.323  -3.785  10.384  1.00  0.00    -0.166 F 
HETATM   18  F   UNL     1       2.007  -1.859  11.353  1.00  0.00    -0.166 F 
ENDBRANCH   9  15
ENDBRANCH   4   7
BRANCH   1  19
HETATM   19  C   UNL     1       2.389   0.554   3.280  1.00  0.00     0.099 C 
HETATM   20  C   UNL     1       2.357  -0.659   2.323  1.00  0.00     0.064 C 
HETATM   21  C   UNL     1       2.939   0.232   1.186  1.00  0.00     0.067 C 
HETATM   22  C   UNL     1       4.439  -0.023   1.016  1.00  0.00     0.047 C 
HETATM   23  C   UNL     1       2.476   1.489   2.039  1.00  0.00     0.004 C 
HETATM   24  C   UNL     1       3.435   2.673   2.087  1.00  0.00     0.020 C 
HETATM   25  C   UNL     1       1.055   1.996   1.701  1.00  0.00     0.020 C 
BRANCH  21  26
HETATM   26  O   UNL     1       2.260   0.048  -0.087  1.00  0.00    -0.384 OA
HETATM   27  C   UNL     1       2.663   0.853  -1.188  1.00  0.00     0.202 C 
ENDBRANCH  21  26
ENDBRANCH   1  19
TORSDOF 4
