REMARK  5 active torsions:
REMARK  status: ('A' for Active; 'I' for Inactive)
REMARK    1  A    between atoms: N_2  and  C_15 
REMARK    2  A    between atoms: C_6  and  N_7 
REMARK    3  A    between atoms: C_15  and  C_16 
REMARK    4  A    between atoms: C_16  and  C_22 
REMARK    5  A    between atoms: C_22  and  O_25 
ROOT
HETATM    1  C   UNL     1       0.349  -0.705   0.081  1.00  0.00     0.122 A 
HETATM    2  N   UNL     1       1.573   1.145   0.056  1.00  0.00    -0.326 N 
HETATM    3  C   UNL     1       0.291   0.677  -0.082  1.00  0.00     0.140 A 
HETATM    4  N   UNL     1       1.667  -1.071   0.317  1.00  0.00    -0.346 N 
ATOM      5  HN  UNL     1       2.024  -2.013   0.476  1.00  0.00     0.167 HD
HETATM    6  C   UNL     1      -0.876  -1.424  -0.036  1.00  0.00     0.135 A 
HETATM    7  C   UNL     1       2.364   0.051   0.293  1.00  0.00     0.185 A 
HETATM    8  N   UNL     1      -0.792   1.427  -0.359  1.00  0.00    -0.336 N 
ATOM      9  HN  UNL     1      -0.785   2.444  -0.441  1.00  0.00     0.168 HD
HETATM   10  N   UNL     1      -1.972  -0.670  -0.375  1.00  0.00    -0.337 N 
ATOM     11  HN  UNL     1      -2.871  -1.129  -0.525  1.00  0.00     0.168 HD
HETATM   12  C   UNL     1      -1.878   0.662  -0.512  1.00  0.00     0.183 A 
ENDROOT
BRANCH   6  13
HETATM   13  N   UNL     1      -1.117  -2.785   0.195  1.00  0.00    -0.364 N 
HETATM   14  C   UNL     1      -0.049  -3.681   0.655  1.00  0.00     0.134 C 
HETATM   15  C   UNL     1      -0.668  -4.958   1.371  1.00  0.00    -0.021 C 
HETATM   16  C   UNL     1      -1.645  -5.606   0.319  1.00  0.00    -0.007 C 
HETATM   17  C   UNL     1       0.482  -5.921   1.769  1.00  0.00     0.011 C 
HETATM   18  C   UNL     1      -1.314  -4.457   2.698  1.00  0.00     0.011 C 
HETATM   19  C   UNL     1      -2.266  -6.980   0.572  1.00  0.00     0.011 C 
HETATM   20  C   UNL     1      -2.753  -4.611  -0.041  1.00  0.00     0.025 C 
HETATM   21  C   UNL     1      -2.150  -3.363  -0.672  1.00  0.00     0.125 C 
HETATM   22  C   UNL     1       0.094  -7.045   2.738  1.00  0.00     0.001 C 
HETATM   23  C   UNL     1      -0.759  -6.608   3.926  1.00  0.00     0.000 C 
HETATM   24  C   UNL     1      -1.819  -5.556   3.622  1.00  0.00     0.001 C 
ENDBRANCH   6  13
BRANCH   2  25
HETATM   25  C   UNL     1       1.989   2.554   0.004  1.00  0.00     0.143 C 
BRANCH  25  26
HETATM   26  C   UNL     1       2.341   3.121  -1.418  1.00  0.00     0.001 C 
HETATM   27  C   UNL     1       3.662   2.491  -1.918  1.00  0.00     0.039 C 
HETATM   28  C   UNL     1       4.877   3.102  -1.220  1.00  0.00     0.168 C 
HETATM   29  O   UNL     1       4.948   4.486  -1.526  1.00  0.00    -0.391 OA
HETATM   30  C   UNL     1       3.864   5.218  -0.971  1.00  0.00     0.168 C 
HETATM   31  C   UNL     1       2.515   4.677  -1.425  1.00  0.00     0.039 C 
BRANCH  26  32
HETATM   32  C   UNL     1       1.178   2.839  -2.401  1.00  0.00     0.175 C 
BRANCH  32  33
HETATM   33  O   UNL     1      -0.009   3.497  -1.964  1.00  0.00    -0.400 OA
HETATM   34  H   UNL     1      -0.437   2.914  -1.301  1.00  0.00     0.209 HD
ENDBRANCH  32  33
ENDBRANCH  26  32
ENDBRANCH  25  26
ENDBRANCH   2  25
TORSDOF 5
