REMARK  5 active torsions:
REMARK  status: ('A' for Active; 'I' for Inactive)
REMARK    1  A    between atoms: C_5  and  C_7 
REMARK    2  A    between atoms: N_12  and  C_13 
REMARK    3  A    between atoms: C_13  and  C_14 
REMARK    4  A    between atoms: C_14  and  O_15 
REMARK    5  A    between atoms: C_14  and  C_16 
ROOT
HETATM    1  C   UNL     1       5.768  -1.685   0.131  1.00  0.00     0.065 C 
HETATM    2  C   UNL     1       7.131  -1.150   0.368  1.00  0.00     0.038 C 
HETATM    3  C   UNL     1       8.133  -2.019   0.506  1.00  0.00     0.078 C 
HETATM    4  C   UNL     1       7.886  -3.468   0.385  1.00  0.00     0.262 C 
HETATM    5  O   UNL     1       8.818  -4.250   0.551  1.00  0.00    -0.267 OA
HETATM    6  N   UNL     1       6.595  -3.835   0.036  1.00  0.00    -0.254 N 
HETATM    7  N   UNL     1       5.530  -2.955  -0.042  1.00  0.00    -0.294 N 
ATOM      8  HN  UNL     1       4.585  -3.291  -0.230  1.00  0.00     0.187 HD
ENDROOT
BRANCH   6   9
HETATM    9  C   UNL     1       6.311  -5.240  -0.261  1.00  0.00     0.189 C 
BRANCH   9  10
HETATM   10  C   UNL     1       5.911  -6.044   0.990  1.00  0.00     0.171 C 
BRANCH  10  11
HETATM   11  O   UNL     1       4.718  -5.504   1.574  1.00  0.00    -0.389 OA
HETATM   12  H   UNL     1       4.657  -4.579   1.265  1.00  0.00     0.210 HD
ENDBRANCH  10  11
BRANCH  10  13
HETATM   13  C   UNL     1       5.655  -7.490   0.608  1.00  0.00    -0.025 A 
HETATM   14  C   UNL     1       6.701  -8.430   0.619  1.00  0.00     0.010 A 
HETATM   15  C   UNL     1       6.486  -9.743   0.181  1.00  0.00     0.004 A 
HETATM   16  C   UNL     1       5.227 -10.131  -0.272  1.00  0.00     0.042 A 
HETATM   17  C   UNL     1       4.189  -9.208  -0.276  1.00  0.00     0.117 A 
HETATM   18  F   UNL     1       2.979  -9.576  -0.718  1.00  0.00    -0.206 F 
HETATM   19  C   UNL     1       4.391  -7.902   0.156  1.00  0.00     0.052 A 
ENDBRANCH  10  13
ENDBRANCH   9  10
ENDBRANCH   6   9
BRANCH   1  20
HETATM   20  C   UNL     1       4.646  -0.756   0.061  1.00  0.00     0.033 A 
HETATM   21  C   UNL     1       3.442  -0.923  -0.600  1.00  0.00     0.022 A 
HETATM   22  C   UNL     1       2.572   0.199  -0.455  1.00  0.00     0.015 A 
HETATM   23  C   UNL     1       3.123   1.185   0.334  1.00  0.00    -0.021 A 
HETATM   24  C   UNL     1       2.547   2.502   0.727  1.00  0.00     0.056 C 
HETATM   25  S   UNL     1       4.674   0.745   0.893  1.00  0.00    -0.093 SA
ENDBRANCH   1  20
TORSDOF 5
