REMARK  4 active torsions:
REMARK  status: ('A' for Active; 'I' for Inactive)
REMARK    1  A    between atoms: C_2  and  N_3 
REMARK    2  A    between atoms: C_6  and  N_10 
REMARK       I    between atoms: N_10  and  C_11 
REMARK       I    between atoms: C_11  and  N_13 
REMARK    3  A    between atoms: N_13  and  C_14 
REMARK    4  A    between atoms: C_18  and  C_22 
ROOT
HETATM    1  N   UNL     1       1.263  -2.132  -4.033  1.00  0.00    -0.338 N 
HETATM    2  C   UNL     1       0.527  -1.573  -5.053  1.00  0.00     0.321 C 
HETATM    3  O   UNL     1      -0.377  -0.768  -4.864  1.00  0.00    -0.247 OA
HETATM    4  N   UNL     1       0.880  -2.095  -6.279  1.00  0.00    -0.306 N 
HETATM    5  H   UNL     1       2.241  -2.264  -4.242  1.00  0.00     0.164 HD
HETATM    6  H   UNL     1       1.216  -3.048  -6.237  1.00  0.00     0.171 HD
ENDROOT
BRANCH   4   7
HETATM    7  C   UNL     1       0.208  -1.696  -7.456  1.00  0.00     0.067 A 
HETATM    8  C   UNL     1      -0.182  -0.397  -7.711  1.00  0.00     0.120 A 
HETATM    9  N   UNL     1      -0.874  -0.021  -8.807  1.00  0.00    -0.353 N 
HETATM   10  C   UNL     1      -1.207  -0.989  -9.680  1.00  0.00     0.088 A 
ATOM     11  HN  UNL     1      -1.133   0.953  -8.966  1.00  0.00     0.166 HD
HETATM   12  N   UNL     1      -0.848  -2.284  -9.539  1.00  0.00    -0.353 N 
HETATM   13  C   UNL     1      -0.137  -2.602  -8.434  1.00  0.00     0.120 A 
ATOM     14  HN  UNL     1      -1.101  -2.988 -10.233  1.00  0.00     0.166 HD
BRANCH  10  15
HETATM   15  C   UNL     1      -2.060  -0.612 -10.889  1.00  0.00     0.007 C 
HETATM   16  C   UNL     1      -2.311   0.910 -10.958  1.00  0.00     0.022 C 
HETATM   17  C   UNL     1      -1.334  -1.045 -12.173  1.00  0.00     0.022 C 
HETATM   18  C   UNL     1      -3.422  -1.321 -10.799  1.00  0.00     0.022 C 
ENDBRANCH  10  15
ENDBRANCH   4   7
BRANCH   1  19
HETATM   19  C   UNL     1       0.897  -1.846  -2.641  1.00  0.00     0.089 C 
HETATM   20  C   UNL     1       1.388  -0.475  -2.169  1.00  0.00     0.055 C 
HETATM   21  C   UNL     1       2.874  -0.485  -1.803  1.00  0.00     0.275 C 
HETATM   22  N   UNL     1       3.261  -1.549  -0.857  1.00  0.00     0.092 N 
HETATM   23  C   UNL     1       2.872  -2.868  -1.408  1.00  0.00     0.221 C 
HETATM   24  C   UNL     1       1.370  -2.966  -1.716  1.00  0.00     0.060 C 
HETATM   25  C   UNL     1       3.316  -4.060  -0.554  1.00  0.00     0.043 C 
BRANCH  22  26
HETATM   26  C   UNL     1       2.796  -1.304   0.519  1.00  0.00     0.268 C 
HETATM   27  C   UNL     1       3.468  -0.101   1.179  1.00  0.00     0.037 C 
ENDBRANCH  22  26
ENDBRANCH   1  19
TORSDOF 4
