REMARK  3 active torsions:
REMARK  status: ('A' for Active; 'I' for Inactive)
REMARK    1  A    between atoms: C_5  and  C_6 
REMARK    2  A    between atoms: C_6  and  C_7 
REMARK    3  A    between atoms: C_7  and  N_8 
REMARK       I    between atoms: N_8  and  C_9 
REMARK       I    between atoms: C_9  and  N_11 
ROOT
HETATM    1  C   UNL     1       7.057   0.918   0.119  1.00  0.00     0.130 C 
ENDROOT
BRANCH   1   2
HETATM    2  C   UNL     1       5.677   1.581   0.057  1.00  0.00     0.077 C 
BRANCH   2   3
HETATM    3  C   UNL     1       4.567   0.584  -0.039  1.00  0.00     0.018 A 
HETATM    4  N   UNL     1       4.492  -0.236  -1.154  1.00  0.00    -0.357 N 
HETATM    5  C   UNL     1       3.440  -1.021  -1.066  1.00  0.00     0.046 A 
ATOM      6  HN  UNL     1       5.155  -0.231  -1.929  1.00  0.00     0.166 HD
HETATM    7  C   UNL     1       3.048  -2.025  -2.092  1.00  0.00     0.076 C 
HETATM    8  S   UNL     1       2.486  -0.828   0.350  1.00  0.00    -0.087 SA
HETATM    9  C   UNL     1       3.556   0.395   0.886  1.00  0.00     0.076 A 
ENDBRANCH   2   3
ENDBRANCH   1   2
BRANCH   1  10
HETATM   10  N   UNL     1       8.153   1.868   0.259  1.00  0.00    -0.343 N 
HETATM   11  C   UNL     1       8.294   2.612   1.401  1.00  0.00     0.318 C 
HETATM   12  O   UNL     1       7.468   2.607   2.310  1.00  0.00    -0.247 OA
HETATM   13  N   UNL     1       9.406   3.385   1.446  1.00  0.00    -0.334 N 
HETATM   14  C   UNL     1       9.819   4.330   2.466  1.00  0.00     0.129 C 
HETATM   15  C   UNL     1      10.560   3.614   0.608  1.00  0.00     0.129 C 
HETATM   16  C   UNL     1      11.227   4.172   1.878  1.00  0.00     0.040 C 
HETATM   17  H   UNL     1       9.006   1.663  -0.235  1.00  0.00     0.164 HD
ENDBRANCH   1  10
TORSDOF 3
