REMARK  7 active torsions:
REMARK  status: ('A' for Active; 'I' for Inactive)
REMARK    1  A    between atoms: C_2  and  O_3 
REMARK    2  A    between atoms: O_3  and  C_4 
REMARK    3  A    between atoms: C_6  and  N_7 
REMARK    4  A    between atoms: N_7  and  C_8 
REMARK    5  A    between atoms: C_8  and  C_9 
REMARK    6  A    between atoms: C_9  and  O_11 
REMARK    7  A    between atoms: C_9  and  C_12 
ROOT
HETATM    1  N   UNL     1       6.268   1.043  -2.569  1.00  0.00     0.092 N 
HETATM    2  H   UNL     1       7.120   0.951  -2.021  1.00  0.00     0.316 HD
ENDROOT
BRANCH   1   3
HETATM    3  C   UNL     1       5.032   1.002  -1.782  1.00  0.00     0.234 C 
HETATM    4  C   UNL     1       5.008   2.193  -0.782  1.00  0.00     0.069 C 
HETATM    5  C   UNL     1       4.342   1.193   0.234  1.00  0.00     0.134 C 
HETATM    6  C   UNL     1       5.108   0.121  -0.554  1.00  0.00     0.017 C 
HETATM    7  C   UNL     1       6.421  -0.334   0.075  1.00  0.00     0.014 C 
HETATM    8  C   UNL     1       4.625  -1.309  -0.597  1.00  0.00     0.014 C 
HETATM    9  C   UNL     1       5.648  -1.596   0.532  1.00  0.00     0.002 C 
BRANCH   5  10
HETATM   10  O   UNL     1       2.895   1.194   0.157  1.00  0.00    -0.385 OA
BRANCH  10  11
HETATM   11  C   UNL     1       2.185   0.459   1.147  1.00  0.00     0.163 C 
HETATM   12  C   UNL     1       0.705   0.737   0.982  1.00  0.00     0.033 C 
ENDBRANCH  10  11
ENDBRANCH   5  10
ENDBRANCH   1   3
BRANCH   1  13
HETATM   13  C   UNL     1       6.215  -0.051  -3.565  1.00  0.00     0.312 C 
BRANCH  13  14
HETATM   14  C   UNL     1       7.487  -0.181  -4.455  1.00  0.00     0.110 C 
HETATM   15  C   UNL     1       7.713   1.086  -5.290  1.00  0.00     0.053 C 
BRANCH  14  16
HETATM   16  O   UNL     1       8.618  -0.332  -3.573  1.00  0.00    -0.383 OA
HETATM   17  H   UNL     1       8.804   0.548  -3.208  1.00  0.00     0.211 HD
ENDBRANCH  14  16
BRANCH  14  18
HETATM   18  C   UNL     1       7.367  -1.396  -5.342  1.00  0.00     0.011 A 
HETATM   19  C   UNL     1       6.392  -1.656  -6.339  1.00  0.00     0.119 A 
HETATM   20  N   UNL     1       6.550  -2.845  -6.923  1.00  0.00    -0.310 N 
HETATM   21  N   UNL     1       7.629  -3.357  -6.308  1.00  0.00    -0.307 N 
ATOM     22  HN  UNL     1       5.986  -3.265  -7.661  1.00  0.00     0.186 HD
HETATM   23  C   UNL     1       8.113  -4.667  -6.662  1.00  0.00     0.177 C 
HETATM   24  C   UNL     1       8.155  -2.531  -5.361  1.00  0.00     0.121 A 
ENDBRANCH  14  18
ENDBRANCH  13  14
ENDBRANCH   1  13
TORSDOF 7
