REMARK  1 active torsions:
REMARK  status: ('A' for Active; 'I' for Inactive)
REMARK    1  A    between atoms: N_7  and  C_10 
ROOT
HETATM    1  C   UNL     1       1.548   0.304  -0.655  1.00  0.00     0.090 C 
HETATM    2  C   UNL     1       2.960   0.065  -0.303  1.00  0.00     0.093 A 
HETATM    3  N   UNL     1       3.363  -1.076   0.334  1.00  0.00    -0.334 N 
ATOM      4  HN  UNL     1       2.789  -1.857   0.650  1.00  0.00     0.168 HD
HETATM    5  C   UNL     1       4.665  -0.929   0.443  1.00  0.00     0.096 A 
HETATM    6  C   UNL     1       5.595  -1.900   1.063  1.00  0.00     0.091 C 
HETATM    7  N   UNL     1       5.033   0.268  -0.134  1.00  0.00    -0.273 N 
HETATM    8  N   UNL     1       3.942   0.933  -0.568  1.00  0.00    -0.285 N 
ATOM      9  HN  UNL     1       3.882   1.860  -0.990  1.00  0.00     0.188 HD
ENDROOT
BRANCH   7  10
HETATM   10  C   UNL     1       6.379   0.818  -0.249  1.00  0.00     0.138 C 
HETATM   11  C   UNL     1       6.478   2.353  -0.297  1.00  0.00     0.031 C 
HETATM   12  C   UNL     1       6.258   2.932  -1.695  1.00  0.00     0.032 C 
HETATM   13  C   UNL     1       7.045   2.190  -2.773  1.00  0.00     0.270 C 
HETATM   14  N   UNL     1       6.819   0.747  -2.728  1.00  0.00     0.085 N 
HETATM   15  C   UNL     1       7.164   0.191  -1.419  1.00  0.00     0.296 C 
HETATM   16  H   UNL     1       7.361   0.290  -3.461  1.00  0.00     0.315 HD
ENDBRANCH   7  10
TORSDOF 1
