REMARK  2 active torsions:
REMARK  status: ('A' for Active; 'I' for Inactive)
REMARK       I    between atoms: N_2  and  C_3 
REMARK       I    between atoms: C_3  and  N_5 
REMARK    1  A    between atoms: N_5  and  C_6 
REMARK    2  A    between atoms: C_9  and  N_13 
ROOT
HETATM    1  C   UNL     1       5.380  -1.667   2.043  1.00  0.00     0.051 A 
HETATM    2  C   UNL     1       6.405  -1.145   2.813  1.00  0.00     0.035 A 
HETATM    3  C   UNL     1       7.082  -1.962   3.722  1.00  0.00     0.051 A 
HETATM    4  C   UNL     1       6.741  -3.306   3.858  1.00  0.00     0.103 A 
HETATM    5  N   UNL     1       5.702  -3.811   3.154  1.00  0.00    -0.350 N 
ATOM      6  HN  UNL     1       5.412  -4.781   3.278  1.00  0.00     0.166 HD
HETATM    7  C   UNL     1       5.052  -2.998   2.277  1.00  0.00     0.119 A 
ENDROOT
BRANCH   1   8
HETATM    8  N   UNL     1       4.676  -0.915   1.076  1.00  0.00    -0.308 N 
HETATM    9  C   UNL     1       5.132   0.255   0.504  1.00  0.00     0.320 C 
HETATM   10  N   UNL     1       4.188   0.809  -0.338  1.00  0.00    -0.347 N 
HETATM   11  O   UNL     1       6.234   0.762   0.667  1.00  0.00    -0.247 OA
HETATM   12  C   UNL     1       4.522   2.044  -1.009  1.00  0.00     0.151 C 
HETATM   13  H   UNL     1       3.230   0.698  -0.041  1.00  0.00     0.163 HD
HETATM   14  H   UNL     1       3.930  -1.378   0.578  1.00  0.00     0.170 HD
ENDBRANCH   1   8
BRANCH   4  15
HETATM   15  N   UNL     1       7.436  -4.140   4.708  1.00  0.00    -0.367 N 
HETATM   16  C   UNL     1       7.126  -5.565   4.738  1.00  0.00     0.124 C 
HETATM   17  C   UNL     1       8.360  -6.218   5.364  1.00  0.00     0.021 C 
HETATM   18  C   UNL     1       9.475  -5.207   5.157  1.00  0.00     0.021 C 
HETATM   19  C   UNL     1       8.765  -3.862   5.229  1.00  0.00     0.124 C 
ENDBRANCH   4  15
TORSDOF 2
