REMARK  4 active torsions:
REMARK  status: ('A' for Active; 'I' for Inactive)
REMARK    1  A    between atoms: N_3  and  C_4 
REMARK    2  A    between atoms: C_4  and  C_5 
REMARK    3  A    between atoms: C_5  and  C_6 
REMARK    4  A    between atoms: C_9  and  N_10 
ROOT
HETATM    1  C   UNL     2       4.541   0.121  -1.271  1.00  0.00     0.164 A 
HETATM    2  N   UNL     2       5.166  -0.910  -0.673  1.00  0.00    -0.171 N 
ATOM      3  HN  UNL     2       4.765  -1.680  -0.137  1.00  0.00     0.186 HD
HETATM    4  C   UNL     2       6.457  -0.664  -0.964  1.00  0.00     0.697 A 
HETATM    5  N   UNL     2       6.608   0.452  -1.699  1.00  0.00    -0.090 N 
ATOM      6  HN  UNL     2       7.479   0.852  -2.047  1.00  0.00     0.213 HD
HETATM    7  O   UNL     2       5.403   0.912  -1.870  1.00  0.00    -0.209 OA
ENDROOT
BRANCH   1   8
HETATM    8  C   UNL     2       3.060   0.330  -1.274  1.00  0.00     0.117 C 
BRANCH   8   9
HETATM    9  C   UNL     2       2.514   0.485   0.150  1.00  0.00     0.274 C 
BRANCH   9  10
HETATM   10  N   UNL     2       1.070   0.695   0.117  1.00  0.00     0.078 N 
HETATM   11  H   UNL     2       0.720   0.751   1.100  1.00  0.00     0.312 HD
HETATM   12  H   UNL     2       0.608  -0.125  -0.337  1.00  0.00     0.312 HD
ENDBRANCH   9  10
ENDBRANCH   8   9
ENDBRANCH   1   8
BRANCH   4  13
HETATM   13  N   UNL     2       7.529  -1.485  -0.550  1.00  0.00    -0.233 N 
HETATM   14  H   UNL     2       7.349  -2.326   0.016  1.00  0.00     0.174 HD
HETATM   15  H   UNL     2       8.494  -1.246  -0.814  1.00  0.00     0.174 HD
ENDBRANCH   4  13
TORSDOF 4
