REMARK  4 active torsions:
REMARK  status: ('A' for Active; 'I' for Inactive)
REMARK       I    between atoms: C_2  and  N_3 
REMARK    1  A    between atoms: C_2  and  C_13 
REMARK    2  A    between atoms: N_3  and  C_4 
REMARK    3  A    between atoms: C_4  and  C_5 
REMARK    4  A    between atoms: C_5  and  C_6 
REMARK       I    between atoms: N_17  and  C_19 
REMARK       I    between atoms: C_19  and  N_21 
ROOT
HETATM    1  C   UNL     1       2.921   0.644  -0.876  1.00  0.00     0.096 C 
HETATM    2  C   UNL     1       3.380   2.014  -0.359  1.00  0.00     0.017 C 
HETATM    3  C   UNL     1       2.202   2.975  -0.234  1.00  0.00     0.021 C 
HETATM    4  C   UNL     1       1.458   3.087  -1.560  1.00  0.00     0.127 C 
HETATM    5  N   UNL     1       0.998   1.780  -2.022  1.00  0.00    -0.333 N 
HETATM    6  C   UNL     1       2.096   0.805  -2.165  1.00  0.00     0.141 C 
HETATM    7  C   UNL     1      -0.268   1.339  -2.373  1.00  0.00     0.320 C 
HETATM    8  O   UNL     1      -0.413   0.208  -2.859  1.00  0.00    -0.247 OA
HETATM    9  N   UNL     1      -1.383   2.124  -2.217  1.00  0.00    -0.334 N 
HETATM   10  C   UNL     1      -1.560   3.493  -1.769  1.00  0.00     0.127 C 
HETATM   11  C   UNL     1      -3.031   3.837  -1.982  1.00  0.00     0.022 C 
HETATM   12  C   UNL     1      -3.542   2.737  -2.895  1.00  0.00     0.022 C 
HETATM   13  C   UNL     1      -2.689   1.546  -2.503  1.00  0.00     0.127 C 
ENDROOT
BRANCH   1  14
HETATM   14  C   UNL     1       2.142  -0.132   0.185  1.00  0.00     0.223 C 
HETATM   15  O   UNL     1       1.008  -0.566   0.022  1.00  0.00    -0.273 OA
HETATM   16  N   UNL     1       2.823  -0.326   1.371  1.00  0.00    -0.360 N 
HETATM   17  H   UNL     1       3.823  -0.181   1.393  1.00  0.00     0.162 HD
BRANCH  16  18
HETATM   18  C   UNL     1       2.182  -1.073   2.439  1.00  0.00     0.128 C 
BRANCH  18  19
HETATM   19  C   UNL     1       3.051  -1.175   3.684  1.00  0.00     0.076 C 
BRANCH  19  20
HETATM   20  C   UNL     1       2.328  -1.897   4.788  1.00  0.00     0.010 A 
HETATM   21  C   UNL     1       1.550  -1.194   5.705  1.00  0.00     0.025 A 
HETATM   22  C   UNL     1       0.883  -1.900   6.702  1.00  0.00     0.003 A 
HETATM   23  C   UNL     1       1.001  -3.283   6.752  1.00  0.00     0.017 A 
HETATM   24  C   UNL     1       1.784  -3.906   5.794  1.00  0.00     0.088 A 
HETATM   25  N   UNL     1       2.448  -3.246   4.821  1.00  0.00    -0.369 N 
ATOM     26  HN  UNL     1       3.018  -3.744   4.137  1.00  0.00     0.165 HD
ENDBRANCH  19  20
ENDBRANCH  18  19
ENDBRANCH  16  18
ENDBRANCH   1  14
TORSDOF 4
