REMARK  5 active torsions:
REMARK  status: ('A' for Active; 'I' for Inactive)
REMARK    1  A    between atoms: C_2  and  C_3 
REMARK    2  A    between atoms: C_2  and  N_14 
REMARK       I    between atoms: C_3  and  N_5 
REMARK    3  A    between atoms: N_5  and  C_6 
REMARK    4  A    between atoms: C_6  and  C_7 
REMARK    5  A    between atoms: C_7  and  N_8 
ROOT
HETATM    1  C   UNL     1       2.913   1.437  -0.642  1.00  0.00     0.242 C 
HETATM    2  O   UNL     1       3.596   2.259  -0.031  1.00  0.00    -0.271 OA
HETATM    3  N   UNL     1       2.693   1.538  -2.009  1.00  0.00    -0.358 N 
HETATM    4  H   UNL     1       2.401   0.707  -2.517  1.00  0.00     0.162 HD
ENDROOT
BRANCH   1   5
HETATM    5  C   UNL     1       2.219   0.289   0.077  1.00  0.00     0.196 C 
HETATM    6  C   UNL     1       2.383   0.412   1.594  1.00  0.00     0.044 C 
BRANCH   5   7
HETATM    7  N   UNL     1       2.713  -0.992  -0.392  1.00  0.00    -0.273 N 
HETATM    8  C   UNL     1       3.980  -1.485  -0.335  1.00  0.00     0.202 A 
HETATM    9  N   UNL     1       3.992  -2.714  -0.799  1.00  0.00    -0.346 N 
HETATM   10  C   UNL     1       2.687  -2.932  -1.132  1.00  0.00     0.198 A 
ATOM     11  HN  UNL     1       4.784  -3.350  -0.889  1.00  0.00     0.167 HD
HETATM   12  N   UNL     1       1.868  -1.897  -0.927  1.00  0.00    -0.292 N 
ATOM     13  HN  UNL     1       0.870  -1.813  -1.123  1.00  0.00     0.188 HD
ENDBRANCH   5   7
ENDBRANCH   1   5
BRANCH   3  14
HETATM   14  C   UNL     1       3.384   2.591  -2.742  1.00  0.00     0.152 C 
BRANCH  14  15
HETATM   15  C   UNL     1       2.721   3.013  -4.068  1.00  0.00     0.292 C 
BRANCH  15  16
HETATM   16  N   UNL     1       3.446   4.111  -4.744  1.00  0.00     0.090 N 
HETATM   17  C   UNL     1       3.515   5.362  -3.969  1.00  0.00     0.272 C 
HETATM   18  C   UNL     1       2.180   6.100  -3.871  1.00  0.00     0.030 C 
HETATM   19  C   UNL     1       1.646   6.413  -5.262  1.00  0.00     0.003 C 
HETATM   20  C   UNL     1       1.598   5.148  -6.122  1.00  0.00     0.030 C 
HETATM   21  C   UNL     1       2.927   4.388  -6.093  1.00  0.00     0.272 C 
ENDBRANCH  15  16
ENDBRANCH  14  15
ENDBRANCH   3  14
TORSDOF 5
