REMARK  1 active torsions:
REMARK  status: ('A' for Active; 'I' for Inactive)
REMARK    1  A    between atoms: C_4  and  C_8 
ROOT
HETATM    1  C   UNL     1       5.928   1.390  -0.041  1.00  0.00     0.142 C 
HETATM    2  C   UNL     1       6.429   1.284  -1.478  1.00  0.00     0.055 C 
HETATM    3  N   UNL     1       6.935   0.915   0.886  1.00  0.00    -0.321 N 
HETATM    4  C   UNL     1       7.514   1.929   1.603  1.00  0.00     0.324 C 
HETATM    5  O   UNL     1       8.404   1.787   2.420  1.00  0.00    -0.247 OA
HETATM    6  N   UNL     1       6.918   3.094   1.265  1.00  0.00    -0.277 N 
HETATM    7  C   UNL     1       5.909   2.877   0.377  1.00  0.00     0.258 C 
HETATM    8  O   UNL     1       5.159   3.749  -0.042  1.00  0.00    -0.270 OA
HETATM    9  H   UNL     1       7.210  -0.047   1.015  1.00  0.00     0.165 HD
HETATM   10  H   UNL     1       7.131   3.980   1.689  1.00  0.00     0.173 HD
ENDROOT
BRANCH   1  11
HETATM   11  C   UNL     1       4.641   0.665   0.194  1.00  0.00     0.013 A 
HETATM   12  C   UNL     1       4.438  -0.670   0.507  1.00  0.00     0.121 A 
HETATM   13  N   UNL     1       3.089  -0.849   0.608  1.00  0.00    -0.307 N 
HETATM   14  C   UNL     1       2.393  -2.063   0.962  1.00  0.00     0.177 C 
HETATM   15  N   UNL     1       2.386   0.262   0.345  1.00  0.00    -0.310 N 
HETATM   16  C   UNL     1       3.323   1.180   0.094  1.00  0.00     0.118 A 
ATOM     17  HN  UNL     1       1.373   0.379   0.338  1.00  0.00     0.186 HD
ENDBRANCH   1  11
TORSDOF 1
