REMARK  3 active torsions:
REMARK  status: ('A' for Active; 'I' for Inactive)
REMARK       I    between atoms: C_2  and  N_3 
REMARK       I    between atoms: C_2  and  N_19 
REMARK    1  A    between atoms: N_3  and  C_4 
REMARK       I    between atoms: N_7  and  C_10 
REMARK       I    between atoms: C_10  and  N_12 
REMARK    2  A    between atoms: N_12  and  C_13 
REMARK    3  A    between atoms: N_19  and  C_20 
ROOT
HETATM    1  C   UNL     1       2.210  -1.912   1.386  1.00  0.00     0.089 C 
HETATM    2  C   UNL     1       2.208  -3.221   0.583  1.00  0.00     0.045 C 
HETATM    3  C   UNL     1       1.444  -3.120  -0.744  1.00  0.00     0.129 C 
HETATM    4  N   UNL     1       0.135  -2.481  -0.602  1.00  0.00    -0.334 N 
HETATM    5  C   UNL     1       0.120  -1.238   0.166  1.00  0.00     0.129 C 
HETATM    6  C   UNL     1       0.759  -1.434   1.531  1.00  0.00     0.045 C 
HETATM    7  C   UNL     1      -1.032  -2.816  -1.267  1.00  0.00     0.318 C 
HETATM    8  O   UNL     1      -2.093  -2.223  -1.082  1.00  0.00    -0.247 OA
HETATM    9  N   UNL     1      -0.951  -3.872  -2.136  1.00  0.00    -0.338 N 
HETATM   10  H   UNL     1      -0.062  -3.998  -2.591  1.00  0.00     0.164 HD
ENDROOT
BRANCH   1  11
HETATM   11  N   UNL     1       3.088  -0.913   0.766  1.00  0.00    -0.338 N 
HETATM   12  C   UNL     1       3.259   0.333   1.349  1.00  0.00     0.321 C 
HETATM   13  O   UNL     1       2.750   0.642   2.417  1.00  0.00    -0.247 OA
HETATM   14  N   UNL     1       3.995   1.158   0.522  1.00  0.00    -0.309 N 
HETATM   15  H   UNL     1       4.126   0.810  -0.416  1.00  0.00     0.170 HD
HETATM   16  H   UNL     1       3.945  -1.267   0.363  1.00  0.00     0.164 HD
BRANCH  14  17
HETATM   17  C   UNL     1       4.211   2.540   0.722  1.00  0.00     0.038 A 
HETATM   18  C   UNL     1       4.027   3.178   1.946  1.00  0.00     0.046 A 
HETATM   19  C   UNL     1       4.162   4.556   2.000  1.00  0.00     0.090 A 
HETATM   20  N   UNL     1       4.484   5.323   0.938  1.00  0.00    -0.375 N 
HETATM   21  C   UNL     1       4.694   4.679  -0.227  1.00  0.00     0.090 A 
ATOM     22  HN  UNL     1       4.564   6.337   1.013  1.00  0.00     0.164 HD
HETATM   23  C   UNL     1       4.587   3.306  -0.382  1.00  0.00     0.046 A 
ENDBRANCH  14  17
ENDBRANCH   1  11
BRANCH   9  24
HETATM   24  C   UNL     1      -2.135  -4.276  -2.895  1.00  0.00     0.086 C 
HETATM   25  C   UNL     1      -2.072  -5.759  -3.269  1.00  0.00     0.025 C 
HETATM   26  C   UNL     1      -1.063  -6.048  -4.377  1.00  0.00     0.002 C 
HETATM   27  C   UNL     1      -1.310  -5.172  -5.603  1.00  0.00     0.000 C 
HETATM   28  C   UNL     1      -1.327  -3.691  -5.242  1.00  0.00     0.002 C 
HETATM   29  C   UNL     1      -2.337  -3.391  -4.135  1.00  0.00     0.025 C 
ENDBRANCH   9  24
TORSDOF 3
