REMARK  6 active torsions:
REMARK  status: ('A' for Active; 'I' for Inactive)
REMARK    1  A    between atoms: CA_2  and  C_3 
REMARK    2  A    between atoms: CA_2  and  N_5 
REMARK    3  A    between atoms: C_3  and  O_4 
REMARK       I    between atoms: N_5  and  C_8 
REMARK       I    between atoms: C_8  and  N_10 
REMARK    4  A    between atoms: N_10  and  C_11 
REMARK    5  A    between atoms: C_11  and  C_12 
REMARK    6  A    between atoms: C_15  and  N_19 
ROOT
HETATM    1  C   UNK A   0       6.410   3.777   3.080  1.00  0.00    -0.025 A 
HETATM    2  C   UNK A   0       5.732   4.967   2.847  1.00  0.00     0.014 A 
HETATM    3  C   UNK A   0       5.988   6.084   3.651  1.00  0.00     0.049 A 
HETATM    4  C   UNK A   0       6.912   6.014   4.695  1.00  0.00     0.103 A 
HETATM    5  N   UNK A   0       7.553   4.849   4.935  1.00  0.00    -0.352 N 
ATOM      6  HN  UNK A   0       8.219   4.777   5.705  1.00  0.00     0.166 HD
HETATM    7  C   UNK A   0       7.303   3.777   4.143  1.00  0.00     0.098 A 
ENDROOT
BRANCH   1   8
HETATM    8  C   UNK A   0       6.205   2.562   2.225  1.00  0.00     0.164 C 
BRANCH   8   9
HETATM    9  N   UNK A   0       5.158   1.691   2.706  1.00  0.00    -0.339 N 
HETATM   10  C   UNK A   0       4.809   0.597   1.964  1.00  0.00     0.316 C 
ATOM     11  N   ALA A   1       3.704  -0.051   2.447  1.00  0.00    -0.337 N 
HETATM   12  O   UNK A   0       5.407   0.245   0.956  1.00  0.00    -0.247 OA
ATOM     13  H   ALA A   1       3.387   0.149   3.383  1.00  0.00     0.164 HD
HETATM   14  H   UNK A   0       4.526   2.021   3.417  1.00  0.00     0.164 HD
BRANCH  11  15
ATOM     15  CA  ALA A   1       3.192  -1.268   1.816  1.00  0.00     0.105 C 
ATOM     16  CB  ALA A   1       3.898  -2.502   2.379  1.00  0.00     0.034 C 
BRANCH  15  17
ATOM     17  C   ALA A   1       1.667  -1.358   1.990  1.00  0.00     0.189 C 
BRANCH  17  18
ATOM     18  O   ALA A   1       1.302  -1.451   3.369  1.00  0.00    -0.399 OA
ATOM     19  H   ALA A   1       1.463  -2.370   3.648  1.00  0.00     0.209 HD
ENDBRANCH  17  18
ENDBRANCH  15  17
ENDBRANCH  11  15
ENDBRANCH   8   9
ENDBRANCH   1   8
BRANCH   4  20
HETATM   20  N   UNK A   0       7.142   7.087   5.532  1.00  0.00    -0.362 N 
HETATM   21  C   UNK A   0       7.091   8.485   5.085  1.00  0.00     0.156 C 
HETATM   22  C   UNK A   0       8.496   9.131   5.135  1.00  0.00     0.136 C 
HETATM   23  C   UNK A   0       8.413  10.627   4.853  1.00  0.00     0.041 C 
HETATM   24  O   UNK A   0       9.099   8.976   6.431  1.00  0.00    -0.378 OA
HETATM   25  C   UNK A   0       9.245   7.579   6.759  1.00  0.00     0.136 C 
HETATM   26  C   UNK A   0       9.924   7.509   8.121  1.00  0.00     0.041 C 
HETATM   27  C   UNK A   0       7.871   6.880   6.794  1.00  0.00     0.156 C 
ENDBRANCH   4  20
TORSDOF 6
