REMARK  5 active torsions:
REMARK  status: ('A' for Active; 'I' for Inactive)
REMARK    1  A    between atoms: C_2  and  C_5 
REMARK    2  A    between atoms: C_8  and  C_9 
REMARK    3  A    between atoms: C_9  and  C_10 
REMARK    4  A    between atoms: C_10  and  N_11 
REMARK       I    between atoms: N_11  and  C_12 
REMARK    5  A    between atoms: C_12  and  C_14 
ROOT
HETATM    1  C   UNL     1       4.357   2.280   4.180  1.00  0.00     0.084 C 
ENDROOT
BRANCH   1   2
HETATM    2  C   UNL     1       3.687   2.138   2.849  1.00  0.00     0.052 A 
HETATM    3  S   UNL     1       3.082   3.544   2.062  1.00  0.00    -0.087 SA
HETATM    4  C   UNL     1       2.558   2.573   0.756  1.00  0.00     0.077 A 
HETATM    5  C   UNL     1       2.866   1.242   0.981  1.00  0.00     0.024 A 
HETATM    6  N   UNL     1       3.497   1.010   2.199  1.00  0.00    -0.356 N 
ATOM      7  HN  UNL     1       3.775   0.090   2.542  1.00  0.00     0.166 HD
BRANCH   5   8
HETATM    8  C   UNL     1       2.578   0.077   0.043  1.00  0.00    -0.008 C 
HETATM    9  C   UNL     1       3.245   0.321  -1.327  1.00  0.00     0.021 C 
HETATM   10  C   UNL     1       1.058  -0.076  -0.163  1.00  0.00     0.021 C 
HETATM   11  C   UNL     1       3.122  -1.251   0.607  1.00  0.00     0.021 C 
ENDBRANCH   5   8
ENDBRANCH   1   2
BRANCH   1  12
HETATM   12  C   UNL     1       4.849   0.947   4.743  1.00  0.00     0.129 C 
BRANCH  12  13
HETATM   13  N   UNL     1       5.489   1.119   6.041  1.00  0.00    -0.360 N 
HETATM   14  C   UNL     1       6.815   1.486   6.151  1.00  0.00     0.221 C 
HETATM   15  O   UNL     1       7.552   1.622   5.182  1.00  0.00    -0.273 OA
HETATM   16  H   UNL     1       4.920   1.048   6.875  1.00  0.00     0.162 HD
BRANCH  14  17
HETATM   17  C   UNL     1       7.265   1.711   7.587  1.00  0.00     0.078 C 
HETATM   18  C   UNL     1       6.551   2.907   8.230  1.00  0.00     0.014 C 
HETATM   19  C   UNL     1       7.598   3.646   9.062  1.00  0.00     0.001 C 
HETATM   20  C   UNL     1       8.842   2.771   9.041  1.00  0.00     0.001 C 
HETATM   21  C   UNL     1       8.751   2.046   7.710  1.00  0.00     0.014 C 
ENDBRANCH  14  17
ENDBRANCH  12  13
ENDBRANCH   1  12
TORSDOF 5
