REMARK  3 active torsions:
REMARK  status: ('A' for Active; 'I' for Inactive)
REMARK    1  A    between atoms: C_2  and  N_3 
REMARK    2  A    between atoms: C_2  and  C_16 
REMARK    3  A    between atoms: N_3  and  C_4 
ROOT
HETATM    1  C   UNL     1       2.822  -2.436   0.548  1.00  0.00     0.113 A 
HETATM    2  C   UNL     1       1.860  -3.349   0.295  1.00  0.00     0.151 A 
HETATM    3  C   UNL     1       0.985  -3.251  -0.828  1.00  0.00     0.108 C 
HETATM    4  N   UNL     1       0.296  -3.103  -1.753  1.00  0.00    -0.191 NA
HETATM    5  C   UNL     1       1.656  -4.500   1.197  1.00  0.00     0.275 A 
HETATM    6  O   UNL     1       0.769  -5.319   0.957  1.00  0.00    -0.266 OA
HETATM    7  N   UNL     1       2.503  -4.599   2.278  1.00  0.00    -0.269 N 
HETATM    8  C   UNL     1       2.368  -5.735   3.176  1.00  0.00     0.164 C 
HETATM    9  C   UNL     1       3.521  -3.700   2.547  1.00  0.00     0.332 A 
HETATM   10  O   UNL     1       4.275  -3.862   3.508  1.00  0.00    -0.246 OA
HETATM   11  N   UNL     1       3.637  -2.626   1.663  1.00  0.00    -0.293 N 
HETATM   12  C   UNL     1       4.756  -1.707   1.888  1.00  0.00     0.162 C 
ENDROOT
BRANCH   1  13
HETATM   13  N   UNL     1       3.077  -1.360  -0.319  1.00  0.00    -0.271 NA
HETATM   14  H   UNL     1       2.933  -1.620  -1.297  1.00  0.00     0.129 HD
BRANCH  13  15
HETATM   15  C   UNL     1       2.554   0.011  -0.089  1.00  0.00     0.086 C 
HETATM   16  C   UNL     1       1.203   0.194  -0.791  1.00  0.00     0.029 C 
BRANCH  15  17
HETATM   17  C   UNL     1       3.557   1.081  -0.593  1.00  0.00     0.139 C 
HETATM   18  C   UNL     1       3.878   1.046  -2.084  1.00  0.00     0.035 C 
HETATM   19  C   UNL     1       5.356   1.359  -2.174  1.00  0.00     0.029 C 
HETATM   20  C   UNL     1       5.797   1.591  -0.747  1.00  0.00     0.168 C 
HETATM   21  O   UNL     1       4.817   0.980   0.091  1.00  0.00    -0.384 OA
ENDBRANCH  15  17
ENDBRANCH  13  15
ENDBRANCH   1  13
TORSDOF 3
