REMARK  4 active torsions:
REMARK  status: ('A' for Active; 'I' for Inactive)
REMARK    1  A    between atoms: C_2  and  C_3 
REMARK       I    between atoms: N_5  and  C_9 
REMARK       I    between atoms: C_9  and  N_11 
REMARK    2  A    between atoms: N_11  and  C_12 
REMARK    3  A    between atoms: C_12  and  C_13 
REMARK    4  A    between atoms: C_13  and  C_14 
ROOT
HETATM    1  C   UNL     1       2.911   1.208   0.653  1.00  0.00     0.139 C 
HETATM    2  C   UNL     1       2.677   2.565  -0.041  1.00  0.00     0.159 C 
HETATM    3  N   UNL     1       3.223   2.556  -1.402  1.00  0.00    -0.330 N 
HETATM    4  C   UNL     1       4.627   2.145  -1.458  1.00  0.00     0.153 C 
HETATM    5  C   UNL     1       4.850   0.827  -0.708  1.00  0.00     0.188 C 
HETATM    6  O   UNL     1       4.309   0.861   0.622  1.00  0.00    -0.383 OA
HETATM    7  C   UNL     1       2.524   2.720  -2.576  1.00  0.00     0.318 C 
HETATM    8  O   UNL     1       3.030   2.542  -3.681  1.00  0.00    -0.247 OA
HETATM    9  N   UNL     1       1.212   3.079  -2.446  1.00  0.00    -0.343 N 
HETATM   10  H   UNL     1       0.946   3.591  -1.620  1.00  0.00     0.164 HD
ENDROOT
BRANCH   9  11
HETATM   11  C   UNL     1       0.381   3.279  -3.620  1.00  0.00     0.130 C 
BRANCH  11  12
HETATM   12  C   UNL     1      -1.076   3.594  -3.283  1.00  0.00     0.077 C 
BRANCH  12  13
HETATM   13  C   UNL     1      -1.764   2.482  -2.557  1.00  0.00     0.018 A 
HETATM   14  C   UNL     1      -2.443   1.422  -3.128  1.00  0.00     0.076 A 
HETATM   15  S   UNL     1      -3.065   0.396  -1.907  1.00  0.00    -0.087 SA
HETATM   16  C   UNL     1      -2.397   1.432  -0.711  1.00  0.00     0.046 A 
HETATM   17  C   UNL     1      -2.564   1.123   0.735  1.00  0.00     0.076 C 
HETATM   18  N   UNL     1      -1.748   2.482  -1.169  1.00  0.00    -0.357 N 
ATOM     19  HN  UNL     1      -1.299   3.191  -0.589  1.00  0.00     0.166 HD
ENDBRANCH  12  13
ENDBRANCH  11  12
ENDBRANCH   9  11
BRANCH   1  20
HETATM   20  C   UNL     1       2.014   0.101   0.074  1.00  0.00     0.029 C 
HETATM   21  C   UNL     1       2.225  -1.237   0.767  1.00  0.00     0.007 C 
ENDBRANCH   1  20
TORSDOF 4
