REMARK  4 active torsions:
REMARK  status: ('A' for Active; 'I' for Inactive)
REMARK    1  A    between atoms: N_1  and  C_2 
REMARK    2  A    between atoms: C_2  and  C_3 
REMARK    3  A    between atoms: C_3  and  O_4 
REMARK    4  A    between atoms: C_3  and  C_5 
ROOT
HETATM    1  C   UNL     1       4.649   1.386   0.270  1.00  0.00    -0.025 A 
HETATM    2  C   UNL     1       5.291   2.574  -0.104  1.00  0.00     0.027 A 
HETATM    3  C   UNL     1       6.675   2.606  -0.157  1.00  0.00     0.088 A 
HETATM    4  N   UNL     1       7.463   1.549   0.131  1.00  0.00    -0.375 N 
ATOM      5  HN  UNL     1       8.479   1.602   0.064  1.00  0.00     0.164 HD
HETATM    6  C   UNL     1       6.833   0.419   0.513  1.00  0.00     0.088 A 
HETATM    7  C   UNL     1       5.456   0.291   0.602  1.00  0.00     0.027 A 
ENDROOT
BRANCH   1   8
HETATM    8  C   UNL     1       3.146   1.355   0.381  1.00  0.00     0.179 C 
BRANCH   8   9
HETATM    9  C   UNL     1       2.486  -0.013   0.065  1.00  0.00     0.303 C 
BRANCH   9  10
HETATM   10  N   UNL     1       1.019   0.061   0.156  1.00  0.00     0.081 N 
HETATM   11  H   UNL     1       0.627  -0.836  -0.137  1.00  0.00     0.312 HD
HETATM   12  H   UNL     1       0.671   0.743  -0.520  1.00  0.00     0.312 HD
ENDBRANCH   9  10
ENDBRANCH   8   9
BRANCH   8  13
HETATM   13  O   UNL     1       2.826   1.758   1.715  1.00  0.00    -0.389 OA
HETATM   14  H   UNL     1       2.050   1.227   1.973  1.00  0.00     0.210 HD
ENDBRANCH   8  13
ENDBRANCH   1   8
TORSDOF 4
