REMARK  4 active torsions:
REMARK  status: ('A' for Active; 'I' for Inactive)
REMARK    1  A    between atoms: C_2  and  C_4 
REMARK    2  A    between atoms: C_4  and  N_5 
REMARK       I    between atoms: N_5  and  C_6 
REMARK       I    between atoms: C_6  and  N_8 
REMARK    3  A    between atoms: N_8  and  C_9 
REMARK    4  A    between atoms: C_15  and  N_16 
ROOT
HETATM    1  C   UNL     1       7.292   3.741  -0.895  1.00  0.00     0.080 A 
HETATM    2  C   UNL     1       6.697   5.009  -1.028  1.00  0.00     0.035 A 
HETATM    3  C   UNL     1       7.482   6.142  -1.166  1.00  0.00     0.019 A 
HETATM    4  C   UNL     1       8.846   5.967  -1.177  1.00  0.00     0.090 A 
HETATM    5  N   UNL     1       9.450   4.764  -1.051  1.00  0.00    -0.351 N 
ATOM      6  HN  UNL     1      10.468   4.704  -1.053  1.00  0.00     0.166 HD
HETATM    7  C   UNL     1       8.704   3.633  -0.921  1.00  0.00     0.130 A 
ENDROOT
BRANCH   1   8
HETATM    8  N   UNL     1       6.451   2.635  -0.645  1.00  0.00    -0.306 N 
HETATM    9  C   UNL     1       5.273   2.389  -1.317  1.00  0.00     0.320 C 
HETATM   10  N   UNL     1       4.701   1.202  -0.920  1.00  0.00    -0.343 N 
HETATM   11  O   UNL     1       4.780   3.103  -2.181  1.00  0.00    -0.247 OA
HETATM   12  H   UNL     1       5.292   0.534  -0.448  1.00  0.00     0.164 HD
HETATM   13  H   UNL     1       6.867   1.869  -0.152  1.00  0.00     0.171 HD
BRANCH  10  14
HETATM   14  C   UNL     1       3.541   0.694  -1.629  1.00  0.00     0.128 C 
BRANCH  14  15
HETATM   15  C   UNL     1       2.923  -0.540  -0.961  1.00  0.00    -0.005 C 
HETATM   16  C   UNL     1       2.425  -0.233   0.449  1.00  0.00     0.011 C 
HETATM   17  C   UNL     1       1.771  -1.069  -1.817  1.00  0.00     0.011 C 
ENDBRANCH  14  15
ENDBRANCH  10  14
ENDBRANCH   1   8
BRANCH   7  18
HETATM   18  N   UNL     1       9.417   2.451  -0.851  1.00  0.00    -0.365 N 
HETATM   19  C   UNL     1       8.923   1.098  -1.062  1.00  0.00     0.124 C 
HETATM   20  C   UNL     1      10.165   0.233  -1.259  1.00  0.00     0.021 C 
HETATM   21  C   UNL     1      11.229   1.203  -1.726  1.00  0.00     0.021 C 
HETATM   22  C   UNL     1      10.873   2.504  -1.015  1.00  0.00     0.124 C 
ENDBRANCH   7  18
TORSDOF 4
