REMARK  6 active torsions:
REMARK  status: ('A' for Active; 'I' for Inactive)
REMARK    1  A    between atoms: C_2  and  N_3 
REMARK    2  A    between atoms: N_4  and  C_14 
REMARK    3  A    between atoms: C_11  and  C_25 
REMARK    4  A    between atoms: C_14  and  C_15 
REMARK    5  A    between atoms: C_15  and  O_22 
REMARK    6  A    between atoms: C_25  and  O_26 
ROOT
HETATM    1  C   UNL     1       0.385  -0.816  -0.080  1.00  0.00     0.122 A 
HETATM    2  C   UNL     1      -0.782  -1.606   0.026  1.00  0.00     0.136 A 
HETATM    3  N   UNL     1       1.484   1.071  -0.175  1.00  0.00    -0.324 N 
HETATM    4  C   UNL     1       0.218   0.556  -0.194  1.00  0.00     0.140 A 
HETATM    5  N   UNL     1       1.732  -1.133  -0.049  1.00  0.00    -0.346 N 
ATOM      6  HN  UNL     1       2.149  -2.063  -0.005  1.00  0.00     0.167 HD
HETATM    7  C   UNL     1       2.359   0.023  -0.088  1.00  0.00     0.185 A 
HETATM    8  N   UNL     1      -1.974  -0.940   0.011  1.00  0.00    -0.337 N 
ATOM      9  HN  UNL     1      -2.849  -1.452   0.127  1.00  0.00     0.168 HD
HETATM   10  N   UNL     1      -0.936   1.234  -0.267  1.00  0.00    -0.336 N 
ATOM     11  HN  UNL     1      -1.007   2.244  -0.389  1.00  0.00     0.168 HD
HETATM   12  C   UNL     1      -1.988   0.402  -0.158  1.00  0.00     0.183 A 
ENDROOT
BRANCH   2  13
HETATM   13  N   UNL     1      -0.789  -2.965   0.205  1.00  0.00    -0.356 N 
HETATM   14  C   UNL     1      -1.925  -3.736   0.721  1.00  0.00     0.112 C 
HETATM   15  C   UNL     1      -1.489  -5.206   0.542  1.00  0.00     0.066 C 
HETATM   16  C   UNL     1      -0.112  -5.168  -0.107  1.00  0.00     0.190 C 
HETATM   17  C   UNL     1       0.420  -3.768   0.153  1.00  0.00     0.162 C 
HETATM   18  F   UNL     1       0.692  -6.101   0.461  1.00  0.00    -0.248 F 
BRANCH  14  19
HETATM   19  C   UNL     1      -2.177  -3.473   2.227  1.00  0.00     0.189 C 
BRANCH  19  20
HETATM   20  O   UNL     1      -2.663  -2.166   2.511  1.00  0.00    -0.399 OA
HETATM   21  H   UNL     1      -2.264  -1.572   1.846  1.00  0.00     0.209 HD
ENDBRANCH  19  20
ENDBRANCH  14  19
ENDBRANCH   2  13
BRANCH   3  22
HETATM   22  C   UNL     1       1.838   2.472  -0.081  1.00  0.00     0.171 C 
BRANCH  22  23
HETATM   23  C   UNL     1       2.128   3.152  -1.424  1.00  0.00     0.097 C 
HETATM   24  C   UNL     1       3.231   2.527  -2.258  1.00  0.00     0.068 C 
HETATM   25  C   UNL     1       3.757   3.697  -3.071  1.00  0.00     0.170 C 
HETATM   26  O   UNL     1       3.477   4.898  -2.343  1.00  0.00    -0.388 OA
HETATM   27  C   UNL     1       2.689   4.557  -1.192  1.00  0.00     0.207 C 
BRANCH  23  28
HETATM   28  O   UNL     1       0.942   3.261  -2.220  1.00  0.00    -0.386 OA
HETATM   29  H   UNL     1       0.461   2.413  -2.212  1.00  0.00     0.210 HD
ENDBRANCH  23  28
ENDBRANCH  22  23
ENDBRANCH   3  22
TORSDOF 6
