REMARK  4 active torsions:
REMARK  status: ('A' for Active; 'I' for Inactive)
REMARK    1  A    between atoms: O_2  and  C_3 
REMARK    2  A    between atoms: C_6  and  N_7 
REMARK       I    between atoms: N_7  and  C_8 
REMARK       I    between atoms: C_8  and  N_10 
REMARK    3  A    between atoms: N_10  and  C_11 
REMARK    4  A    between atoms: C_11  and  C_12 
REMARK       I    between atoms: C_12  and  N_14 
ROOT
HETATM    1  N   UNL     1       5.659   1.142   4.666  1.00  0.00    -0.308 N 
HETATM    2  C   UNL     1       6.403   0.227   5.369  1.00  0.00     0.321 C 
HETATM    3  O   UNL     1       6.404  -0.987   5.194  1.00  0.00    -0.247 OA
HETATM    4  N   UNL     1       7.181   0.786   6.354  1.00  0.00    -0.334 N 
HETATM    5  H   UNL     1       5.880   2.118   4.802  1.00  0.00     0.170 HD
HETATM    6  H   UNL     1       7.406   1.772   6.362  1.00  0.00     0.164 HD
ENDROOT
BRANCH   1   7
HETATM    7  C   UNL     1       4.676   0.820   3.695  1.00  0.00     0.051 A 
HETATM    8  C   UNL     1       4.158  -0.462   3.522  1.00  0.00     0.035 A 
HETATM    9  C   UNL     1       3.163  -0.696   2.575  1.00  0.00     0.058 A 
HETATM   10  C   UNL     1       2.711   0.367   1.817  1.00  0.00     0.141 A 
HETATM   11  N   UNL     1       3.191   1.624   1.933  1.00  0.00    -0.345 N 
HETATM   12  C   UNL     1       4.155   1.818   2.871  1.00  0.00     0.119 A 
ATOM     13  HN  UNL     1       2.849   2.386   1.348  1.00  0.00     0.167 HD
BRANCH  10  14
HETATM   14  O   UNL     1       1.686   0.082   0.938  1.00  0.00    -0.341 OA
HETATM   15  C   UNL     1       1.265   1.207   0.177  1.00  0.00     0.211 C 
ENDBRANCH  10  14
ENDBRANCH   1   7
BRANCH   4  16
HETATM   16  C   UNL     1       8.052  -0.110   7.094  1.00  0.00     0.227 C 
BRANCH  16  17
HETATM   17  C   UNL     1       8.911   0.561   8.167  1.00  0.00     0.237 C 
HETATM   18  O   UNL     1       8.851   1.771   8.382  1.00  0.00    -0.272 OA
HETATM   19  N   UNL     1       9.768  -0.284   8.849  1.00  0.00    -0.351 N 
HETATM   20  C   UNL     1       9.901  -1.723   8.667  1.00  0.00     0.126 C 
HETATM   21  C   UNL     1      10.664   0.186   9.883  1.00  0.00     0.126 C 
HETATM   22  C   UNL     1      11.172  -2.112   9.418  1.00  0.00     0.021 C 
HETATM   23  C   UNL     1      11.826  -0.787   9.803  1.00  0.00     0.021 C 
ENDBRANCH  16  17
ENDBRANCH   4  16
TORSDOF 4
