REMARK  5 active torsions:
REMARK  status: ('A' for Active; 'I' for Inactive)
REMARK    1  A    between atoms: C_2  and  C_3 
REMARK    2  A    between atoms: C_2  and  N_10 
REMARK    3  A    between atoms: C_3  and  N_4 
REMARK    4  A    between atoms: N_10  and  C_11 
REMARK    5  A    between atoms: C_11  and  C_12 
ROOT
HETATM    1  C   UNL     1       3.059   1.273   1.165  1.00  0.00     0.044 C 
HETATM    2  C   UNL     1       2.635   0.122   0.243  1.00  0.00     0.236 C 
ENDROOT
BRANCH   2   3
HETATM    3  C   UNL     1       1.095   0.005   0.294  1.00  0.00     0.183 C 
BRANCH   3   4
HETATM    4  N   UNL     1       0.560  -1.133  -0.427  1.00  0.00    -0.302 N 
HETATM    5  C   UNL     1       0.142  -1.145  -1.730  1.00  0.00     0.111 A 
HETATM    6  C   UNL     1      -0.379  -2.397  -1.951  1.00  0.00     0.037 A 
HETATM    7  C   UNL     1      -0.250  -3.058  -0.716  1.00  0.00     0.108 A 
HETATM    8  N   UNL     1       0.307  -2.287   0.221  1.00  0.00    -0.310 N 
ATOM      9  HN  UNL     1       0.496  -2.517   1.197  1.00  0.00     0.186 HD
ENDBRANCH   3   4
ENDBRANCH   2   3
BRANCH   2  10
HETATM   10  N   UNL     1       3.095   0.355  -1.138  1.00  0.00     0.089 N 
HETATM   11  H   UNL     1       2.750   1.249  -1.484  1.00  0.00     0.316 HD
BRANCH  10  12
HETATM   12  C   UNL     1       4.550   0.293  -1.305  1.00  0.00     0.274 C 
BRANCH  12  13
HETATM   13  C   UNL     1       4.928   0.523  -2.786  1.00  0.00     0.014 C 
HETATM   14  C   UNL     1       4.449  -0.604  -3.718  1.00  0.00     0.006 C 
HETATM   15  C   UNL     1       5.245  -1.898  -3.553  1.00  0.00     0.000 C 
HETATM   16  C   UNL     1       6.751  -1.674  -3.660  1.00  0.00     0.000 C 
HETATM   17  C   UNL     1       7.247  -0.549  -2.758  1.00  0.00     0.000 C 
HETATM   18  C   UNL     1       6.442   0.732  -2.951  1.00  0.00     0.006 C 
ENDBRANCH  12  13
ENDBRANCH  10  12
ENDBRANCH   2  10
TORSDOF 5
