REMARK  7 active torsions:
REMARK  status: ('A' for Active; 'I' for Inactive)
REMARK    1  A    between atoms: N_11  and  C_12 
REMARK    2  A    between atoms: C_12  and  C_13 
REMARK    3  A    between atoms: C_13  and  O_14 
REMARK    4  A    between atoms: C_13  and  C_15 
REMARK    5  A    between atoms: C_15  and  O_16 
REMARK    6  A    between atoms: O_16  and  C_17 
REMARK    7  A    between atoms: C_20  and  C_21 
ROOT
HETATM    1  C   UNL     1       0.083 -10.120   2.176  1.00  0.00     0.162 C 
HETATM    2  C   UNL     1      -1.386 -10.113   2.159  1.00  0.00     0.063 C 
HETATM    3  N   UNL     1      -2.548 -10.137   2.152  1.00  0.00    -0.197 NA
ENDROOT
BRANCH   1   4
HETATM    4  C   UNL     1       0.688  -8.766   1.888  1.00  0.00    -0.045 A 
HETATM    5  C   UNL     1       0.911  -7.849   2.924  1.00  0.00     0.011 A 
HETATM    6  C   UNL     1       1.493  -6.608   2.655  1.00  0.00     0.037 A 
HETATM    7  C   UNL     1       1.872  -6.268   1.356  1.00  0.00     0.068 A 
HETATM    8  C   UNL     1       1.616  -7.157   0.314  1.00  0.00     0.037 A 
HETATM    9  C   UNL     1       1.024  -8.397   0.578  1.00  0.00     0.011 A 
BRANCH   7  10
HETATM   10  O   UNL     1       2.436  -5.030   1.215  1.00  0.00    -0.349 OA
BRANCH  10  11
HETATM   11  C   UNL     1       3.369  -4.884   0.134  1.00  0.00     0.209 C 
BRANCH  11  12
HETATM   12  C   UNL     1       3.997  -3.484   0.234  1.00  0.00     0.160 C 
BRANCH  12  13
HETATM   13  C   UNL     1       2.913  -2.399   0.165  1.00  0.00     0.164 C 
BRANCH  13  14
HETATM   14  N   UNL     1       3.445  -1.048   0.095  1.00  0.00    -0.332 N 
HETATM   15  C   UNL     1       3.760  -0.353  -1.054  1.00  0.00     0.080 A 
HETATM   16  C   UNL     1       3.681  -0.919  -2.424  1.00  0.00     0.089 C 
HETATM   17  N   UNL     1       4.126   0.880  -0.769  1.00  0.00    -0.344 N 
HETATM   18  C   UNL     1       4.047   0.991   0.594  1.00  0.00     0.060 A 
ATOM     19  HN  UNL     1       4.410   1.604  -1.429  1.00  0.00     0.167 HD
HETATM   20  C   UNL     1       4.316   2.096   1.416  1.00  0.00     0.032 A 
HETATM   21  C   UNL     1       3.625  -0.204   1.169  1.00  0.00     0.062 A 
HETATM   22  C   UNL     1       4.156   1.965   2.800  1.00  0.00     0.002 A 
HETATM   23  C   UNL     1       3.740   0.755   3.357  1.00  0.00     0.002 A 
HETATM   24  C   UNL     1       3.463  -0.356   2.552  1.00  0.00     0.032 A 
ENDBRANCH  13  14
ENDBRANCH  12  13
BRANCH  12  25
HETATM   25  O   UNL     1       4.727  -3.399   1.464  1.00  0.00    -0.392 OA
HETATM   26  H   UNL     1       4.112  -3.634   2.183  1.00  0.00     0.210 HD
ENDBRANCH  12  25
ENDBRANCH  11  12
ENDBRANCH  10  11
ENDBRANCH   7  10
ENDBRANCH   1   4
TORSDOF 7
