REMARK  5 active torsions:
REMARK  status: ('A' for Active; 'I' for Inactive)
REMARK    1  A    between atoms: C_2  and  C_3 
REMARK    2  A    between atoms: C_3  and  C_5 
REMARK    3  A    between atoms: C_3  and  N_17 
REMARK    4  A    between atoms: C_5  and  N_6 
REMARK       I    between atoms: N_6  and  C_7 
REMARK       I    between atoms: C_7  and  N_9 
REMARK    5  A    between atoms: N_9  and  C_10 
ROOT
HETATM    1  N   UNL     1       2.652   3.187  -2.131  1.00  0.00    -0.340 N 
HETATM    2  C   UNL     1       2.172   4.490  -2.078  1.00  0.00     0.321 C 
HETATM    3  O   UNL     1       1.466   4.867  -1.152  1.00  0.00    -0.247 OA
HETATM    4  N   UNL     1       2.545   5.220  -3.182  1.00  0.00    -0.293 N 
HETATM    5  H   UNL     1       3.575   3.048  -2.519  1.00  0.00     0.164 HD
HETATM    6  H   UNL     1       2.956   4.725  -3.955  1.00  0.00     0.172 HD
ENDROOT
BRANCH   1   7
HETATM    7  C   UNL     1       2.287   2.290  -1.041  1.00  0.00     0.165 C 
BRANCH   7   8
HETATM    8  C   UNL     1       2.832   0.825  -1.180  1.00  0.00     0.172 C 
HETATM    9  C   UNL     1       2.208   0.248  -2.482  1.00  0.00     0.051 C 
BRANCH   8  10
HETATM   10  C   UNL     1       2.322  -0.033   0.019  1.00  0.00     0.038 C 
HETATM   11  C   UNL     1       0.828  -0.004   0.325  1.00  0.00     0.007 C 
ENDBRANCH   8  10
BRANCH   8  12
HETATM   12  N   UNL     1       4.329   0.812  -1.336  1.00  0.00     0.103 N 
HETATM   13  C   UNL     1       4.978  -0.510  -1.510  1.00  0.00     0.299 C 
HETATM   14  C   UNL     1       5.358  -1.245  -0.209  1.00  0.00     0.198 C 
HETATM   15  O   UNL     1       6.156  -0.428   0.651  1.00  0.00    -0.388 OA
HETATM   16  C   UNL     1       5.510   0.816   0.938  1.00  0.00     0.198 C 
HETATM   17  C   UNL     1       5.134   1.571  -0.349  1.00  0.00     0.299 C 
ENDBRANCH   8  12
ENDBRANCH   7   8
ENDBRANCH   1   7
BRANCH   4  18
HETATM   18  C   UNL     1       2.188   6.543  -3.387  1.00  0.00     0.132 A 
HETATM   19  C   UNL     1       2.438   7.263  -4.587  1.00  0.00     0.084 A 
HETATM   20  C   UNL     1       1.920   8.515  -4.359  1.00  0.00     0.076 A 
HETATM   21  C   UNL     1       1.807   9.757  -5.144  1.00  0.00     0.079 C 
HETATM   22  O   UNL     1       1.405   8.560  -3.100  1.00  0.00    -0.241 OA
HETATM   23  N   UNL     1       1.579   7.333  -2.498  1.00  0.00    -0.245 N 
ATOM     24  HN  UNL     1       1.296   7.076  -1.552  1.00  0.00     0.196 HD
ENDBRANCH   4  18
TORSDOF 5
