REMARK  5 active torsions:
REMARK  status: ('A' for Active; 'I' for Inactive)
REMARK    1  A    between atoms: C_2  and  N_3 
REMARK       I    between atoms: N_3  and  C_4 
REMARK       I    between atoms: C_4  and  N_5 
REMARK    2  A    between atoms: N_5  and  C_7 
REMARK    3  A    between atoms: N_9  and  C_10 
REMARK    4  A    between atoms: C_10  and  C_11 
REMARK    5  A    between atoms: C_14  and  N_18 
ROOT
HETATM    1  C   UNL     1       6.402  -3.288  -3.449  1.00  0.00    -0.024 A 
HETATM    2  C   UNL     1       6.253  -2.948  -4.790  1.00  0.00     0.014 A 
HETATM    3  C   UNL     1       6.281  -3.948  -5.765  1.00  0.00     0.049 A 
HETATM    4  C   UNL     1       6.446  -5.282  -5.398  1.00  0.00     0.103 A 
HETATM    5  N   UNL     1       6.629  -5.609  -4.100  1.00  0.00    -0.352 N 
ATOM      6  HN  UNL     1       6.770  -6.581  -3.826  1.00  0.00     0.166 HD
HETATM    7  C   UNL     1       6.623  -4.626  -3.168  1.00  0.00     0.098 A 
ENDROOT
BRANCH   1   8
HETATM    8  C   UNL     1       6.322  -2.262  -2.356  1.00  0.00     0.178 C 
BRANCH   8   9
HETATM    9  N   UNL     1       7.639  -1.737  -2.067  1.00  0.00    -0.222 N 
HETATM   10  C   UNL     1       7.804  -0.733  -1.163  1.00  0.00     0.669 C 
HETATM   11  N   UNL     1       9.090  -0.268  -1.127  1.00  0.00    -0.227 N 
HETATM   12  N   UNL     1       6.810  -0.314  -0.456  1.00  0.00    -0.227 N 
HETATM   13  H   UNL     1       9.258   0.488  -0.476  1.00  0.00     0.177 HD
ATOM     14  HN  UNL     1       5.887  -0.729  -0.585  1.00  0.00     0.177 HD
HETATM   15  H   UNL     1       8.214  -1.625  -2.889  1.00  0.00     0.178 HD
BRANCH  11  16
HETATM   16  C   UNL     1      10.261  -1.070  -1.450  1.00  0.00     0.133 C 
HETATM   17  C   UNL     1      11.474  -0.615  -0.662  1.00  0.00     0.027 C 
ENDBRANCH  11  16
BRANCH  12  18
HETATM   18  C   UNL     1       6.993   0.745   0.523  1.00  0.00     0.133 C 
HETATM   19  C   UNL     1       5.649   1.008   1.187  1.00  0.00     0.027 C 
ENDBRANCH  12  18
ENDBRANCH   8   9
ENDBRANCH   1   8
BRANCH   4  20
HETATM   20  N   UNL     1       6.417  -6.298  -6.319  1.00  0.00    -0.363 N 
HETATM   21  C   UNL     1       5.916  -7.620  -5.929  1.00  0.00     0.150 C 
HETATM   22  C   UNL     1       6.889  -8.712  -6.394  1.00  0.00     0.188 C 
HETATM   23  O   UNL     1       7.187  -8.599  -7.798  1.00  0.00    -0.383 OA
HETATM   24  C   UNL     1       7.784  -7.317  -8.077  1.00  0.00     0.135 C 
HETATM   25  C   UNL     1       8.152  -7.287  -9.553  1.00  0.00     0.041 C 
HETATM   26  C   UNL     1       6.817  -6.164  -7.718  1.00  0.00     0.155 C 
ENDBRANCH   4  20
TORSDOF 5
