REMARK  4 active torsions:
REMARK  status: ('A' for Active; 'I' for Inactive)
REMARK       I    between atoms: C_2  and  N_3 
REMARK    1  A    between atoms: C_2  and  C_13 
REMARK    2  A    between atoms: N_3  and  C_4 
REMARK    3  A    between atoms: C_4  and  C_5 
REMARK    4  A    between atoms: C_5  and  C_6 
ROOT
HETATM    1  C   UNL     1       2.922   1.082  -0.444  1.00  0.00     0.076 A 
HETATM    2  C   UNL     1       2.391   1.869  -1.402  1.00  0.00     0.022 A 
HETATM    3  C   UNL     1       3.036   3.080  -1.853  1.00  0.00     0.018 A 
HETATM    4  C   UNL     1       4.173   3.475  -1.268  1.00  0.00     0.092 A 
HETATM    5  N   UNL     1       4.789   2.758  -0.248  1.00  0.00    -0.341 N 
HETATM    6  C   UNL     1       6.057   3.233   0.310  1.00  0.00     0.146 C 
HETATM    7  C   UNL     1       6.195   2.805   1.743  1.00  0.00     0.183 C 
HETATM    8  S   UNL     1       6.167   1.045   1.760  1.00  0.00     0.233 S 
HETATM    9  O   UNL     1       7.268   0.577   0.944  1.00  0.00    -0.206 OA
HETATM   10  O   UNL     1       6.063   0.638   3.147  1.00  0.00    -0.206 OA
HETATM   11  N   UNL     1       4.776   0.707   1.024  1.00  0.00    -0.269 N 
ATOM     12  HN  UNL     1       4.296  -0.165   1.245  1.00  0.00     0.180 HD
HETATM   13  C   UNL     1       4.249   1.519   0.154  1.00  0.00     0.132 A 
ENDROOT
BRANCH   1  14
HETATM   14  C   UNL     1       2.129  -0.113  -0.037  1.00  0.00     0.255 C 
HETATM   15  O   UNL     1       0.921  -0.175  -0.256  1.00  0.00    -0.268 OA
HETATM   16  N   UNL     1       2.832  -1.118   0.574  1.00  0.00    -0.356 N 
HETATM   17  H   UNL     1       3.792  -0.927   0.852  1.00  0.00     0.162 HD
BRANCH  16  18
HETATM   18  C   UNL     1       2.192  -2.309   1.109  1.00  0.00     0.129 C 
BRANCH  18  19
HETATM   19  C   UNL     1       1.511  -3.150   0.030  1.00  0.00     0.076 C 
BRANCH  19  20
HETATM   20  C   UNL     1       0.799  -4.338   0.616  1.00  0.00     0.010 A 
HETATM   21  C   UNL     1      -0.585  -4.447   0.511  1.00  0.00     0.025 A 
HETATM   22  C   UNL     1      -1.213  -5.572   1.037  1.00  0.00     0.003 A 
HETATM   23  C   UNL     1      -0.444  -6.552   1.652  1.00  0.00     0.017 A 
HETATM   24  C   UNL     1       0.926  -6.365   1.715  1.00  0.00     0.088 A 
HETATM   25  N   UNL     1       1.562  -5.285   1.212  1.00  0.00    -0.369 N 
ATOM     26  HN  UNL     1       2.575  -5.187   1.278  1.00  0.00     0.165 HD
ENDBRANCH  19  20
ENDBRANCH  18  19
ENDBRANCH  16  18
ENDBRANCH   1  14
TORSDOF 4
