REMARK  6 active torsions:
REMARK  status: ('A' for Active; 'I' for Inactive)
REMARK    1  A    between atoms: C_2  and  C_3 
REMARK    2  A    between atoms: C_2  and  N_11 
REMARK    3  A    between atoms: C_3  and  N_4 
REMARK    4  A    between atoms: N_11  and  C_12 
REMARK    5  A    between atoms: C_12  and  C_13 
REMARK    6  A    between atoms: C_13  and  N_14 
ROOT
HETATM    1  C   UNL     1       0.926  -0.095  -0.023  1.00  0.00     0.044 C 
HETATM    2  C   UNL     1       2.461  -0.093   0.020  1.00  0.00     0.236 C 
ENDROOT
BRANCH   2   3
HETATM    3  C   UNL     1       3.020  -1.519   0.213  1.00  0.00     0.183 C 
BRANCH   3   4
HETATM    4  N   UNL     1       2.561  -2.154   1.434  1.00  0.00    -0.301 N 
HETATM    5  C   UNL     1       2.826  -1.760   2.714  1.00  0.00     0.118 A 
HETATM    6  C   UNL     1       2.123  -2.612   3.541  1.00  0.00    -0.028 A 
HETATM    7  C   UNL     1       2.035  -2.597   5.016  1.00  0.00     0.051 C 
HETATM    8  C   UNL     1       1.490  -3.508   2.649  1.00  0.00     0.115 A 
HETATM    9  N   UNL     1       1.756  -3.233   1.369  1.00  0.00    -0.310 N 
ATOM     10  HN  UNL     1       1.427  -3.724   0.538  1.00  0.00     0.186 HD
ENDBRANCH   3   4
ENDBRANCH   2   3
BRANCH   2  11
HETATM   11  N   UNL     1       3.037   0.493  -1.213  1.00  0.00     0.090 N 
HETATM   12  H   UNL     1       2.721  -0.047  -2.020  1.00  0.00     0.316 HD
BRANCH  11  13
HETATM   13  C   UNL     1       2.696   1.907  -1.433  1.00  0.00     0.290 C 
BRANCH  13  14
HETATM   14  C   UNL     1       3.142   2.891  -0.337  1.00  0.00     0.155 C 
BRANCH  14  15
HETATM   15  N   UNL     1       4.583   2.949  -0.141  1.00  0.00    -0.350 N 
HETATM   16  C   UNL     1       5.473   3.423  -1.166  1.00  0.00     0.126 C 
HETATM   17  C   UNL     1       6.850   3.440  -0.531  1.00  0.00     0.029 C 
HETATM   18  C   UNL     1       6.645   3.123   0.944  1.00  0.00     0.104 C 
HETATM   19  C   UNL     1       5.213   2.670   1.054  1.00  0.00     0.219 C 
HETATM   20  O   UNL     1       4.704   2.206   2.061  1.00  0.00    -0.273 OA
ENDBRANCH  14  15
ENDBRANCH  13  14
ENDBRANCH  11  13
ENDBRANCH   2  11
TORSDOF 6
