REMARK  3 active torsions:
REMARK  status: ('A' for Active; 'I' for Inactive)
REMARK    1  A    between atoms: S_2  and  C_3 
REMARK    2  A    between atoms: C_7  and  N_8 
REMARK       I    between atoms: N_8  and  C_9 
REMARK       I    between atoms: C_9  and  N_11 
REMARK    3  A    between atoms: N_11  and  C_12 
ROOT
HETATM    1  N   UNL     1       3.953   3.139   4.665  1.00  0.00    -0.288 N 
HETATM    2  C   UNL     1       4.085   2.878   6.007  1.00  0.00     0.322 C 
HETATM    3  O   UNL     1       3.658   1.887   6.590  1.00  0.00    -0.247 OA
HETATM    4  N   UNL     1       4.796   3.854   6.683  1.00  0.00    -0.338 N 
HETATM    5  H   UNL     1       4.201   4.044   4.297  1.00  0.00     0.172 HD
HETATM    6  H   UNL     1       4.920   4.762   6.259  1.00  0.00     0.164 HD
ENDROOT
BRANCH   1   7
HETATM    7  C   UNL     1       3.402   2.267   3.750  1.00  0.00     0.171 A 
HETATM    8  S   UNL     1       2.992   0.647   4.110  1.00  0.00     0.025 SA
HETATM    9  N   UNL     1       2.465   0.325   2.568  1.00  0.00    -0.304 N 
HETATM   10  C   UNL     1       2.626   1.450   1.872  1.00  0.00     0.152 A 
ATOM     11  HN  UNL     1       2.092  -0.559   2.222  1.00  0.00     0.176 HD
HETATM   12  N   UNL     1       3.173   2.571   2.490  1.00  0.00    -0.315 N 
ATOM     13  HN  UNL     1       3.363   3.469   2.045  1.00  0.00     0.170 HD
BRANCH  10  14
HETATM   14  S   UNL     1       2.103   1.443   0.197  1.00  0.00    -0.098 SA
HETATM   15  C   UNL     1       2.475   3.124  -0.316  1.00  0.00     0.099 C 
ENDBRANCH  10  14
ENDBRANCH   1   7
BRANCH   4  16
HETATM   16  C   UNL     1       5.040   3.728   8.092  1.00  0.00     0.090 A 
HETATM   17  C   UNL     1       5.896   4.710   8.843  1.00  0.00     0.032 A 
HETATM   18  C   UNL     1       6.383   3.303   8.635  1.00  0.00     0.006 A 
HETATM   19  C   UNL     1       7.565   3.049   7.763  1.00  0.00     0.012 C 
ENDBRANCH   4  16
TORSDOF 3
