REMARK  1 active torsions:
REMARK  status: ('A' for Active; 'I' for Inactive)
REMARK    1  A    between atoms: C_5  and  C_7 
ROOT
HETATM    1  C   UNL     1      -2.836  -0.028   0.269  1.00  0.00     0.102 A 
HETATM    2  N   UNL     1      -3.238  -0.055   1.523  1.00  0.00    -0.288 N 
ATOM      3  HN  UNL     1      -2.636  -0.046   2.346  1.00  0.00     0.188 HD
HETATM    4  N   UNL     1      -4.613  -0.097   1.527  1.00  0.00    -0.295 N 
ATOM      5  HN  UNL     1      -5.212  -0.125   2.352  1.00  0.00     0.187 HD
HETATM    6  C   UNL     1      -5.016  -0.094   0.279  1.00  0.00     0.198 A 
HETATM    7  N   UNL     1      -3.936  -0.049  -0.547  1.00  0.00    -0.340 N 
HETATM    8  H   UNL     1      -3.942  -0.039  -1.556  1.00  0.00     0.168 HD
ENDROOT
BRANCH   1   9
HETATM    9  C   UNL     1      -1.433   0.001  -0.241  1.00  0.00     0.083 C 
HETATM   10  C   UNL     1      -0.659  -1.244   0.226  1.00  0.00     0.281 C 
HETATM   11  N   UNL     1       0.730  -1.232  -0.254  1.00  0.00     0.084 N 
HETATM   12  C   UNL     1       1.442  -0.047   0.230  1.00  0.00     0.269 C 
HETATM   13  H   UNL     1       1.204  -2.066   0.096  1.00  0.00     0.315 HD
HETATM   14  C   UNL     1       0.756   1.240  -0.226  1.00  0.00     0.031 C 
HETATM   15  C   UNL     1      -0.708   1.276   0.210  1.00  0.00     0.016 C 
ENDBRANCH   1   9
TORSDOF 1
