REMARK  3 active torsions:
REMARK  status: ('A' for Active; 'I' for Inactive)
REMARK    1  A    between atoms: C_5  and  N_20 
REMARK    2  A    between atoms: C_8  and  N_9 
REMARK       I    between atoms: N_9  and  C_10 
REMARK       I    between atoms: C_10  and  N_12 
REMARK    3  A    between atoms: N_12  and  C_13 
ROOT
HETATM    1  C   UNL     1       1.183   0.387   0.193  1.00  0.00     0.070 C 
HETATM    2  C   UNL     1       2.644   0.116  -0.003  1.00  0.00     0.034 A 
HETATM    3  N   UNL     1       3.411   1.250  -0.041  1.00  0.00    -0.344 N 
ATOM      4  HN  UNL     1       2.961   2.163   0.019  1.00  0.00     0.167 HD
HETATM    5  C   UNL     1       4.757   1.176  -0.157  1.00  0.00     0.103 A 
HETATM    6  C   UNL     1       5.361  -0.070  -0.195  1.00  0.00     0.051 A 
HETATM    7  C   UNL     1       4.589  -1.240  -0.119  1.00  0.00     0.035 A 
HETATM    8  C   UNL     1       3.197  -1.167  -0.055  1.00  0.00     0.058 A 
ENDROOT
BRANCH   8   9
HETATM    9  N   UNL     1       2.474  -2.394   0.003  1.00  0.00    -0.307 N 
HETATM   10  C   UNL     1       1.384  -2.666  -0.799  1.00  0.00     0.321 C 
HETATM   11  O   UNL     1       0.939  -1.909  -1.656  1.00  0.00    -0.247 OA
HETATM   12  N   UNL     1       0.843  -3.915  -0.560  1.00  0.00    -0.334 N 
HETATM   13  H   UNL     1       1.366  -4.517   0.057  1.00  0.00     0.165 HD
HETATM   14  H   UNL     1       3.033  -3.209   0.201  1.00  0.00     0.170 HD
BRANCH  12  15
HETATM   15  C   UNL     1      -0.193  -4.553  -1.420  1.00  0.00     0.035 C 
HETATM   16  C   UNL     1       0.375  -4.748  -2.842  1.00  0.00     0.039 C 
HETATM   17  C   UNL     1      -1.502  -3.731  -1.505  1.00  0.00     0.057 C 
HETATM   18  C   UNL     1      -2.367  -3.830  -0.254  1.00  0.00     0.170 C 
HETATM   19  O   UNL     1      -2.592  -5.186   0.126  1.00  0.00    -0.391 OA
HETATM   20  C   UNL     1      -1.374  -5.869   0.402  1.00  0.00     0.170 C 
HETATM   21  C   UNL     1      -0.536  -5.956  -0.862  1.00  0.00     0.057 C 
ENDBRANCH  12  15
ENDBRANCH   8   9
BRANCH   5  22
HETATM   22  N   UNL     1       5.454   2.349  -0.247  1.00  0.00    -0.367 N 
HETATM   23  C   UNL     1       6.884   2.493  -0.428  1.00  0.00     0.124 C 
HETATM   24  C   UNL     1       7.104   3.993  -0.656  1.00  0.00     0.021 C 
HETATM   25  C   UNL     1       5.712   4.585  -0.841  1.00  0.00     0.021 C 
HETATM   26  C   UNL     1       4.794   3.633  -0.086  1.00  0.00     0.124 C 
ENDBRANCH   5  22
TORSDOF 3
