REMARK  4 active torsions:
REMARK  status: ('A' for Active; 'I' for Inactive)
REMARK    1  A    between atoms: O_2  and  C_3 
REMARK    2  A    between atoms: C_5  and  N_6 
REMARK       I    between atoms: N_6  and  C_7 
REMARK       I    between atoms: C_7  and  N_9 
REMARK    3  A    between atoms: N_9  and  C_10 
REMARK    4  A    between atoms: C_10  and  C_12 
ROOT
HETATM    1  N   UNL     1       5.485  -1.619  -3.597  1.00  0.00    -0.295 N 
HETATM    2  C   UNL     1       5.731  -0.329  -3.972  1.00  0.00     0.322 C 
HETATM    3  O   UNL     1       5.251   0.596  -3.321  1.00  0.00    -0.247 OA
HETATM    4  N   UNL     1       6.557  -0.150  -5.036  1.00  0.00    -0.338 N 
HETATM    5  H   UNL     1       4.937  -1.682  -2.752  1.00  0.00     0.172 HD
HETATM    6  H   UNL     1       6.914  -1.006  -5.452  1.00  0.00     0.164 HD
ENDROOT
BRANCH   1   7
HETATM    7  C   UNL     1       5.936  -2.805  -4.197  1.00  0.00     0.114 A 
HETATM    8  C   UNL     1       5.738  -3.992  -3.530  1.00  0.00     0.104 A 
HETATM    9  C   UNL     1       6.214  -5.114  -4.165  1.00  0.00     0.146 A 
HETATM   10  N   UNL     1       6.811  -5.104  -5.366  1.00  0.00    -0.333 N 
HETATM   11  C   UNL     1       6.942  -3.905  -5.931  1.00  0.00     0.183 A 
ATOM     12  HN  UNL     1       7.142  -5.957  -5.816  1.00  0.00     0.168 HD
HETATM   13  N   UNL     1       6.550  -2.743  -5.395  1.00  0.00    -0.338 N 
ATOM     14  HN  UNL     1       6.708  -1.854  -5.870  1.00  0.00     0.168 HD
BRANCH   9  15
HETATM   15  O   UNL     1       6.055  -6.317  -3.500  1.00  0.00    -0.341 OA
HETATM   16  C   UNL     1       6.561  -7.425  -4.241  1.00  0.00     0.211 C 
ENDBRANCH   9  15
ENDBRANCH   1   7
BRANCH   4  17
HETATM   17  C   UNL     1       7.134   1.121  -5.418  1.00  0.00     0.086 C 
HETATM   18  C   UNL     1       8.341   1.455  -4.546  1.00  0.00     0.032 C 
BRANCH  17  19
HETATM   19  C   UNL     1       7.557   0.961  -6.876  1.00  0.00     0.008 C 
HETATM   20  C   UNL     1       8.082   2.235  -7.594  1.00  0.00     0.007 C 
HETATM   21  C   UNL     1       7.313   1.777  -8.848  1.00  0.00     0.001 C 
HETATM   22  C   UNL     1       6.404   0.953  -7.915  1.00  0.00     0.007 C 
ENDBRANCH  17  19
ENDBRANCH   4  17
TORSDOF 4
