REMARK  8 active torsions:
REMARK  status: ('A' for Active; 'I' for Inactive)
REMARK    1  A    between atoms: C_2  and  O_3 
REMARK    2  A    between atoms: O_3  and  C_4 
REMARK    3  A    between atoms: C_4  and  C_5 
REMARK    4  A    between atoms: C_5  and  N_6 
REMARK    5  A    between atoms: C_7  and  C_8 
REMARK    6  A    between atoms: C_8  and  C_9 
REMARK    7  A    between atoms: C_9  and  C_10 
REMARK    8  A    between atoms: C_10  and  O_11 
ROOT
HETATM    1  N   UNL     1       6.430  -1.879   2.039  1.00  0.00    -0.333 N 
HETATM    2  C   UNL     1       7.212  -0.909   2.643  1.00  0.00     0.084 A 
HETATM    3  N   UNL     1       8.490  -1.228   2.562  1.00  0.00    -0.344 N 
ATOM      4  HN  UNL     1       9.278  -0.695   2.930  1.00  0.00     0.167 HD
HETATM    5  C   UNL     1       8.548  -2.416   1.886  1.00  0.00     0.060 A 
HETATM    6  C   UNL     1       9.669  -3.166   1.498  1.00  0.00     0.032 A 
HETATM    7  C   UNL     1       9.474  -4.376   0.823  1.00  0.00     0.002 A 
HETATM    8  C   UNL     1       8.187  -4.833   0.544  1.00  0.00     0.002 A 
HETATM    9  C   UNL     1       7.058  -4.089   0.910  1.00  0.00     0.032 A 
HETATM   10  C   UNL     1       7.273  -2.872   1.575  1.00  0.00     0.062 A 
ENDROOT
BRANCH   1  11
HETATM   11  C   UNL     1       4.984  -1.902   1.893  1.00  0.00     0.156 C 
BRANCH  11  12
HETATM   12  C   UNL     1       4.421  -0.816   0.981  1.00  0.00     0.187 C 
BRANCH  12  13
HETATM   13  O   UNL     1       4.980  -0.945  -0.325  1.00  0.00    -0.390 OA
BRANCH  13  14
HETATM   14  C   UNL     1       4.592   0.123  -1.185  1.00  0.00     0.163 C 
HETATM   15  C   UNL     1       5.318  -0.044  -2.505  1.00  0.00     0.033 C 
ENDBRANCH  13  14
ENDBRANCH  12  13
ENDBRANCH  11  12
ENDBRANCH   1  11
BRANCH   2  16
HETATM   16  C   UNL     1       6.748   0.388   3.232  1.00  0.00     0.079 C 
BRANCH  16  17
HETATM   17  C   UNL     1       5.807   0.286   4.424  1.00  0.00     0.033 C 
BRANCH  17  18
HETATM   18  C   UNL     1       6.394  -0.457   5.615  1.00  0.00     0.164 C 
BRANCH  18  19
HETATM   19  O   UNL     1       5.428  -0.477   6.662  1.00  0.00    -0.401 OA
HETATM   20  H   UNL     1       5.277   0.443   6.940  1.00  0.00     0.209 HD
ENDBRANCH  18  19
ENDBRANCH  17  18
ENDBRANCH  16  17
ENDBRANCH   2  16
TORSDOF 8
