REMARK  5 active torsions:
REMARK  status: ('A' for Active; 'I' for Inactive)
REMARK    1  A    between atoms: C_2  and  C_3 
REMARK       I    between atoms: C_2  and  N_19 
REMARK    2  A    between atoms: C_3  and  N_4 
REMARK       I    between atoms: N_4  and  C_5 
REMARK       I    between atoms: C_5  and  N_7 
REMARK    3  A    between atoms: N_7  and  C_8 
REMARK    4  A    between atoms: C_11  and  C_16 
REMARK    5  A    between atoms: N_19  and  C_20 
ROOT
HETATM    1  N   UNL     1       1.611  -1.066  -2.298  1.00  0.00    -0.334 N 
HETATM    2  C   UNL     1       0.903  -0.358  -3.231  1.00  0.00     0.322 C 
HETATM    3  O   UNL     1       0.907   0.870  -3.278  1.00  0.00    -0.247 OA
HETATM    4  N   UNL     1       0.106  -1.072  -4.071  1.00  0.00    -0.294 N 
HETATM    5  H   UNL     1       1.329  -2.014  -2.102  1.00  0.00     0.164 HD
HETATM    6  H   UNL     1      -0.702  -0.561  -4.404  1.00  0.00     0.172 HD
ENDROOT
BRANCH   1   7
HETATM    7  C   UNL     1       2.545  -0.427  -1.385  1.00  0.00     0.227 C 
BRANCH   7   8
HETATM    8  C   UNL     1       2.060  -0.069   0.032  1.00  0.00     0.235 C 
HETATM    9  O   UNL     1       2.799   0.517   0.823  1.00  0.00    -0.272 OA
HETATM   10  N   UNL     1       0.792  -0.477   0.378  1.00  0.00    -0.355 N 
HETATM   11  H   UNL     1       0.251  -0.969  -0.313  1.00  0.00     0.162 HD
BRANCH  10  12
HETATM   12  C   UNL     1       0.200  -0.185   1.690  1.00  0.00     0.084 C 
HETATM   13  C   UNL     1       0.379  -1.337   2.686  1.00  0.00     0.025 C 
HETATM   14  C   UNL     1      -0.424  -2.581   2.308  1.00  0.00     0.002 C 
HETATM   15  C   UNL     1      -1.885  -2.294   1.958  1.00  0.00     0.000 C 
HETATM   16  C   UNL     1      -2.097  -1.061   1.083  1.00  0.00     0.002 C 
HETATM   17  C   UNL     1      -1.289   0.143   1.558  1.00  0.00     0.025 C 
ENDBRANCH  10  12
ENDBRANCH   7   8
ENDBRANCH   1   7
BRANCH   4  18
HETATM   18  C   UNL     1       0.077  -2.448  -4.282  1.00  0.00     0.123 A 
HETATM   19  C   UNL     1       1.231  -3.197  -4.430  1.00  0.00     0.052 A 
HETATM   20  C   UNL     1       1.119  -4.581  -4.557  1.00  0.00     0.030 A 
HETATM   21  C   UNL     1      -0.134  -5.182  -4.498  1.00  0.00     0.030 A 
HETATM   22  N   UNL     1      -1.235  -4.399  -4.411  1.00  0.00    -0.303 N 
HETATM   23  N   UNL     1      -1.132  -3.027  -4.340  1.00  0.00    -0.285 N 
ATOM     24  HN  UNL     1      -2.158  -4.833  -4.398  1.00  0.00     0.186 HD
ATOM     25  HN  UNL     1      -1.974  -2.452  -4.332  1.00  0.00     0.188 HD
BRANCH  21  26
HETATM   26  C   UNL     1      -0.319  -6.678  -4.543  1.00  0.00     0.037 A 
HETATM   27  C   UNL     1      -0.879  -7.377  -3.322  1.00  0.00     0.011 A 
HETATM   28  C   UNL     1       0.542  -7.617  -3.730  1.00  0.00     0.011 A 
ENDBRANCH  21  26
ENDBRANCH   4  18
TORSDOF 5
