REMARK  3 active torsions:
REMARK  status: ('A' for Active; 'I' for Inactive)
REMARK    1  A    between atoms: O_2  and  C_3 
REMARK    2  A    between atoms: C_6  and  N_7 
REMARK       I    between atoms: N_7  and  C_8 
REMARK       I    between atoms: C_8  and  N_10 
REMARK    3  A    between atoms: N_10  and  C_11 
ROOT
HETATM    1  N   UNL     1       5.421  -4.055  -3.408  1.00  0.00    -0.308 N 
HETATM    2  C   UNL     1       4.578  -5.135  -3.541  1.00  0.00     0.321 C 
HETATM    3  O   UNL     1       3.664  -5.417  -2.775  1.00  0.00    -0.247 OA
HETATM    4  N   UNL     1       4.828  -5.904  -4.664  1.00  0.00    -0.338 N 
HETATM    5  H   UNL     1       6.052  -3.855  -4.171  1.00  0.00     0.170 HD
HETATM    6  H   UNL     1       5.368  -5.490  -5.411  1.00  0.00     0.164 HD
ENDROOT
BRANCH   1   7
HETATM    7  C   UNL     1       5.333  -3.096  -2.364  1.00  0.00     0.051 A 
HETATM    8  C   UNL     1       4.590  -3.295  -1.200  1.00  0.00     0.035 A 
HETATM    9  C   UNL     1       4.495  -2.292  -0.242  1.00  0.00     0.058 A 
HETATM   10  C   UNL     1       5.167  -1.107  -0.463  1.00  0.00     0.141 A 
HETATM   11  N   UNL     1       5.928  -0.871  -1.554  1.00  0.00    -0.345 N 
HETATM   12  C   UNL     1       5.993  -1.872  -2.472  1.00  0.00     0.119 A 
ATOM     13  HN  UNL     1       6.426   0.010  -1.682  1.00  0.00     0.167 HD
BRANCH  10  14
HETATM   14  O   UNL     1       5.010  -0.143   0.513  1.00  0.00    -0.341 OA
HETATM   15  C   UNL     1       5.754   1.040   0.260  1.00  0.00     0.211 C 
ENDBRANCH  10  14
ENDBRANCH   1   7
BRANCH   4  16
HETATM   16  C   UNL     1       3.808  -6.890  -5.035  1.00  0.00     0.086 C 
HETATM   17  C   UNL     1       4.361  -8.094  -5.806  1.00  0.00     0.025 C 
HETATM   18  C   UNL     1       4.619  -7.841  -7.289  1.00  0.00     0.002 C 
HETATM   19  C   UNL     1       3.474  -7.107  -7.981  1.00  0.00     0.000 C 
HETATM   20  C   UNL     1       3.062  -5.854  -7.221  1.00  0.00     0.002 C 
HETATM   21  C   UNL     1       2.661  -6.206  -5.792  1.00  0.00     0.025 C 
ENDBRANCH   4  16
TORSDOF 3
