REMARK  7 active torsions:
REMARK  status: ('A' for Active; 'I' for Inactive)
REMARK    1  A    between atoms: N_10  and  C_11 
REMARK    2  A    between atoms: C_11  and  C_12 
REMARK    3  A    between atoms: C_12  and  O_13 
REMARK    4  A    between atoms: C_12  and  C_14 
REMARK    5  A    between atoms: C_14  and  O_15 
REMARK    6  A    between atoms: O_15  and  C_16 
REMARK    7  A    between atoms: C_16  and  C_17 
ROOT
HETATM    1  C   UNL     1       5.362   3.616  -0.118  1.00  0.00     0.183 C 
ENDROOT
BRANCH   1   2
HETATM    2  N   UNL     1       6.256   3.992   0.967  1.00  0.00    -0.284 N 
HETATM    3  N   UNL     1       5.743   4.167   2.218  1.00  0.00    -0.308 N 
HETATM    4  C   UNL     1       6.819   4.254   3.007  1.00  0.00     0.122 A 
ATOM      5  HN  UNL     1       4.761   4.220   2.490  1.00  0.00     0.186 HD
HETATM    6  C   UNL     1       8.003   4.154   2.275  1.00  0.00     0.032 A 
HETATM    7  C   UNL     1       9.390   4.140   2.625  1.00  0.00     0.122 A 
HETATM    8  C   UNL     1       7.623   4.022   0.963  1.00  0.00     0.133 A 
HETATM    9  N   UNL     1      10.300   3.996   1.708  1.00  0.00    -0.306 N 
HETATM   10  N   UNL     1       9.912   3.869   0.363  1.00  0.00    -0.261 N 
ATOM     11  HN  UNL     1      11.288   3.975   1.962  1.00  0.00     0.186 HD
HETATM   12  C   UNL     1      10.985   3.656  -0.588  1.00  0.00     0.181 C 
HETATM   13  C   UNL     1       8.575   3.887  -0.101  1.00  0.00     0.290 A 
HETATM   14  O   UNL     1       8.266   3.794  -1.285  1.00  0.00    -0.264 OA
ENDBRANCH   1   2
BRANCH   1  15
HETATM   15  C   UNL     1       3.910   4.121   0.021  1.00  0.00     0.161 C 
BRANCH  15  16
HETATM   16  O   UNL     1       3.282   3.655   1.220  1.00  0.00    -0.392 OA
HETATM   17  H   UNL     1       3.910   3.865   1.949  1.00  0.00     0.210 HD
ENDBRANCH  15  16
BRANCH  15  18
HETATM   18  C   UNL     1       3.804   5.645  -0.079  1.00  0.00     0.201 C 
BRANCH  18  19
HETATM   19  O   UNL     1       4.293   6.035  -1.357  1.00  0.00    -0.384 OA
BRANCH  19  20
HETATM   20  C   UNL     1       4.189   7.439  -1.578  1.00  0.00     0.209 C 
BRANCH  20  21
HETATM   21  C   UNL     1       4.679   7.753  -2.966  1.00  0.00     0.004 A 
HETATM   22  C   UNL     1       5.665   6.982  -3.601  1.00  0.00     0.012 A 
HETATM   23  C   UNL     1       6.115   7.317  -4.881  1.00  0.00     0.001 A 
HETATM   24  C   UNL     1       5.594   8.433  -5.535  1.00  0.00     0.003 A 
HETATM   25  C   UNL     1       4.626   9.215  -4.908  1.00  0.00     0.043 A 
HETATM   26  C   UNL     1       4.183   8.873  -3.634  1.00  0.00     0.124 A 
HETATM   27  F   UNL     1       3.257   9.645  -3.045  1.00  0.00    -0.205 F 
ENDBRANCH  20  21
ENDBRANCH  19  20
ENDBRANCH  18  19
ENDBRANCH  15  18
ENDBRANCH   1  15
TORSDOF 7
