REMARK  4 active torsions:
REMARK  status: ('A' for Active; 'I' for Inactive)
REMARK    1  A    between atoms: C_8  and  N_9 
REMARK       I    between atoms: N_9  and  C_10 
REMARK       I    between atoms: C_10  and  N_12 
REMARK    2  A    between atoms: N_12  and  C_13 
REMARK    3  A    between atoms: C_13  and  C_14 
REMARK    4  A    between atoms: C_14  and  N_15 
ROOT
HETATM    1  N   UNL     1       5.330   2.306   0.190  1.00  0.00    -0.295 N 
HETATM    2  C   UNL     1       6.706   2.333   0.184  1.00  0.00     0.321 C 
HETATM    3  O   UNL     1       7.466   1.373   0.131  1.00  0.00    -0.247 OA
HETATM    4  N   UNL     1       7.208   3.630   0.249  1.00  0.00    -0.341 N 
HETATM    5  H   UNL     1       4.841   3.163   0.389  1.00  0.00     0.172 HD
HETATM    6  H   UNL     1       6.656   4.318  -0.240  1.00  0.00     0.164 HD
ENDROOT
BRANCH   1   7
HETATM    7  C   UNL     1       4.581   1.119   0.103  1.00  0.00     0.109 A 
HETATM    8  N   UNL     1       5.213  -0.053  -0.067  1.00  0.00    -0.346 N 
HETATM    9  C   UNL     1       4.501  -1.197  -0.114  1.00  0.00     0.007 A 
ATOM     10  HN  UNL     1       6.228  -0.078  -0.160  1.00  0.00     0.167 HD
HETATM   11  C   UNL     1       3.119  -1.210  -0.019  1.00  0.00     0.031 A 
HETATM   12  C   UNL     1       5.297  -2.455  -0.262  1.00  0.00     0.068 C 
HETATM   13  C   UNL     1       2.447   0.004   0.136  1.00  0.00    -0.057 A 
HETATM   14  C   UNL     1       0.951   0.036   0.237  1.00  0.00     0.048 C 
HETATM   15  C   UNL     1       3.196   1.188   0.200  1.00  0.00     0.055 A 
ENDBRANCH   1   7
BRANCH   4  16
HETATM   16  C   UNL     1       8.657   3.738   0.125  1.00  0.00     0.154 C 
BRANCH  16  17
HETATM   17  C   UNL     1       9.211   5.168   0.228  1.00  0.00     0.292 C 
BRANCH  17  18
HETATM   18  N   UNL     1      10.686   5.236   0.154  1.00  0.00     0.094 N 
HETATM   19  C   UNL     1      11.174   6.629   0.265  1.00  0.00     0.298 C 
HETATM   20  C   UNL     1      10.941   7.474  -1.003  1.00  0.00     0.198 C 
HETATM   21  O   UNL     1      11.473   6.847  -2.177  1.00  0.00    -0.388 OA
HETATM   22  C   UNL     1      10.963   5.517  -2.333  1.00  0.00     0.198 C 
HETATM   23  C   UNL     1      11.259   4.667  -1.089  1.00  0.00     0.298 C 
ENDBRANCH  17  18
ENDBRANCH  16  17
ENDBRANCH   4  16
TORSDOF 4
