REMARK  8 active torsions:
REMARK  status: ('A' for Active; 'I' for Inactive)
REMARK    1  A    between atoms: O_2  and  C_3 
REMARK    2  A    between atoms: C_6  and  O_7 
REMARK    3  A    between atoms: O_7  and  C_8 
REMARK    4  A    between atoms: C_8  and  C_9 
REMARK    5  A    between atoms: C_9  and  N_10 
REMARK    6  A    between atoms: C_11  and  C_12 
REMARK    7  A    between atoms: C_12  and  C_13 
REMARK    8  A    between atoms: C_13  and  O_14 
ROOT
HETATM    1  N   UNL     1       5.512   2.347  -7.735  1.00  0.00    -0.333 N 
HETATM    2  C   UNL     1       5.313   2.750  -9.054  1.00  0.00     0.086 A 
HETATM    3  N   UNL     1       5.868   1.904  -9.897  1.00  0.00    -0.344 N 
ATOM      4  HN  UNL     1       5.814   1.927 -10.915  1.00  0.00     0.167 HD
HETATM    5  C   UNL     1       6.531   0.989  -9.127  1.00  0.00     0.060 A 
HETATM    6  C   UNL     1       7.340  -0.081  -9.538  1.00  0.00     0.032 A 
HETATM    7  C   UNL     1       7.950  -0.889  -8.578  1.00  0.00     0.002 A 
HETATM    8  C   UNL     1       7.771  -0.624  -7.224  1.00  0.00     0.002 A 
HETATM    9  C   UNL     1       6.982   0.450  -6.798  1.00  0.00     0.032 A 
HETATM   10  C   UNL     1       6.345   1.241  -7.768  1.00  0.00     0.062 A 
ENDROOT
BRANCH   1  11
HETATM   11  C   UNL     1       5.057   3.104  -6.579  1.00  0.00     0.157 C 
BRANCH  11  12
HETATM   12  C   UNL     1       4.511   2.356  -5.355  1.00  0.00     0.196 C 
BRANCH  12  13
HETATM   13  O   UNL     1       5.486   1.748  -4.516  1.00  0.00    -0.350 OA
BRANCH  13  14
HETATM   14  C   UNL     1       6.268   2.491  -3.685  1.00  0.00     0.069 A 
HETATM   15  C   UNL     1       7.086   1.729  -2.845  1.00  0.00     0.039 A 
HETATM   16  C   UNL     1       7.940   2.340  -1.924  1.00  0.00     0.039 A 
HETATM   17  C   UNL     1       8.002   3.728  -1.854  1.00  0.00     0.068 A 
HETATM   18  C   UNL     1       7.197   4.490  -2.702  1.00  0.00     0.039 A 
HETATM   19  C   UNL     1       6.331   3.877  -3.615  1.00  0.00     0.039 A 
BRANCH  17  20
HETATM   20  O   UNL     1       8.771   4.444  -0.979  1.00  0.00    -0.356 OA
HETATM   21  C   UNL     1       9.928   3.778  -0.487  1.00  0.00     0.210 C 
ENDBRANCH  17  20
ENDBRANCH  13  14
ENDBRANCH  12  13
ENDBRANCH  11  12
ENDBRANCH   1  11
BRANCH   2  22
HETATM   22  C   UNL     1       4.616   4.004  -9.492  1.00  0.00     0.102 C 
BRANCH  22  23
HETATM   23  C   UNL     1       3.169   3.745  -9.893  1.00  0.00     0.171 C 
BRANCH  23  24
HETATM   24  O   UNL     1       2.382   3.402  -8.756  1.00  0.00    -0.400 OA
HETATM   25  H   UNL     1       2.396   2.431  -8.703  1.00  0.00     0.209 HD
ENDBRANCH  23  24
ENDBRANCH  22  23
ENDBRANCH   2  22
TORSDOF 8
