REMARK  2 active torsions:
REMARK  status: ('A' for Active; 'I' for Inactive)
REMARK    1  A    between atoms: C_7  and  N_8 
REMARK       I    between atoms: N_8  and  C_9 
REMARK       I    between atoms: C_9  and  N_11 
REMARK    2  A    between atoms: N_11  and  C_12 
ROOT
HETATM    1  N   UNL     1       5.258  -2.566   0.587  1.00  0.00    -0.290 N 
HETATM    2  C   UNL     1       4.493  -3.561   0.029  1.00  0.00     0.322 C 
HETATM    3  O   UNL     1       3.282  -3.412  -0.104  1.00  0.00    -0.247 OA
HETATM    4  N   UNL     1       5.168  -4.702  -0.295  1.00  0.00    -0.334 N 
HETATM    5  H   UNL     1       4.714  -1.784   0.935  1.00  0.00     0.172 HD
HETATM    6  H   UNL     1       6.180  -4.642  -0.187  1.00  0.00     0.165 HD
ENDROOT
BRANCH   1   7
HETATM    7  C   UNL     1       6.630  -2.470   0.743  1.00  0.00     0.178 A 
HETATM    8  N   UNL     1       7.458  -3.334   0.224  1.00  0.00    -0.346 N 
HETATM    9  C   UNL     1       8.792  -3.064   0.398  1.00  0.00     0.107 A 
ATOM     10  HN  UNL     1       7.134  -4.159  -0.280  1.00  0.00     0.167 HD
HETATM   11  C   UNL     1       9.286  -2.003   1.047  1.00  0.00     0.111 A 
HETATM   12  N   UNL     1       8.446  -1.082   1.636  1.00  0.00    -0.325 N 
HETATM   13  C   UNL     1       8.971   0.044   2.377  1.00  0.00     0.159 C 
HETATM   14  C   UNL     1       7.072  -1.256   1.566  1.00  0.00     0.291 A 
HETATM   15  O   UNL     1       6.215  -0.555   2.093  1.00  0.00    -0.264 OA
ENDBRANCH   1   7
BRANCH   4  16
HETATM   16  C   UNL     1       4.544  -5.977  -0.687  1.00  0.00     0.031 C 
HETATM   17  C   UNL     1       4.055  -6.714   0.555  1.00  0.00     0.038 C 
HETATM   18  C   UNL     1       5.459  -6.789  -1.655  1.00  0.00     0.031 C 
HETATM   19  C   UNL     1       4.189  -7.171  -2.438  1.00  0.00     0.005 C 
HETATM   20  C   UNL     1       3.528  -5.903  -1.859  1.00  0.00     0.031 C 
ENDBRANCH   4  16
TORSDOF 2
