REMARK  8 active torsions:
REMARK  status: ('A' for Active; 'I' for Inactive)
REMARK    1  A    between atoms: O_1  and  C_2 
REMARK    2  A    between atoms: C_2  and  C_3 
REMARK    3  A    between atoms: N_12  and  C_13 
REMARK    4  A    between atoms: C_13  and  C_14 
REMARK    5  A    between atoms: C_14  and  O_15 
REMARK    6  A    between atoms: C_14  and  C_16 
REMARK    7  A    between atoms: C_16  and  O_17 
REMARK    8  A    between atoms: O_17  and  C_18 
ROOT
HETATM    1  C   UNL     1       1.864  -0.788  -2.760  1.00  0.00     0.108 A 
HETATM    2  N   UNL     1       2.428   0.283  -3.287  1.00  0.00    -0.342 N 
ATOM      3  HN  UNL     1       1.978   0.991  -3.867  1.00  0.00     0.167 HD
HETATM    4  C   UNL     1       3.738   0.250  -2.897  1.00  0.00     0.060 A 
HETATM    5  C   UNL     1       4.771   1.155  -3.188  1.00  0.00     0.032 A 
HETATM    6  C   UNL     1       6.047   0.916  -2.666  1.00  0.00     0.002 A 
HETATM    7  C   UNL     1       6.284  -0.196  -1.862  1.00  0.00     0.002 A 
HETATM    8  C   UNL     1       5.260  -1.099  -1.552  1.00  0.00     0.032 A 
HETATM    9  C   UNL     1       3.992  -0.860  -2.098  1.00  0.00     0.062 A 
HETATM   10  N   UNL     1       2.783  -1.523  -2.034  1.00  0.00    -0.330 N 
ENDROOT
BRANCH  10  11
HETATM   11  C   UNL     1       2.501  -2.710  -1.247  1.00  0.00     0.164 C 
BRANCH  11  12
HETATM   12  C   UNL     1       2.622  -4.062  -1.975  1.00  0.00     0.160 C 
BRANCH  12  13
HETATM   13  O   UNL     1       1.763  -4.185  -3.109  1.00  0.00    -0.392 OA
HETATM   14  H   UNL     1       1.821  -3.384  -3.671  1.00  0.00     0.210 HD
ENDBRANCH  12  13
BRANCH  12  15
HETATM   15  C   UNL     1       4.057  -4.465  -2.325  1.00  0.00     0.209 C 
BRANCH  15  16
HETATM   16  O   UNL     1       4.801  -4.539  -1.104  1.00  0.00    -0.349 OA
BRANCH  16  17
HETATM   17  C   UNL     1       6.145  -4.753  -1.232  1.00  0.00     0.069 A 
HETATM   18  C   UNL     1       6.930  -4.232  -0.200  1.00  0.00     0.038 A 
HETATM   19  C   UNL     1       8.319  -4.360  -0.233  1.00  0.00     0.026 A 
HETATM   20  C   UNL     1       8.918  -5.044  -1.287  1.00  0.00     0.034 A 
HETATM   21 CL   UNL     1      10.630  -5.207  -1.336  1.00  0.00    -0.084 Cl
HETATM   22  C   UNL     1       8.139  -5.601  -2.300  1.00  0.00     0.026 A 
HETATM   23  C   UNL     1       6.749  -5.455  -2.274  1.00  0.00     0.038 A 
ENDBRANCH  16  17
ENDBRANCH  15  16
ENDBRANCH  12  15
ENDBRANCH  11  12
ENDBRANCH  10  11
BRANCH   1  24
HETATM   24  C   UNL     1       0.438  -1.165  -2.958  1.00  0.00     0.240 C 
BRANCH  24  25
HETATM   25  O   UNL     1       0.408  -2.026  -4.089  1.00  0.00    -0.393 OA
HETATM   26  H   UNL     1      -0.500  -1.985  -4.436  1.00  0.00     0.209 HD
ENDBRANCH  24  25
ENDBRANCH   1  24
TORSDOF 8
