REMARK  4 active torsions:
REMARK  status: ('A' for Active; 'I' for Inactive)
REMARK    1  A    between atoms: C_2  and  C_3 
REMARK    2  A    between atoms: C_2  and  C_14 
REMARK    3  A    between atoms: C_3  and  N_4 
REMARK       I    between atoms: N_4  and  C_5 
REMARK       I    between atoms: C_5  and  N_7 
REMARK    4  A    between atoms: N_7  and  C_8 
ROOT
HETATM    1  N   UNL     1       2.673   0.634   2.455  1.00  0.00    -0.342 N 
HETATM    2  C   UNL     1       2.937   0.288   3.758  1.00  0.00     0.316 C 
HETATM    3  O   UNL     1       3.469  -0.759   4.094  1.00  0.00    -0.247 OA
HETATM    4  N   UNL     1       2.560   1.274   4.630  1.00  0.00    -0.336 N 
HETATM    5  H   UNL     1       1.799   1.139   2.335  1.00  0.00     0.164 HD
HETATM    6  H   UNL     1       2.591   2.204   4.236  1.00  0.00     0.164 HD
ENDROOT
BRANCH   1   7
HETATM    7  C   UNL     1       2.981  -0.332   1.411  1.00  0.00     0.135 C 
BRANCH   7   8
HETATM    8  C   UNL     1       2.560   0.089  -0.006  1.00  0.00     0.057 C 
HETATM    9  C   UNL     1       3.227   1.388  -0.459  1.00  0.00     0.018 C 
BRANCH   8  10
HETATM   10  C   UNL     1       1.058   0.190  -0.091  1.00  0.00     0.056 A 
HETATM   11  N   UNL     1       0.337   1.100   0.535  1.00  0.00    -0.362 N 
HETATM   12  C   UNL     1      -1.005   0.869   0.297  1.00  0.00     0.102 A 
ATOM     13  HN  UNL     1       0.712   1.857   1.106  1.00  0.00     0.165 HD
HETATM   14  C   UNL     1      -1.295  -0.224  -0.492  1.00  0.00    -0.004 A 
HETATM   15  C   UNL     1      -2.611  -0.773  -0.906  1.00  0.00     0.058 C 
HETATM   16  S   UNL     1       0.163  -0.970  -0.992  1.00  0.00    -0.080 SA
ENDBRANCH   8  10
ENDBRANCH   7   8
ENDBRANCH   1   7
BRANCH   4  17
HETATM   17  C   UNL     1       2.821   1.115   6.050  1.00  0.00     0.116 C 
HETATM   18  C   UNL     1       2.282   2.258   6.886  1.00  0.00     0.054 C 
HETATM   19  C   UNL     1       3.202   2.311   8.092  1.00  0.00     0.170 C 
HETATM   20  O   UNL     1       4.298   1.418   7.865  1.00  0.00    -0.384 OA
HETATM   21  C   UNL     1       4.292   1.031   6.478  1.00  0.00     0.140 C 
HETATM   22  C   UNL     1       5.241   1.962   5.730  1.00  0.00     0.041 C 
ENDBRANCH   4  17
TORSDOF 4
