REMARK  4 active torsions:
REMARK  status: ('A' for Active; 'I' for Inactive)
REMARK    1  A    between atoms: C_2  and  C_3 
REMARK       I    between atoms: C_3  and  N_5 
REMARK    2  A    between atoms: N_5  and  C_6 
REMARK    3  A    between atoms: C_6  and  C_7 
REMARK    4  A    between atoms: C_10  and  N_14 
ROOT
HETATM    1  C   UNL     1       6.489  -2.710   1.338  1.00  0.00    -0.025 A 
HETATM    2  C   UNL     1       7.220  -2.286   0.234  1.00  0.00     0.014 A 
HETATM    3  C   UNL     1       8.613  -2.426   0.229  1.00  0.00     0.049 A 
HETATM    4  C   UNL     1       9.279  -2.978   1.325  1.00  0.00     0.103 A 
HETATM    5  N   UNL     1       8.569  -3.351   2.413  1.00  0.00    -0.352 N 
ATOM      6  HN  UNL     1       9.043  -3.730   3.233  1.00  0.00     0.166 HD
HETATM    7  C   UNL     1       7.219  -3.216   2.402  1.00  0.00     0.098 A 
ENDROOT
BRANCH   1   8
HETATM    8  C   UNL     1       4.993  -2.654   1.371  1.00  0.00     0.162 C 
BRANCH   8   9
HETATM    9  N   UNL     1       4.471  -1.386   1.829  1.00  0.00    -0.357 N 
HETATM   10  C   UNL     1       3.104  -1.202   1.887  1.00  0.00     0.217 C 
HETATM   11  O   UNL     1       2.306  -2.066   1.540  1.00  0.00    -0.274 OA
HETATM   12  H   UNL     1       5.100  -0.681   2.190  1.00  0.00     0.162 HD
BRANCH  10  13
HETATM   13  C   UNL     1       2.688   0.159   2.406  1.00  0.00     0.098 C 
HETATM   14  C   UNL     1       1.175   0.304   2.471  1.00  0.00     0.014 C 
ENDBRANCH  10  13
ENDBRANCH   8   9
ENDBRANCH   1   8
BRANCH   4  15
HETATM   15  N   UNL     1      10.654  -3.098   1.349  1.00  0.00    -0.363 N 
HETATM   16  C   UNL     1      11.443  -3.412   0.150  1.00  0.00     0.150 C 
HETATM   17  C   UNL     1      12.075  -4.812   0.254  1.00  0.00     0.187 C 
HETATM   18  O   UNL     1      12.821  -4.975   1.469  1.00  0.00    -0.388 OA
HETATM   19  C   UNL     1      11.951  -4.803   2.601  1.00  0.00     0.187 C 
HETATM   20  C   UNL     1      11.332  -3.398   2.621  1.00  0.00     0.150 C 
ENDBRANCH   4  15
TORSDOF 4
