REMARK  7 active torsions:
REMARK  status: ('A' for Active; 'I' for Inactive)
REMARK    1  A    between atoms: O_2  and  C_3 
REMARK    2  A    between atoms: C_3  and  C_4 
REMARK    3  A    between atoms: C_4  and  O_5 
REMARK    4  A    between atoms: O_5  and  C_6 
REMARK    5  A    between atoms: C_12  and  C_13 
REMARK    6  A    between atoms: C_13  and  N_14 
REMARK       I    between atoms: N_14  and  C_15 
REMARK    7  A    between atoms: C_15  and  C_17 
ROOT
HETATM    1  C   UNL     1       6.342   1.397  -2.577  1.00  0.00     0.150 A 
HETATM    2  N   UNL     1       6.944   2.597  -2.411  1.00  0.00    -0.346 N 
ATOM      3  HN  UNL     1       6.401   3.448  -2.266  1.00  0.00     0.167 HD
HETATM    4  C   UNL     1       8.292   2.620  -2.445  1.00  0.00     0.090 A 
HETATM    5  C   UNL     1       9.074   1.495  -2.613  1.00  0.00     0.018 A 
HETATM    6  C   UNL     1       8.433   0.270  -2.773  1.00  0.00     0.014 A 
HETATM    7  C   UNL     1       7.033   0.205  -2.773  1.00  0.00     0.011 A 
ENDROOT
BRANCH   7   8
HETATM    8  C   UNL     1       6.342  -1.104  -3.021  1.00  0.00     0.165 C 
BRANCH   8   9
HETATM    9  N   UNL     1       6.174  -1.885  -1.820  1.00  0.00    -0.356 N 
HETATM   10  C   UNL     1       7.070  -2.853  -1.444  1.00  0.00     0.222 C 
HETATM   11  O   UNL     1       8.091  -3.134  -2.055  1.00  0.00    -0.273 OA
HETATM   12  H   UNL     1       5.403  -1.656  -1.208  1.00  0.00     0.162 HD
BRANCH  10  13
HETATM   13  C   UNL     1       6.700  -3.549  -0.180  1.00  0.00     0.078 A 
HETATM   14  C   UNL     1       7.544  -3.345   1.056  1.00  0.00     0.015 A 
HETATM   15  C   UNL     1       7.543  -4.678   0.365  1.00  0.00     0.015 A 
ENDBRANCH  10  13
ENDBRANCH   8   9
ENDBRANCH   7   8
BRANCH   1  16
HETATM   16  O   UNL     1       4.963   1.345  -2.498  1.00  0.00    -0.333 OA
BRANCH  16  17
HETATM   17  C   UNL     1       4.355   2.599  -2.825  1.00  0.00     0.203 C 
BRANCH  17  18
HETATM   18  C   UNL     1       2.847   2.491  -2.631  1.00  0.00     0.193 C 
BRANCH  18  19
HETATM   19  O   UNL     1       2.227   3.688  -3.100  1.00  0.00    -0.394 OA
HETATM   20  C   UNL     1       0.818   3.659  -2.916  1.00  0.00     0.201 C 
ENDBRANCH  18  19
ENDBRANCH  17  18
ENDBRANCH  16  17
ENDBRANCH   1  16
TORSDOF 7
