REMARK  6 active torsions:
REMARK  status: ('A' for Active; 'I' for Inactive)
REMARK    1  A    between atoms: C_2  and  C_4 
REMARK    2  A    between atoms: C_4  and  N_5 
REMARK    3  A    between atoms: C_4  and  C_9 
REMARK       I    between atoms: N_5  and  C_6 
REMARK       I    between atoms: C_9  and  N_11 
REMARK    4  A    between atoms: N_11  and  C_12 
REMARK    5  A    between atoms: C_12  and  C_13 
REMARK    6  A    between atoms: C_16  and  N_20 
ROOT
HETATM    1  C   UNL     1       7.211  -1.539   3.943  1.00  0.00    -0.025 A 
HETATM    2  C   UNL     1       7.382  -0.713   5.047  1.00  0.00     0.014 A 
HETATM    3  C   UNL     1       7.919  -1.235   6.228  1.00  0.00     0.049 A 
HETATM    4  C   UNL     1       8.278  -2.580   6.318  1.00  0.00     0.103 A 
HETATM    5  N   UNL     1       8.071  -3.392   5.258  1.00  0.00    -0.352 N 
ATOM      6  HN  UNL     1       8.296  -4.385   5.317  1.00  0.00     0.166 HD
HETATM    7  C   UNL     1       7.560  -2.870   4.112  1.00  0.00     0.098 A 
ENDROOT
BRANCH   1   8
HETATM    8  C   UNL     1       6.708  -1.013   2.634  1.00  0.00     0.162 C 
BRANCH   8   9
HETATM    9  N   UNL     1       5.267  -1.017   2.530  1.00  0.00    -0.355 N 
HETATM   10  C   UNL     1       4.677  -0.668   1.327  1.00  0.00     0.241 C 
HETATM   11  O   UNL     1       5.346  -0.434   0.322  1.00  0.00    -0.271 OA
HETATM   12  H   UNL     1       4.704  -1.079   3.366  1.00  0.00     0.162 HD
BRANCH  10  13
HETATM   13  C   UNL     1       3.134  -0.757   1.283  1.00  0.00     0.179 C 
BRANCH  13  14
HETATM   14  C   UNL     1       2.659  -2.222   1.445  1.00  0.00     0.009 C 
HETATM   15  C   UNL     1       1.130  -2.335   1.399  1.00  0.00     0.012 C 
HETATM   16  C   UNL     1       3.254  -3.124   0.356  1.00  0.00     0.012 C 
ENDBRANCH  13  14
BRANCH  13  17
HETATM   17  N   UNL     1       2.577   0.108   2.328  1.00  0.00    -0.348 N 
HETATM   18  C   UNL     1       2.327   1.442   2.082  1.00  0.00     0.214 C 
HETATM   19  O   UNL     1       2.532   1.985   1.002  1.00  0.00    -0.274 OA
HETATM   20  C   UNL     1       1.735   2.186   3.246  1.00  0.00     0.117 C 
HETATM   21  H   UNL     1       2.404  -0.268   3.249  1.00  0.00     0.163 HD
ENDBRANCH  13  17
ENDBRANCH  10  13
ENDBRANCH   8   9
ENDBRANCH   1   8
BRANCH   4  22
HETATM   22  N   UNL     1       8.803  -3.114   7.475  1.00  0.00    -0.363 N 
HETATM   23  C   UNL     1       9.632  -2.350   8.415  1.00  0.00     0.150 C 
HETATM   24  C   UNL     1      11.038  -2.967   8.522  1.00  0.00     0.188 C 
HETATM   25  O   UNL     1      10.986  -4.365   8.838  1.00  0.00    -0.383 OA
HETATM   26  C   UNL     1      10.282  -5.082   7.803  1.00  0.00     0.135 C 
HETATM   27  C   UNL     1      10.308  -6.558   8.182  1.00  0.00     0.041 C 
HETATM   28  C   UNL     1       8.832  -4.571   7.671  1.00  0.00     0.155 C 
ENDBRANCH   4  22
TORSDOF 6
