REMARK  5 active torsions:
REMARK  status: ('A' for Active; 'I' for Inactive)
REMARK    1  A    between atoms: C_2  and  C_4 
REMARK    2  A    between atoms: C_2  and  N_21 
REMARK    3  A    between atoms: C_4  and  N_5 
REMARK       I    between atoms: N_5  and  C_6 
REMARK       I    between atoms: C_6  and  N_8 
REMARK    4  A    between atoms: N_8  and  C_9 
REMARK    5  A    between atoms: C_15  and  N_16 
ROOT
HETATM    1  N   UNL     1       2.575   1.743   1.920  1.00  0.00    -0.340 N 
HETATM    2  C   UNL     1       3.133   2.065   3.131  1.00  0.00     0.320 C 
HETATM    3  O   UNL     1       3.808   1.275   3.781  1.00  0.00    -0.247 OA
HETATM    4  N   UNL     1       2.883   3.374   3.478  1.00  0.00    -0.306 N 
HETATM    5  H   UNL     1       1.671   2.166   1.764  1.00  0.00     0.164 HD
HETATM    6  H   UNL     1       2.926   4.030   2.707  1.00  0.00     0.171 HD
ENDROOT
BRANCH   1   7
HETATM    7  C   UNL     1       2.780   0.422   1.340  1.00  0.00     0.165 C 
BRANCH   7   8
HETATM    8  C   UNL     1       4.014   0.268   0.364  1.00  0.00     0.168 C 
HETATM    9  C   UNL     1       5.312   0.694   1.077  1.00  0.00     0.050 C 
HETATM   10  C   UNL     1       4.132  -1.270   0.143  1.00  0.00     0.050 C 
BRANCH   8  11
HETATM   11  N   UNL     1       3.765   0.913  -0.964  1.00  0.00     0.103 N 
HETATM   12  C   UNL     1       4.758   0.688  -2.038  1.00  0.00     0.299 C 
HETATM   13  C   UNL     1       5.930   1.686  -2.065  1.00  0.00     0.198 C 
HETATM   14  O   UNL     1       5.469   3.041  -2.114  1.00  0.00    -0.388 OA
HETATM   15  C   UNL     1       4.589   3.314  -1.019  1.00  0.00     0.198 C 
HETATM   16  C   UNL     1       3.400   2.342  -0.999  1.00  0.00     0.299 C 
ENDBRANCH   8  11
ENDBRANCH   7   8
ENDBRANCH   1   7
BRANCH   4  17
HETATM   17  C   UNL     1       3.410   3.883   4.688  1.00  0.00     0.075 A 
HETATM   18  C   UNL     1       3.137   3.207   5.884  1.00  0.00     0.034 A 
HETATM   19  C   UNL     1       3.654   3.694   7.070  1.00  0.00     0.019 A 
HETATM   20  C   UNL     1       4.405   4.849   7.021  1.00  0.00     0.089 A 
HETATM   21  N   UNL     1       4.662   5.542   5.883  1.00  0.00    -0.355 N 
HETATM   22  C   UNL     1       4.189   5.061   4.710  1.00  0.00     0.109 A 
ATOM     23  HN  UNL     1       5.201   6.408   5.911  1.00  0.00     0.166 HD
BRANCH  22  24
HETATM   24  N   UNL     1       4.527   5.718   3.503  1.00  0.00    -0.267 NA
HETATM   25  C   UNL     1       5.134   7.052   3.664  1.00  0.00     0.097 C 
HETATM   26  C   UNL     1       6.149   7.169   2.532  1.00  0.00     0.016 C 
HETATM   27  C   UNL     1       6.598   5.741   2.301  1.00  0.00     0.016 C 
HETATM   28  C   UNL     1       5.353   4.913   2.589  1.00  0.00     0.097 C 
ENDBRANCH  22  24
ENDBRANCH   4  17
TORSDOF 5
