REMARK  5 active torsions:
REMARK  status: ('A' for Active; 'I' for Inactive)
REMARK    1  A    between atoms: C_2  and  O_3 
REMARK    2  A    between atoms: O_3  and  C_4 
REMARK    3  A    between atoms: C_10  and  N_11 
REMARK       I    between atoms: N_11  and  C_12 
REMARK       I    between atoms: C_12  and  N_14 
REMARK    4  A    between atoms: N_14  and  C_15 
REMARK    5  A    between atoms: C_15  and  C_16 
ROOT
HETATM    1  N   UNL     1       3.622  -3.754  -1.136  1.00  0.00    -0.305 N 
HETATM    2  C   UNL     1       2.327  -3.532  -1.532  1.00  0.00     0.320 C 
HETATM    3  O   UNL     1       1.850  -2.447  -1.848  1.00  0.00    -0.247 OA
HETATM    4  N   UNL     1       1.556  -4.679  -1.542  1.00  0.00    -0.342 N 
HETATM    5  H   UNL     1       3.949  -4.707  -1.048  1.00  0.00     0.171 HD
HETATM    6  H   UNL     1       2.046  -5.550  -1.672  1.00  0.00     0.164 HD
ENDROOT
BRANCH   1   7
HETATM    7  C   UNL     1       4.612  -2.756  -0.936  1.00  0.00     0.087 A 
HETATM    8  C   UNL     1       5.950  -3.129  -0.751  1.00  0.00     0.169 A 
HETATM    9  N   UNL     1       6.959  -2.251  -0.516  1.00  0.00    -0.345 N 
HETATM   10  C   UNL     1       6.633  -0.945  -0.488  1.00  0.00     0.090 A 
ATOM     11  HN  UNL     1       7.918  -2.566  -0.368  1.00  0.00     0.167 HD
HETATM   12  C   UNL     1       5.348  -0.469  -0.671  1.00  0.00     0.019 A 
HETATM   13  C   UNL     1       4.327  -1.391  -0.889  1.00  0.00     0.035 A 
BRANCH   8  14
HETATM   14  O   UNL     1       6.244  -4.479  -0.874  1.00  0.00    -0.334 OA
BRANCH  14  15
HETATM   15  C   UNL     1       7.624  -4.788  -0.657  1.00  0.00     0.173 C 
HETATM   16  C   UNL     1       7.881  -6.183  -1.200  1.00  0.00     0.034 C 
ENDBRANCH  14  15
ENDBRANCH   8  14
ENDBRANCH   1   7
BRANCH   4  17
HETATM   17  C   UNL     1       0.212  -4.554  -2.075  1.00  0.00     0.131 C 
BRANCH  17  18
HETATM   18  C   UNL     1      -0.616  -5.824  -1.993  1.00  0.00     0.029 C 
HETATM   19  C   UNL     1      -0.083  -6.973  -2.827  1.00  0.00     0.034 C 
HETATM   20  C   UNL     1      -1.327  -7.707  -3.295  1.00  0.00     0.168 C 
HETATM   21  O   UNL     1      -2.466  -6.930  -2.909  1.00  0.00    -0.391 OA
HETATM   22  C   UNL     1      -2.002  -5.619  -2.577  1.00  0.00     0.173 C 
ENDBRANCH  17  18
ENDBRANCH   4  17
TORSDOF 5
