REMARK  5 active torsions:
REMARK  status: ('A' for Active; 'I' for Inactive)
REMARK    1  A    between atoms: C_5  and  C_6 
REMARK    2  A    between atoms: C_6  and  C_7 
REMARK       I    between atoms: C_7  and  N_9 
REMARK    3  A    between atoms: N_9  and  C_10 
REMARK    4  A    between atoms: C_10  and  C_16 
REMARK    5  A    between atoms: C_16  and  O_18 
ROOT
HETATM    1  C   UNL     1       7.115  -1.783  -0.433  1.00  0.00     0.223 C 
HETATM    2  O   UNL     1       6.850  -2.446   0.561  1.00  0.00    -0.273 OA
HETATM    3  N   UNL     1       8.138  -2.070  -1.298  1.00  0.00    -0.342 N 
HETATM    4  H   UNL     1       8.378  -1.287  -1.905  1.00  0.00     0.163 HD
ENDROOT
BRANCH   3   5
HETATM    5  C   UNL     1       9.282  -3.018  -1.140  1.00  0.00     0.118 C 
HETATM    6  C   UNL     1       9.000  -4.454  -0.635  1.00  0.00     0.042 C 
HETATM    7  C   UNL     1       9.108  -4.714   0.868  1.00  0.00     0.003 C 
HETATM    8  C   UNL     1      10.218  -3.937   1.563  1.00  0.00     0.000 C 
HETATM    9  C   UNL     1      10.213  -2.471   1.156  1.00  0.00     0.003 C 
HETATM   10  C   UNL     1      10.411  -2.341  -0.352  1.00  0.00     0.042 C 
BRANCH   5  11
HETATM   11  C   UNL     1       9.658  -3.220  -2.632  1.00  0.00     0.169 C 
HETATM   12  O   UNL     1      10.781  -3.353  -3.073  1.00  0.00    -0.648 OA
BRANCH  11  13
HETATM   13  O   UNL     1       8.548  -3.334  -3.424  1.00  0.00    -0.775 OA
HETATM   14  H   UNL     1       7.739  -3.286  -2.863  1.00  0.00     0.167 HD
ENDBRANCH  11  13
ENDBRANCH   5  11
ENDBRANCH   3   5
BRANCH   1  15
HETATM   15  C   UNL     1       6.308  -0.558  -0.854  1.00  0.00     0.142 C 
BRANCH  15  16
HETATM   16  C   UNL     1       6.766   0.750  -0.261  1.00  0.00    -0.034 A 
HETATM   17  C   UNL     1       6.592   1.950  -0.962  1.00  0.00     0.011 A 
HETATM   18  C   UNL     1       6.889   3.169  -0.350  1.00  0.00     0.025 A 
HETATM   19  C   UNL     1       7.363   3.166   0.955  1.00  0.00     0.005 A 
HETATM   20  C   UNL     1       7.606   4.446   1.697  1.00  0.00     0.068 C 
HETATM   21  N   UNL     1       7.566   2.019   1.645  1.00  0.00    -0.369 N 
HETATM   22  C   UNL     1       7.257   0.850   1.035  1.00  0.00     0.095 A 
ATOM     23  HN  UNL     1       7.940   2.035   2.594  1.00  0.00     0.165 HD
ENDBRANCH  15  16
ENDBRANCH   1  15
TORSDOF 5
