REMARK  5 active torsions:
REMARK  status: ('A' for Active; 'I' for Inactive)
REMARK    1  A    between atoms: N_2  and  C_4 
REMARK    2  A    between atoms: C_10  and  N_11 
REMARK       I    between atoms: N_11  and  C_12 
REMARK    3  A    between atoms: C_12  and  C_14 
REMARK    4  A    between atoms: C_14  and  O_15 
REMARK    5  A    between atoms: O_15  and  C_16 
ROOT
HETATM    1  N   UNL     1       1.232  -2.578  -0.223  1.00  0.00    -0.323 N 
HETATM    2  C   UNL     1       0.671  -1.796   0.777  1.00  0.00     0.245 C 
HETATM    3  O   UNL     1       1.316  -1.161   1.607  1.00  0.00    -0.271 OA
HETATM    4  H   UNL     1       0.698  -3.356  -0.596  1.00  0.00     0.169 HD
ENDROOT
BRANCH   1   5
HETATM    5  C   UNL     1       2.624  -2.676  -0.428  1.00  0.00     0.073 A 
HETATM    6  C   UNL     1       3.209  -3.922  -0.756  1.00  0.00     0.108 A 
HETATM    7  N   UNL     1       4.540  -4.010  -1.006  1.00  0.00    -0.355 N 
HETATM    8  C   UNL     1       5.288  -2.883  -0.935  1.00  0.00     0.089 A 
ATOM      9  HN  UNL     1       4.968  -4.905  -1.242  1.00  0.00     0.166 HD
HETATM   10  C   UNL     1       4.780  -1.634  -0.639  1.00  0.00     0.019 A 
HETATM   11  C   UNL     1       3.425  -1.531  -0.376  1.00  0.00     0.034 A 
BRANCH   6  12
HETATM   12  N   UNL     1       2.412  -5.103  -0.789  1.00  0.00    -0.276 NA
HETATM   13  C   UNL     1       3.137  -6.228  -1.399  1.00  0.00     0.118 C 
HETATM   14  C   UNL     1       1.853  -5.433   0.531  1.00  0.00     0.118 C 
ENDBRANCH   6  12
ENDBRANCH   1   5
BRANCH   2  15
HETATM   15  C   UNL     1      -0.857  -1.842   0.767  1.00  0.00     0.271 C 
BRANCH  15  16
HETATM   16  O   UNL     1      -1.419  -0.731   1.448  1.00  0.00    -0.377 OA
BRANCH  16  17
HETATM   17  C   UNL     1      -2.847  -0.703   1.479  1.00  0.00     0.122 C 
HETATM   18  C   UNL     1      -3.449  -0.508   0.080  1.00  0.00     0.032 C 
HETATM   19  C   UNL     1      -2.976   0.811  -0.535  1.00  0.00     0.002 C 
HETATM   20  C   UNL     1      -3.387   1.989   0.342  1.00  0.00     0.000 C 
HETATM   21  C   UNL     1      -2.893   1.831   1.779  1.00  0.00     0.002 C 
HETATM   22  C   UNL     1      -3.267   0.470   2.378  1.00  0.00     0.032 C 
ENDBRANCH  16  17
ENDBRANCH  15  16
ENDBRANCH   2  15
TORSDOF 5
