REMARK  5 active torsions:
REMARK  status: ('A' for Active; 'I' for Inactive)
REMARK    1  A    between atoms: N_4  and  C_9 
REMARK    2  A    between atoms: C_12  and  C_16 
REMARK       I    between atoms: C_16  and  N_18 
REMARK    3  A    between atoms: N_18  and  C_19 
REMARK    4  A    between atoms: C_19  and  C_20 
REMARK    5  A    between atoms: C_20  and  N_21 
REMARK       I    between atoms: N_21  and  C_22 
ROOT
HETATM    1  C   UNL     1       1.811   1.388  -3.418  1.00  0.00     0.103 A 
HETATM    2  C   UNL     1       1.076   0.859  -4.483  1.00  0.00     0.049 A 
HETATM    3  C   UNL     1       0.507   1.699  -5.439  1.00  0.00     0.022 A 
HETATM    4  C   UNL     1       0.699   3.069  -5.335  1.00  0.00     0.047 A 
HETATM    5  C   UNL     1       1.400   3.531  -4.234  1.00  0.00     0.106 A 
HETATM    6  N   UNL     1       1.946   2.724  -3.278  1.00  0.00    -0.351 N 
ATOM      7  HN  UNL     1       2.442   3.120  -2.480  1.00  0.00     0.166 HD
ENDROOT
BRANCH   4   8
HETATM    8  C   UNL     1       0.123   3.953  -6.374  1.00  0.00     0.253 C 
HETATM    9  O   UNL     1      -0.919   3.637  -6.938  1.00  0.00    -0.268 OA
HETATM   10  N   UNL     1       0.844   5.080  -6.705  1.00  0.00    -0.355 N 
HETATM   11  H   UNL     1       1.747   5.259  -6.286  1.00  0.00     0.162 HD
BRANCH  10  12
HETATM   12  C   UNL     1       0.430   5.938  -7.805  1.00  0.00     0.142 C 
BRANCH  12  13
HETATM   13  C   UNL     1      -0.617   6.970  -7.379  1.00  0.00     0.142 C 
BRANCH  13  14
HETATM   14  N   UNL     1      -1.039   7.832  -8.469  1.00  0.00    -0.360 N 
HETATM   15  C   UNL     1      -0.322   8.948  -8.829  1.00  0.00     0.213 C 
HETATM   16  O   UNL     1       0.724   9.284  -8.283  1.00  0.00    -0.274 OA
HETATM   17  C   UNL     1      -0.930   9.747  -9.952  1.00  0.00     0.117 C 
HETATM   18  H   UNL     1      -1.854   7.561  -9.004  1.00  0.00     0.162 HD
ENDBRANCH  13  14
ENDBRANCH  12  13
ENDBRANCH  10  12
ENDBRANCH   4   8
BRANCH   1  19
HETATM   19  N   UNL     1       2.341   0.537  -2.481  1.00  0.00    -0.362 N 
HETATM   20  C   UNL     1       2.614   0.974  -1.113  1.00  0.00     0.156 C 
HETATM   21  C   UNL     1       2.239  -0.194  -0.161  1.00  0.00     0.136 C 
HETATM   22  C   UNL     1       0.722  -0.375  -0.050  1.00  0.00     0.041 C 
HETATM   23  O   UNL     1       2.880  -1.438  -0.536  1.00  0.00    -0.378 OA
HETATM   24  C   UNL     1       2.650  -1.802  -1.914  1.00  0.00     0.136 C 
HETATM   25  C   UNL     1       3.078  -0.668  -2.864  1.00  0.00     0.156 C 
HETATM   26  C   UNL     1       3.425  -3.079  -2.206  1.00  0.00     0.041 C 
ENDBRANCH   1  19
TORSDOF 5
