REMARK  6 active torsions:
REMARK  status: ('A' for Active; 'I' for Inactive)
REMARK    1  A    between atoms: O_1  and  C_2 
REMARK    2  A    between atoms: C_2  and  C_4 
REMARK    3  A    between atoms: N_10  and  C_11 
REMARK    4  A    between atoms: C_11  and  C_12 
REMARK    5  A    between atoms: C_12  and  O_13 
REMARK    6  A    between atoms: O_13  and  C_14 
ROOT
HETATM    1  C   UNL     1       3.583  -3.008   1.848  1.00  0.00     0.111 A 
HETATM    2  C   UNL     1       4.229  -2.525   2.927  1.00  0.00     0.037 A 
HETATM    3  C   UNL     1       4.376  -1.116   3.146  1.00  0.00     0.008 A 
HETATM    4  C   UNL     1       3.822  -0.259   2.286  1.00  0.00     0.074 A 
HETATM    5  C   UNL     1       3.009  -0.740   1.145  1.00  0.00     0.248 A 
HETATM    6  O   UNL     1       2.443   0.114   0.480  1.00  0.00    -0.268 OA
HETATM    7  N   UNL     1       2.947  -2.132   0.933  1.00  0.00    -0.307 N 
ENDROOT
BRANCH   7   8
HETATM    8  C   UNL     1       2.263  -2.654  -0.265  1.00  0.00     0.159 C 
BRANCH   8   9
HETATM    9  C   UNL     1       1.512  -1.729  -1.245  1.00  0.00     0.196 C 
BRANCH   9  10
HETATM   10  O   UNL     1       2.377  -0.998  -2.105  1.00  0.00    -0.348 OA
BRANCH  10  11
HETATM   11  C   UNL     1       1.831   0.037  -2.834  1.00  0.00     0.090 A 
HETATM   12  C   UNL     1       2.819   0.903  -3.335  1.00  0.00     0.038 A 
HETATM   13  C   UNL     1       2.493   2.016  -4.115  1.00  0.00     0.003 A 
HETATM   14  C   UNL     1       1.165   2.291  -4.410  1.00  0.00     0.002 A 
HETATM   15  C   UNL     1       0.171   1.444  -3.929  1.00  0.00     0.026 A 
HETATM   16  C   UNL     1       0.490   0.315  -3.155  1.00  0.00     0.067 A 
HETATM   17 CL   UNL     1      -0.879  -0.658  -2.732  1.00  0.00    -0.081 Cl
ENDBRANCH  10  11
ENDBRANCH   9  10
ENDBRANCH   8   9
ENDBRANCH   7   8
BRANCH   1  18
HETATM   18  C   UNL     1       3.687  -4.504   1.749  1.00  0.00     0.193 C 
HETATM   19  O   UNL     1       4.630  -5.138   2.205  1.00  0.00    -0.645 OA
BRANCH  18  20
HETATM   20  O   UNL     1       2.656  -5.141   1.163  1.00  0.00    -0.772 OA
HETATM   21  H   UNL     1       1.812  -4.667   1.242  1.00  0.00     0.167 HD
ENDBRANCH  18  20
ENDBRANCH   1  18
TORSDOF 6
