REMARK  4 active torsions:
REMARK  status: ('A' for Active; 'I' for Inactive)
REMARK    1  A    between atoms: N_6  and  C_7 
REMARK    2  A    between atoms: C_7  and  C_8 
REMARK       I    between atoms: C_8  and  N_10 
REMARK    3  A    between atoms: N_10  and  C_11 
REMARK    4  A    between atoms: C_11  and  C_12 
ROOT
HETATM    1  C   UNL     1       5.150  -3.153  -0.005  1.00  0.00     0.237 C 
HETATM    2  O   UNL     1       3.962  -3.451   0.111  1.00  0.00    -0.272 OA
HETATM    3  N   UNL     1       6.157  -4.098  -0.045  1.00  0.00    -0.359 N 
HETATM    4  H   UNL     1       7.088  -3.776  -0.319  1.00  0.00     0.162 HD
ENDROOT
BRANCH   1   5
HETATM    5  C   UNL     1       5.604  -1.713  -0.003  1.00  0.00     0.251 C 
BRANCH   5   6
HETATM    6  N   UNL     1       6.274  -1.344  -1.234  1.00  0.00    -0.288 N 
HETATM    7  C   UNL     1       5.730  -0.766  -2.353  1.00  0.00     0.027 A 
HETATM    8  C   UNL     1       6.798  -0.493  -3.181  1.00  0.00     0.052 A 
HETATM    9  C   UNL     1       4.281  -0.514  -2.540  1.00  0.00     0.070 C 
HETATM   10  C   UNL     1       7.940  -0.948  -2.487  1.00  0.00     0.024 A 
HETATM   11  C   UNL     1       9.357  -0.865  -2.914  1.00  0.00     0.070 C 
HETATM   12  N   UNL     1       7.614  -1.499  -1.311  1.00  0.00    -0.303 N 
ATOM     13  HN  UNL     1       8.235  -1.936  -0.630  1.00  0.00     0.186 HD
ENDBRANCH   5   6
ENDBRANCH   1   5
BRANCH   3  14
HETATM   14  C   UNL     1       5.877  -5.521  -0.032  1.00  0.00     0.128 C 
BRANCH  14  15
HETATM   15  C   UNL     1       6.509  -6.223   1.173  1.00  0.00     0.018 C 
HETATM   16  C   UNL     1       6.126  -7.718   1.225  1.00  0.00     0.022 C 
HETATM   17  C   UNL     1       6.236  -8.237   2.661  1.00  0.00     0.141 C 
HETATM   18  S   UNL     1       6.538  -6.833   3.707  1.00  0.00     0.144 S 
HETATM   19  O   UNL     1       5.582  -6.824   4.796  1.00  0.00    -0.228 OA
HETATM   20  O   UNL     1       7.966  -6.730   3.932  1.00  0.00    -0.228 OA
HETATM   21  C   UNL     1       6.071  -5.615   2.505  1.00  0.00     0.146 C 
ENDBRANCH  14  15
ENDBRANCH   3  14
TORSDOF 4
