REMARK  4 active torsions:
REMARK  status: ('A' for Active; 'I' for Inactive)
REMARK    1  A    between atoms: C_8  and  N_9 
REMARK       I    between atoms: N_9  and  C_10 
REMARK       I    between atoms: C_10  and  N_12 
REMARK    2  A    between atoms: N_12  and  C_13 
REMARK    3  A    between atoms: N_16  and  C_17 
REMARK    4  A    between atoms: C_17  and  C_18 
REMARK       I    between atoms: C_18  and  N_20 
ROOT
HETATM    1  N   UNL     1       2.734  -3.192   0.939  1.00  0.00    -0.294 N 
HETATM    2  C   UNL     1       1.417  -3.225   1.337  1.00  0.00     0.322 C 
HETATM    3  O   UNL     1       1.005  -3.032   2.472  1.00  0.00    -0.247 OA
HETATM    4  N   UNL     1       0.590  -3.495   0.269  1.00  0.00    -0.338 N 
HETATM    5  H   UNL     1       2.998  -3.978   0.364  1.00  0.00     0.172 HD
HETATM    6  H   UNL     1       1.047  -3.742  -0.597  1.00  0.00     0.164 HD
ENDROOT
BRANCH   4   7
HETATM    7  C   UNL     1      -0.861  -3.666   0.365  1.00  0.00     0.089 C 
HETATM    8  C   UNL     1      -1.457  -3.923  -1.024  1.00  0.00     0.055 C 
HETATM    9  C   UNL     1      -1.381  -2.666  -1.901  1.00  0.00     0.275 C 
HETATM   10  N   UNL     1      -1.988  -1.458  -1.314  1.00  0.00     0.097 N 
HETATM   11  C   UNL     1      -1.506  -1.238   0.062  1.00  0.00     0.275 C 
HETATM   12  C   UNL     1      -1.593  -2.464   0.973  1.00  0.00     0.055 C 
BRANCH  10  13
HETATM   13  C   UNL     1      -3.468  -1.474  -1.369  1.00  0.00     0.374 C 
BRANCH  13  14
HETATM   14  C   UNL     1      -3.962  -1.437  -2.817  1.00  0.00     0.243 C 
HETATM   15  O   UNL     1      -4.750  -2.248  -3.289  1.00  0.00    -0.272 OA
HETATM   16  N   UNL     1      -3.476  -0.399  -3.566  1.00  0.00    -0.369 N 
HETATM   17  H   UNL     1      -2.621   0.048  -3.256  1.00  0.00     0.159 HD
HETATM   18  H   UNL     1      -3.684  -0.407  -4.555  1.00  0.00     0.159 HD
ENDBRANCH  13  14
ENDBRANCH  10  13
ENDBRANCH   4   7
BRANCH   1  19
HETATM   19  C   UNL     1       3.785  -2.860   1.804  1.00  0.00     0.114 A 
HETATM   20  C   UNL     1       3.841  -1.678   2.550  1.00  0.00    -0.018 A 
HETATM   21  C   UNL     1       2.817  -0.584   2.463  1.00  0.00     0.052 C 
HETATM   22  C   UNL     1       4.954  -1.499   3.385  1.00  0.00     0.012 A 
HETATM   23  C   UNL     1       5.964  -2.453   3.416  1.00  0.00     0.018 A 
HETATM   24  C   UNL     1       5.841  -3.554   2.592  1.00  0.00     0.089 A 
HETATM   25  N   UNL     1       4.790  -3.765   1.772  1.00  0.00    -0.352 N 
ATOM     26  HN  UNL     1       4.755  -4.575   1.153  1.00  0.00     0.166 HD
ENDBRANCH   1  19
TORSDOF 4
