REMARK  5 active torsions:
REMARK  status: ('A' for Active; 'I' for Inactive)
REMARK       I    between atoms: N_2  and  C_4 
REMARK    1  A    between atoms: C_4  and  C_6 
REMARK    2  A    between atoms: C_6  and  C_7 
REMARK       I    between atoms: N_10  and  C_13 
REMARK       I    between atoms: C_13  and  N_15 
REMARK    3  A    between atoms: N_15  and  C_16 
REMARK    4  A    between atoms: C_16  and  C_17 
REMARK    5  A    between atoms: C_17  and  C_18 
ROOT
HETATM    1  C   UNL     1       5.144   1.104  -2.347  1.00  0.00    -0.003 C 
HETATM    2  C   UNL     1       5.487   2.582  -2.085  1.00  0.00     0.025 C 
HETATM    3  C   UNL     1       4.252   3.479  -1.970  1.00  0.00     0.128 C 
HETATM    4  N   UNL     1       3.367   3.321  -3.126  1.00  0.00    -0.334 N 
HETATM    5  C   UNL     1       2.993   1.941  -3.436  1.00  0.00     0.128 C 
HETATM    6  C   UNL     1       4.208   1.026  -3.564  1.00  0.00     0.025 C 
HETATM    7  C   UNL     1       2.580   4.316  -3.687  1.00  0.00     0.318 C 
HETATM    8  O   UNL     1       1.718   4.080  -4.532  1.00  0.00    -0.247 OA
HETATM    9  N   UNL     1       2.798   5.596  -3.232  1.00  0.00    -0.343 N 
HETATM   10  H   UNL     1       3.760   5.805  -3.022  1.00  0.00     0.164 HD
ENDROOT
BRANCH   9  11
HETATM   11  C   UNL     1       2.039   6.671  -3.854  1.00  0.00     0.129 C 
BRANCH  11  12
HETATM   12  C   UNL     1       2.220   8.021  -3.159  1.00  0.00     0.060 C 
BRANCH  12  13
HETATM   13  C   UNL     1       1.445   9.098  -3.873  1.00  0.00    -0.041 A 
HETATM   14  C   UNL     1       0.138   9.426  -3.509  1.00  0.00     0.010 A 
HETATM   15  C   UNL     1      -0.575  10.360  -4.259  1.00  0.00     0.025 A 
HETATM   16  C   UNL     1       0.037  10.951  -5.364  1.00  0.00     0.005 A 
HETATM   17  C   UNL     1      -0.710  11.903  -6.242  1.00  0.00     0.068 C 
HETATM   18  N   UNL     1       1.310  10.662  -5.720  1.00  0.00    -0.369 N 
HETATM   19  C   UNL     1       1.979   9.751  -4.978  1.00  0.00     0.095 A 
ATOM     20  HN  UNL     1       1.750  11.116  -6.521  1.00  0.00     0.165 HD
ENDBRANCH  12  13
ENDBRANCH  11  12
ENDBRANCH   9  11
BRANCH   1  21
HETATM   21  C   UNL     1       4.531   0.397  -1.119  1.00  0.00     0.107 C 
BRANCH  21  22
HETATM   22  C   UNL     1       5.512   0.209   0.036  1.00  0.00     0.219 C 
HETATM   23  N   UNL     1       4.978  -0.245   1.239  1.00  0.00    -0.361 N 
HETATM   24  C   UNL     1       5.901  -0.524   2.326  1.00  0.00     0.152 C 
HETATM   25  C   UNL     1       3.558  -0.459   1.467  1.00  0.00     0.152 C 
HETATM   26  O   UNL     1       6.718   0.419  -0.098  1.00  0.00    -0.273 OA
ENDBRANCH  21  22
ENDBRANCH   1  21
TORSDOF 5
