REMARK  4 active torsions:
REMARK  status: ('A' for Active; 'I' for Inactive)
REMARK    1  A    between atoms: N_2  and  C_4 
REMARK    2  A    between atoms: C_6  and  C_20 
REMARK    3  A    between atoms: C_9  and  N_10 
REMARK    4  A    between atoms: N_10  and  C_11 
ROOT
HETATM    1  C   UNL     1       3.097  -0.865   0.976  1.00  0.00     0.106 A 
HETATM    2  C   UNL     1       2.807  -2.207   0.817  1.00  0.00     0.082 A 
HETATM    3  C   UNL     1       3.484  -3.114   1.612  1.00  0.00     0.122 A 
HETATM    4  N   UNL     1       4.421  -2.718   2.504  1.00  0.00    -0.329 N 
ATOM      5  HN  UNL     1       4.924  -3.393   3.080  1.00  0.00     0.168 HD
HETATM    6  C   UNL     1       4.661  -1.411   2.601  1.00  0.00     0.159 A 
HETATM    7  N   UNL     1       4.021  -0.482   1.880  1.00  0.00    -0.319 N 
ATOM      8  HN  UNL     1       4.231   0.507   2.014  1.00  0.00     0.170 HD
ENDROOT
BRANCH   6   9
HETATM    9  N   UNL     1       5.648  -0.950   3.464  1.00  0.00    -0.257 NA
HETATM   10  H   UNL     1       5.487   0.051   3.518  1.00  0.00     0.131 HD
BRANCH   9  11
HETATM   11  C   UNL     1       5.705  -1.617   4.763  1.00  0.00     0.094 C 
HETATM   12  C   UNL     1       6.724  -0.917   5.684  1.00  0.00     0.054 C 
HETATM   13  C   UNL     1       7.659  -2.061   6.077  1.00  0.00     0.123 C 
HETATM   14  C   UNL     1       8.547  -2.474   4.905  1.00  0.00     0.034 C 
HETATM   15  O   UNL     1       6.736  -3.170   6.143  1.00  0.00    -0.379 OA
HETATM   16  C   UNL     1       7.560  -3.214   4.004  1.00  0.00     0.036 C 
HETATM   17  C   UNL     1       6.248  -3.063   4.773  1.00  0.00     0.140 C 
ENDBRANCH   9  11
ENDBRANCH   6   9
BRANCH   3  18
HETATM   18  C   UNL     1       3.175  -4.594   1.499  1.00  0.00     0.432 C 
HETATM   19  F   UNL     1       2.158  -4.868   0.627  1.00  0.00    -0.165 F 
HETATM   20  F   UNL     1       4.234  -5.331   1.060  1.00  0.00    -0.165 F 
HETATM   21  F   UNL     1       2.791  -5.151   2.684  1.00  0.00    -0.165 F 
ENDBRANCH   3  18
BRANCH   1  22
HETATM   22  N   UNL     1       2.410   0.110   0.244  1.00  0.00    -0.376 N 
HETATM   23  C   UNL     1       1.939  -0.202  -1.100  1.00  0.00     0.150 C 
HETATM   24  C   UNL     1       2.796   1.491   0.511  1.00  0.00     0.150 C 
ENDBRANCH   1  22
TORSDOF 4
