REMARK  3 active torsions:
REMARK  status: ('A' for Active; 'I' for Inactive)
REMARK       I    between atoms: N_1  and  C_2 
REMARK    1  A    between atoms: C_2  and  C_4 
REMARK    2  A    between atoms: C_4  and  N_5 
REMARK    3  A    between atoms: C_7  and  N_8 
REMARK       I    between atoms: N_8  and  C_9 
REMARK       I    between atoms: C_9  and  N_11 
ROOT
HETATM    1  N   UNL     1       4.757  -0.006   0.938  1.00  0.00    -0.293 N 
HETATM    2  C   UNL     1       5.462   1.156   0.816  1.00  0.00     0.141 A 
HETATM    3  C   UNL     1       6.786   0.805   0.723  1.00  0.00     0.070 A 
HETATM    4  C   UNL     1       6.771  -0.607   0.824  1.00  0.00     0.138 A 
HETATM    5  N   UNL     1       5.540  -1.107   0.973  1.00  0.00    -0.307 N 
ATOM      6  HN  UNL     1       5.260  -2.081   1.086  1.00  0.00     0.186 HD
ENDROOT
BRANCH   3   7
HETATM    7  N   UNL     1       7.898   1.612   0.561  1.00  0.00    -0.306 N 
HETATM    8  C   UNL     1       7.883   2.988   0.485  1.00  0.00     0.323 C 
HETATM    9  O   UNL     1       6.853   3.657   0.559  1.00  0.00    -0.247 OA
HETATM   10  N   UNL     1       9.129   3.602   0.308  1.00  0.00    -0.334 N 
HETATM   11  C   UNL     1       9.126   5.057   0.105  1.00  0.00     0.127 C 
HETATM   12  C   UNL     1      10.445   2.958   0.363  1.00  0.00     0.127 C 
HETATM   13  C   UNL     1       9.485   5.812   1.383  1.00  0.00     0.020 C 
HETATM   14  C   UNL     1      10.986   6.027   1.581  1.00  0.00     0.002 C 
HETATM   15  C   UNL     1      11.905   4.874   1.182  1.00  0.00     0.002 C 
HETATM   16  C   UNL     1      11.350   3.485   1.480  1.00  0.00     0.020 C 
HETATM   17  H   UNL     1       8.756   1.117   0.415  1.00  0.00     0.171 HD
ENDBRANCH   3   7
BRANCH   1  18
HETATM   18  C   UNL     1       3.317  -0.140   1.011  1.00  0.00     0.250 C 
BRANCH  18  19
HETATM   19  C   UNL     1       2.845  -0.158   2.442  1.00  0.00     0.235 C 
HETATM   20  N   UNL     1       3.248  -1.227   3.195  1.00  0.00    -0.369 N 
HETATM   21  H   UNL     1       3.024  -1.203   4.181  1.00  0.00     0.159 HD
HETATM   22  H   UNL     1       4.057  -1.770   2.904  1.00  0.00     0.159 HD
HETATM   23  O   UNL     1       2.095   0.691   2.916  1.00  0.00    -0.272 OA
ENDBRANCH  18  19
ENDBRANCH   1  18
TORSDOF 3
