REMARK  4 active torsions:
REMARK  status: ('A' for Active; 'I' for Inactive)
REMARK    1  A    between atoms: C_2  and  C_3 
REMARK       I    between atoms: C_2  and  N_17 
REMARK    2  A    between atoms: C_3  and  N_4 
REMARK    3  A    between atoms: N_11  and  C_12 
REMARK    4  A    between atoms: N_17  and  C_18 
ROOT
HETATM    1  N   UNL     1       2.123  -0.073  -2.355  1.00  0.00    -0.256 N 
HETATM    2  C   UNL     1       1.736   1.141  -2.901  1.00  0.00     0.274 A 
HETATM    3  O   UNL     1       2.192   2.225  -2.547  1.00  0.00    -0.266 OA
HETATM    4  C   UNL     1       0.751   1.080  -4.001  1.00  0.00     0.128 A 
HETATM    5  C   UNL     1       0.291   2.271  -4.617  1.00  0.00     0.106 C 
HETATM    6  N   UNL     1      -0.127   3.201  -5.170  1.00  0.00    -0.191 NA
HETATM    7  C   UNL     1       0.326  -0.120  -4.408  1.00  0.00     0.124 A 
HETATM    8  N   UNL     1       0.746  -1.296  -3.829  1.00  0.00    -0.303 N 
HETATM    9  C   UNL     1       1.678  -1.324  -2.786  1.00  0.00     0.332 A 
HETATM   10  O   UNL     1       2.082  -2.367  -2.267  1.00  0.00    -0.246 OA
ENDROOT
BRANCH   1  11
HETATM   11  C   UNL     1       3.074  -0.051  -1.252  1.00  0.00     0.239 C 
BRANCH  11  12
HETATM   12  C   UNL     1       2.310  -0.066   0.073  1.00  0.00     0.236 C 
HETATM   13  O   UNL     1       1.847   0.950   0.581  1.00  0.00    -0.272 OA
HETATM   14  N   UNL     1       2.130  -1.326   0.609  1.00  0.00    -0.355 N 
HETATM   15  H   UNL     1       2.253  -2.122  -0.014  1.00  0.00     0.162 HD
BRANCH  14  16
HETATM   16  C   UNL     1       1.421  -1.529   1.857  1.00  0.00     0.084 C 
HETATM   17  C   UNL     1       1.868  -2.805   2.573  1.00  0.00     0.025 C 
HETATM   18  C   UNL     1       0.632  -3.349   3.289  1.00  0.00     0.002 C 
HETATM   19  C   UNL     1      -0.501  -2.378   2.981  1.00  0.00     0.002 C 
HETATM   20  C   UNL     1      -0.084  -1.709   1.679  1.00  0.00     0.025 C 
ENDBRANCH  14  16
ENDBRANCH  11  12
ENDBRANCH   1  11
BRANCH   8  21
HETATM   21  C   UNL     1       0.221  -2.521  -4.393  1.00  0.00     0.094 A 
HETATM   22  C   UNL     1      -1.264  -2.807  -4.355  1.00  0.00     0.028 A 
HETATM   23  C   UNL     1      -0.322  -3.652  -3.557  1.00  0.00     0.028 A 
ENDBRANCH   8  21
TORSDOF 4
