REMARK  4 active torsions:
REMARK  status: ('A' for Active; 'I' for Inactive)
REMARK    1  A    between atoms: O_1  and  C_2 
REMARK    2  A    between atoms: C_2  and  C_3 
REMARK    3  A    between atoms: C_2  and  C_16 
REMARK    4  A    between atoms: C_3  and  N_4 
ROOT
HETATM    1  N   UNL     1       2.355  -1.402   1.921  1.00  0.00    -0.338 N 
HETATM    2  C   UNL     1       1.197  -2.041   2.270  1.00  0.00     0.184 A 
HETATM    3  N   UNL     1       1.031  -2.072   3.572  1.00  0.00    -0.350 N 
ATOM      4  HN  UNL     1       0.251  -2.481   4.086  1.00  0.00     0.166 HD
HETATM    5  C   UNL     1       2.127  -1.438   4.093  1.00  0.00     0.063 A 
HETATM    6  C   UNL     1       2.448  -1.185   5.435  1.00  0.00     0.077 A 
HETATM    7  C   UNL     1       3.640  -0.520   5.714  1.00  0.00     0.157 A 
HETATM    8  F   UNL     1       3.959  -0.264   6.991  1.00  0.00    -0.203 F 
HETATM    9  C   UNL     1       4.499  -0.122   4.694  1.00  0.00     0.157 A 
HETATM   10  F   UNL     1       5.643   0.509   4.995  1.00  0.00    -0.203 F 
HETATM   11  C   UNL     1       4.202  -0.364   3.350  1.00  0.00     0.077 A 
HETATM   12  C   UNL     1       2.994  -1.021   3.080  1.00  0.00     0.065 A 
ENDROOT
BRANCH   1  13
HETATM   13  C   UNL     1       2.831  -1.247   0.561  1.00  0.00     0.166 C 
BRANCH  13  14
HETATM   14  C   UNL     1       2.453   0.084  -0.112  1.00  0.00     0.169 C 
BRANCH  14  15
HETATM   15  O   UNL     1       3.035   1.194   0.574  1.00  0.00    -0.389 OA
HETATM   16  H   UNL     1       4.001   1.118   0.511  1.00  0.00     0.210 HD
ENDBRANCH  14  15
BRANCH  14  17
HETATM   17  C   UNL     1       0.964   0.312  -0.297  1.00  0.00    -0.028 A 
HETATM   18  C   UNL     1       0.297  -0.242  -1.405  1.00  0.00     0.013 A 
HETATM   19  C   UNL     1      -1.057   0.024  -1.625  1.00  0.00     0.043 A 
HETATM   20  C   UNL     1      -1.752   0.836  -0.738  1.00  0.00     0.116 A 
HETATM   21  F   UNL     1      -3.042   1.115  -0.969  1.00  0.00    -0.206 F 
HETATM   22  C   UNL     1      -1.124   1.371   0.379  1.00  0.00     0.043 A 
HETATM   23  C   UNL     1       0.228   1.105   0.602  1.00  0.00     0.013 A 
ENDBRANCH  14  17
ENDBRANCH  13  14
ENDBRANCH   1  13
TORSDOF 4
