REMARK  6 active torsions:
REMARK  status: ('A' for Active; 'I' for Inactive)
REMARK    1  A    between atoms: N_2  and  C_4 
REMARK    2  A    between atoms: C_7  and  N_8 
REMARK       I    between atoms: N_8  and  C_9 
REMARK       I    between atoms: C_9  and  N_11 
REMARK    3  A    between atoms: N_11  and  C_12 
REMARK    4  A    between atoms: C_12  and  C_13 
REMARK    5  A    between atoms: C_13  and  C_14 
REMARK    6  A    between atoms: C_14  and  O_15 
ROOT
HETATM    1  N   UNL     1       4.314   0.517  -5.508  1.00  0.00    -0.308 N 
HETATM    2  C   UNL     1       4.671  -0.692  -6.087  1.00  0.00     0.321 C 
HETATM    3  O   UNL     1       4.395  -1.795  -5.641  1.00  0.00    -0.247 OA
HETATM    4  N   UNL     1       5.380  -0.541  -7.261  1.00  0.00    -0.333 N 
HETATM    5  H   UNL     1       4.244   1.310  -6.123  1.00  0.00     0.170 HD
HETATM    6  H   UNL     1       5.907   0.316  -7.336  1.00  0.00     0.165 HD
ENDROOT
BRANCH   1   7
HETATM    7  C   UNL     1       3.727   0.617  -4.222  1.00  0.00     0.051 A 
HETATM    8  C   UNL     1       3.781  -0.407  -3.292  1.00  0.00     0.035 A 
HETATM    9  C   UNL     1       3.185  -0.269  -2.038  1.00  0.00     0.050 A 
HETATM   10  C   UNL     1       2.533   0.913  -1.693  1.00  0.00     0.102 A 
HETATM   11  N   UNL     1       2.501   1.941  -2.570  1.00  0.00    -0.350 N 
HETATM   12  C   UNL     1       3.080   1.775  -3.799  1.00  0.00     0.119 A 
ATOM     13  HN  UNL     1       2.054   2.823  -2.321  1.00  0.00     0.166 HD
BRANCH  10  14
HETATM   14  N   UNL     1       1.962   1.038  -0.412  1.00  0.00    -0.376 N 
HETATM   15  C   UNL     1       1.350   2.330  -0.136  1.00  0.00     0.150 C 
HETATM   16  C   UNL     1       1.254  -0.132   0.099  1.00  0.00     0.150 C 
ENDBRANCH  10  14
ENDBRANCH   1   7
BRANCH   4  17
HETATM   17  C   UNL     1       5.826  -1.716  -8.075  1.00  0.00     0.040 C 
HETATM   18  C   UNL     1       6.818  -2.635  -7.303  1.00  0.00     0.057 C 
HETATM   19  C   UNL     1       8.245  -2.107  -7.228  1.00  0.00     0.170 C 
HETATM   20  O   UNL     1       8.722  -1.707  -8.508  1.00  0.00    -0.391 OA
HETATM   21  C   UNL     1       7.924  -0.675  -9.071  1.00  0.00     0.170 C 
HETATM   22  C   UNL     1       6.523  -1.199  -9.354  1.00  0.00     0.057 C 
BRANCH  17  23
HETATM   23  C   UNL     1       4.597  -2.595  -8.482  1.00  0.00     0.057 C 
BRANCH  23  24
HETATM   24  C   UNL     1       3.526  -1.877  -9.296  1.00  0.00     0.166 C 
BRANCH  24  25
HETATM   25  O   UNL     1       2.446  -2.762  -9.575  1.00  0.00    -0.401 OA
HETATM   26  H   UNL     1       2.792  -3.494 -10.113  1.00  0.00     0.209 HD
ENDBRANCH  24  25
ENDBRANCH  23  24
ENDBRANCH  17  23
ENDBRANCH   4  17
TORSDOF 6
