REMARK  4 active torsions:
REMARK  status: ('A' for Active; 'I' for Inactive)
REMARK    1  A    between atoms: C_8  and  C_11 
REMARK       I    between atoms: C_11  and  N_13 
REMARK    2  A    between atoms: N_13  and  C_14 
REMARK    3  A    between atoms: C_14  and  C_15 
REMARK    4  A    between atoms: C_15  and  C_16 
ROOT
HETATM    1  C   UNL     1       2.632  -2.822  -1.608  1.00  0.00     0.236 C 
HETATM    2  O   UNL     1       2.714  -4.014  -1.321  1.00  0.00    -0.272 OA
HETATM    3  N   UNL     1       1.703  -2.346  -2.511  1.00  0.00    -0.359 N 
HETATM    4  H   UNL     1       1.645  -1.339  -2.626  1.00  0.00     0.162 HD
ENDROOT
BRANCH   1   5
HETATM    5  C   UNL     1       3.670  -1.782  -1.146  1.00  0.00     0.168 C 
HETATM    6  N   UNL     1       3.215  -0.381  -1.099  1.00  0.00    -0.221 NA
HETATM    7  C   UNL     1       2.496  -0.033   0.111  1.00  0.00     0.066 C 
HETATM    8  C   UNL     1       4.230   0.561  -1.345  1.00  0.00     0.202 C 
HETATM    9  C   UNL     1       0.980  -0.150  -0.041  1.00  0.00     0.045 C 
HETATM   10  C   UNL     1       2.890   1.414   0.413  1.00  0.00     0.045 C 
HETATM   11  S   UNL     1       3.088  -1.203   1.390  1.00  0.00    -0.141 SA
HETATM   12  C   UNL     1       4.242   1.590  -0.246  1.00  0.00     0.099 C 
HETATM   13  C   UNL     1       4.196  -2.107   0.253  1.00  0.00     0.105 C 
HETATM   14  O   UNL     1       5.077   0.476  -2.221  1.00  0.00    -0.280 OA
ENDBRANCH   1   5
BRANCH   3  15
HETATM   15  C   UNL     1       0.632  -3.203  -2.997  1.00  0.00     0.128 C 
BRANCH  15  16
HETATM   16  C   UNL     1      -0.310  -2.461  -3.937  1.00  0.00     0.076 C 
BRANCH  16  17
HETATM   17  C   UNL     1      -1.411  -3.343  -4.465  1.00  0.00     0.010 A 
HETATM   18  C   UNL     1      -1.237  -4.071  -5.639  1.00  0.00     0.025 A 
HETATM   19  C   UNL     1      -2.297  -4.834  -6.121  1.00  0.00     0.003 A 
HETATM   20  C   UNL     1      -3.493  -4.860  -5.417  1.00  0.00     0.017 A 
HETATM   21  C   UNL     1      -3.577  -4.124  -4.248  1.00  0.00     0.088 A 
HETATM   22  N   UNL     1      -2.567  -3.369  -3.759  1.00  0.00    -0.369 N 
ATOM     23  HN  UNL     1      -2.671  -2.840  -2.893  1.00  0.00     0.165 HD
ENDBRANCH  16  17
ENDBRANCH  15  16
ENDBRANCH   3  15
TORSDOF 4
