REMARK  6 active torsions:
REMARK  status: ('A' for Active; 'I' for Inactive)
REMARK    1  A    between atoms: N9_1  and  C1*_2 
REMARK    2  A    between atoms: C2*_7  and  O2*_18 
REMARK    3  A    between atoms: C3*_10  and  O3*_20 
REMARK    4  A    between atoms: C4*_11  and  C5*_21 
REMARK    5  A    between atoms: C6_12  and  N6_19 
REMARK    6  A    between atoms: C5*_21  and  O5*_22 
ROOT
ATOM      1  N9    A A   1       2.913   2.248  -1.327  1.00  0.00    -0.297 N 
ATOM      2  C4    A A   1       4.029   1.455  -1.293  1.00  0.00     0.142 A 
ATOM      3  C5    A A   1       4.545   1.513  -2.581  1.00  0.00     0.116 A 
ATOM      4  N7    A A   1       3.722   2.243  -3.411  1.00  0.00    -0.346 N 
ATOM      5  H7    A A   1       3.860   2.455  -4.399  1.00  0.00     0.167 HD
ATOM      6  C8    A A   1       2.719   2.604  -2.643  1.00  0.00     0.188 C 
ATOM      7  C6    A A   1       5.752   0.843  -2.819  1.00  0.00     0.109 A 
ATOM      8  N3    A A   1       4.549   0.774  -0.261  1.00  0.00    -0.336 N 
ATOM      9  H3    A A   1       4.149   0.758   0.677  1.00  0.00     0.168 HD
ATOM     10  N1    A A   1       6.297   0.115  -1.820  1.00  0.00    -0.341 N 
ATOM     11  H1    A A   1       7.156  -0.417  -1.964  1.00  0.00     0.167 HD
ATOM     12  C2    A A   1       5.669   0.113  -0.623  1.00  0.00     0.183 A 
ENDROOT
BRANCH   1  13
ATOM     13  C1*   A A   1       2.014   2.641  -0.254  1.00  0.00     0.262 C 
ATOM     14  C2*   A A   1       2.561   2.718   1.181  1.00  0.00     0.198 C 
ATOM     15  C3*   A A   1       2.448   4.192   1.582  1.00  0.00     0.182 C 
ATOM     16  C4*   A A   1       2.174   4.932   0.281  1.00  0.00     0.179 C 
ATOM     17  O4*   A A   1       1.526   3.971  -0.576  1.00  0.00    -0.353 OA
BRANCH  14  18
ATOM     18  O2*   A A   1       1.766   1.905   2.063  1.00  0.00    -0.388 OA
ATOM     19  H2*   A A   1       1.318   2.533   2.672  1.00  0.00     0.210 HD
ENDBRANCH  14  18
BRANCH  15  20
ATOM     20  O3*   A A   1       1.361   4.331   2.519  1.00  0.00    -0.390 OA
ATOM     21  H3*   A A   1       0.601   4.743   2.068  1.00  0.00     0.210 HD
ENDBRANCH  15  20
BRANCH  16  22
ATOM     22  C5*   A A   1       3.451   5.483  -0.365  1.00  0.00     0.198 C 
BRANCH  22  23
ATOM     23  O5*   A A   1       3.140   6.173  -1.571  1.00  0.00    -0.398 OA
ATOM     24  H5*   A A   1       2.940   5.503  -2.250  1.00  0.00     0.209 HD
ENDBRANCH  22  23
ENDBRANCH  16  22
ENDBRANCH   1  13
BRANCH   7  25
ATOM     25  N6    A A   1       6.403   0.879  -4.049  1.00  0.00    -0.287 NA
ATOM     26  H61   A A   1       5.803   1.178  -4.811  1.00  0.00     0.125 HD
ATOM     27  H62   A A   1       6.994   0.073  -4.201  1.00  0.00     0.125 HD
ENDBRANCH   7  25
TORSDOF 6
