REMARK  6 active torsions:
REMARK  status: ('A' for Active; 'I' for Inactive)
REMARK    1  A    between atoms: N_5  and  C_6 
REMARK    2  A    between atoms: C_6  and  C_7 
REMARK    3  A    between atoms: C_7  and  O_8 
REMARK    4  A    between atoms: C_7  and  C_9 
REMARK    5  A    between atoms: C_18  and  C_19 
REMARK    6  A    between atoms: C_19  and  N_20 
ROOT
HETATM    1  C   UNL     1       3.041   0.818   2.739  1.00  0.00     0.070 C 
HETATM    2  C   UNL     1       3.411   0.285   1.372  1.00  0.00     0.029 A 
HETATM    3  N   UNL     1       4.136  -0.787   1.324  1.00  0.00    -0.300 N 
ATOM      4  HN  UNL     1       4.444  -1.248   2.180  1.00  0.00     0.187 HD
HETATM    5  N   UNL     1       4.481  -1.289   0.091  1.00  0.00    -0.253 N 
HETATM    6  C   UNL     1       4.064  -0.746  -1.115  1.00  0.00     0.282 A 
HETATM    7  O   UNL     1       4.326  -1.240  -2.208  1.00  0.00    -0.265 OA
HETATM    8  C   UNL     1       3.270   0.489  -1.005  1.00  0.00     0.103 A 
HETATM    9  C   UNL     1       2.928   1.027   0.178  1.00  0.00    -0.013 A 
HETATM   10  C   UNL     1       2.126   2.282   0.375  1.00  0.00     0.052 C 
ENDROOT
BRANCH   5  11
HETATM   11  C   UNL     1       5.272  -2.519   0.082  1.00  0.00     0.189 C 
BRANCH  11  12
HETATM   12  C   UNL     1       4.396  -3.790  -0.001  1.00  0.00     0.174 C 
BRANCH  12  13
HETATM   13  O   UNL     1       3.523  -3.754  -1.142  1.00  0.00    -0.389 OA
HETATM   14  H   UNL     1       3.977  -3.255  -1.850  1.00  0.00     0.210 HD
ENDBRANCH  12  13
BRANCH  12  15
HETATM   15  C   UNL     1       5.223  -5.060  -0.038  1.00  0.00     0.011 A 
HETATM   16  C   UNL     1       5.165  -5.968  -1.109  1.00  0.00     0.013 A 
HETATM   17  C   UNL     1       5.941  -7.131  -1.107  1.00  0.00     0.001 A 
HETATM   18  C   UNL     1       6.786  -7.409  -0.035  1.00  0.00     0.003 A 
HETATM   19  C   UNL     1       6.852  -6.525   1.038  1.00  0.00     0.043 A 
HETATM   20  C   UNL     1       6.072  -5.371   1.031  1.00  0.00     0.125 A 
HETATM   21  F   UNL     1       6.149  -4.546   2.085  1.00  0.00    -0.205 F 
ENDBRANCH  12  15
ENDBRANCH  11  12
ENDBRANCH   5  11
BRANCH   8  22
HETATM   22  C   UNL     1       2.831   1.196  -2.277  1.00  0.00    -0.031 C 
BRANCH  22  23
HETATM   23  N   UNL     1       2.467   1.782  -3.332  1.00  0.00    -0.365 N 
ATOM     24  HN2 UNL     1       2.763   1.296  -2.486  1.00  0.00     0.165 HD
ATOM     25  HN1 UNL     1       2.172   2.256  -4.186  1.00  0.00     0.165 HD
ENDBRANCH  22  23
ENDBRANCH   8  22
TORSDOF 6
