REMARK  5 active torsions:
REMARK  status: ('A' for Active; 'I' for Inactive)
REMARK    1  A    between atoms: C_2  and  C_4 
REMARK    2  A    between atoms: C_8  and  C_9 
REMARK    3  A    between atoms: C_9  and  N_10 
REMARK       I    between atoms: N_10  and  C_11 
REMARK    4  A    between atoms: C_11  and  C_13 
REMARK    5  A    between atoms: C_13  and  C_14 
ROOT
HETATM    1  N   UNL     1      -0.083   0.891   1.512  1.00  0.00    -0.360 N 
HETATM    2  C   UNL     1      -0.129   1.086   0.148  1.00  0.00     0.221 C 
HETATM    3  O   UNL     1       0.107   0.202  -0.668  1.00  0.00    -0.273 OA
HETATM    4  H   UNL     1      -0.324   1.659   2.126  1.00  0.00     0.162 HD
ENDROOT
BRANCH   1   5
HETATM    5  C   UNL     1       0.358  -0.364   2.121  1.00  0.00     0.130 C 
BRANCH   5   6
HETATM    6  C   UNL     1       1.880  -0.385   2.344  1.00  0.00     0.035 C 
HETATM    7  C   UNL     1       2.425  -1.614   3.088  1.00  0.00     0.130 C 
HETATM    8  O   UNL     1       2.163  -1.353   4.482  1.00  0.00    -0.385 OA
HETATM    9  C   UNL     1       2.139   0.063   4.679  1.00  0.00     0.168 C 
HETATM   10  C   UNL     1       2.315   0.708   3.318  1.00  0.00     0.035 C 
BRANCH   7  11
HETATM   11  C   UNL     1       1.921  -3.022   2.731  1.00  0.00     0.007 C 
HETATM   12  C   UNL     1       2.215  -3.395   1.279  1.00  0.00     0.012 C 
HETATM   13  C   UNL     1       2.569  -4.062   3.663  1.00  0.00     0.012 C 
ENDBRANCH   7  11
ENDBRANCH   5   6
ENDBRANCH   1   5
BRANCH   2  14
HETATM   14  C   UNL     1      -0.482   2.506  -0.277  1.00  0.00     0.142 C 
BRANCH  14  15
HETATM   15  C   UNL     1      -1.953   2.758  -0.459  1.00  0.00    -0.034 A 
HETATM   16  C   UNL     1      -2.605   3.796   0.211  1.00  0.00     0.011 A 
HETATM   17  C   UNL     1      -3.955   4.044  -0.033  1.00  0.00     0.025 A 
HETATM   18  C   UNL     1      -4.627   3.254  -0.957  1.00  0.00     0.005 A 
HETATM   19  C   UNL     1      -6.079   3.482  -1.254  1.00  0.00     0.068 C 
HETATM   20  N   UNL     1      -4.021   2.237  -1.614  1.00  0.00    -0.369 N 
HETATM   21  C   UNL     1      -2.710   2.015  -1.359  1.00  0.00     0.095 A 
ATOM     22  HN  UNL     1      -4.535   1.658  -2.278  1.00  0.00     0.165 HD
ENDBRANCH  14  15
ENDBRANCH   2  14
TORSDOF 5
