REMARK  5 active torsions:
REMARK  status: ('A' for Active; 'I' for Inactive)
REMARK    1  A    between atoms: S_2  and  N_4 
REMARK    2  A    between atoms: S_2  and  N_14 
REMARK    3  A    between atoms: N_4  and  C_5 
REMARK    4  A    between atoms: C_5  and  C_6 
REMARK    5  A    between atoms: C_6  and  C_7 
ROOT
HETATM    1  N   UNL     1       2.943  -0.130   1.522  1.00  0.00    -0.202 NA
HETATM    2  H   UNL     1       3.957  -0.206   1.564  1.00  0.00     0.141 HD
ENDROOT
BRANCH   1   3
HETATM    3  S   UNL     1       2.507   0.062  -0.090  1.00  0.00     0.298 S 
HETATM    4  O   UNL     1       1.069   0.058  -0.186  1.00  0.00    -0.188 OA
HETATM    5  O   UNL     1       3.304   1.143  -0.612  1.00  0.00    -0.188 OA
BRANCH   3   6
HETATM    6  N   UNL     1       3.084  -1.403  -0.676  1.00  0.00    -0.298 N 
HETATM    7  C   UNL     1       4.544  -1.584  -0.823  1.00  0.00     0.136 C 
HETATM    8  C   UNL     1       5.043  -1.012  -2.146  1.00  0.00     0.021 C 
HETATM    9  C   UNL     1       4.261  -1.571  -3.331  1.00  0.00     0.003 C 
HETATM   10  C   UNL     1       2.755  -1.429  -3.127  1.00  0.00     0.021 C 
HETATM   11  C   UNL     1       2.322  -2.017  -1.790  1.00  0.00     0.136 C 
ENDBRANCH   3   6
ENDBRANCH   1   3
BRANCH   1  12
HETATM   12  C   UNL     1       2.506   0.936   2.466  1.00  0.00     0.112 C 
BRANCH  12  13
HETATM   13  C   UNL     1       0.996   0.989   2.657  1.00  0.00     0.072 C 
BRANCH  13  14
HETATM   14  C   UNL     1       0.616   2.075   3.626  1.00  0.00     0.010 A 
HETATM   15  C   UNL     1      -0.184   3.135   3.208  1.00  0.00     0.025 A 
HETATM   16  C   UNL     1      -0.507   4.132   4.120  1.00  0.00     0.003 A 
HETATM   17  C   UNL     1      -0.031   4.042   5.423  1.00  0.00     0.017 A 
HETATM   18  C   UNL     1       0.754   2.952   5.757  1.00  0.00     0.088 A 
HETATM   19  N   UNL     1       1.089   1.972   4.891  1.00  0.00    -0.369 N 
ATOM     20  HN  UNL     1       1.674   1.187   5.177  1.00  0.00     0.165 HD
ENDBRANCH  13  14
ENDBRANCH  12  13
ENDBRANCH   1  12
TORSDOF 5
