REMARK  6 active torsions:
REMARK  status: ('A' for Active; 'I' for Inactive)
REMARK    1  A    between atoms: O_1  and  C_2 
REMARK    2  A    between atoms: C_2  and  C_3 
REMARK    3  A    between atoms: C_3  and  C_4 
REMARK    4  A    between atoms: N_8  and  C_9 
REMARK    5  A    between atoms: C_9  and  C_10 
REMARK       I    between atoms: C_10  and  N_12 
REMARK    6  A    between atoms: N_12  and  C_13 
ROOT
HETATM    1  C   UNL     1       4.660   0.249   1.010  1.00  0.00    -0.022 A 
HETATM    2  C   UNL     1       5.173   0.562   2.289  1.00  0.00     0.115 A 
HETATM    3  N   UNL     1       6.208  -0.207   2.635  1.00  0.00    -0.309 N 
ATOM      4  HN  UNL     1       6.735  -0.199   3.508  1.00  0.00     0.186 HD
HETATM    5  N   UNL     1       6.392  -0.997   1.557  1.00  0.00    -0.294 N 
HETATM    6  C   UNL     1       5.484  -0.763   0.563  1.00  0.00     0.119 A 
ENDROOT
BRANCH   5   7
HETATM    7  C   UNL     1       7.533  -1.888   1.516  1.00  0.00     0.250 C 
BRANCH   7   8
HETATM    8  C   UNL     1       7.126  -3.307   1.210  1.00  0.00     0.237 C 
HETATM    9  O   UNL     1       6.924  -3.677   0.055  1.00  0.00    -0.272 OA
HETATM   10  N   UNL     1       7.023  -4.160   2.299  1.00  0.00    -0.355 N 
HETATM   11  H   UNL     1       6.932  -3.755   3.223  1.00  0.00     0.162 HD
BRANCH  10  12
HETATM   12  C   UNL     1       6.587  -5.521   2.083  1.00  0.00     0.084 C 
HETATM   13  C   UNL     1       5.066  -5.676   2.073  1.00  0.00     0.025 C 
HETATM   14  C   UNL     1       4.823  -7.154   2.392  1.00  0.00     0.002 C 
HETATM   15  C   UNL     1       6.186  -7.732   2.776  1.00  0.00     0.002 C 
HETATM   16  C   UNL     1       7.024  -6.515   3.150  1.00  0.00     0.025 C 
ENDBRANCH  10  12
ENDBRANCH   7   8
ENDBRANCH   5   7
BRANCH   1  17
HETATM   17  C   UNL     1       3.519   0.885   0.295  1.00  0.00     0.067 C 
BRANCH  17  18
HETATM   18  C   UNL     1       2.191   0.730   1.031  1.00  0.00     0.168 C 
BRANCH  18  19
HETATM   19  O   UNL     1       1.150   1.329   0.267  1.00  0.00    -0.401 OA
HETATM   20  H   UNL     1       0.324   1.203   0.764  1.00  0.00     0.209 HD
ENDBRANCH  18  19
ENDBRANCH  17  18
ENDBRANCH   1  17
TORSDOF 6
