REMARK  5 active torsions:
REMARK  status: ('A' for Active; 'I' for Inactive)
REMARK    1  A    between atoms: C_2  and  C_3 
REMARK    2  A    between atoms: C_2  and  N_17 
REMARK       I    between atoms: C_3  and  N_5 
REMARK    3  A    between atoms: N_5  and  C_6 
REMARK    4  A    between atoms: C_6  and  C_13 
REMARK    5  A    between atoms: C_13  and  N_14 
ROOT
HETATM    1  C   UNL     1       2.631   0.286   1.693  1.00  0.00     0.243 C 
HETATM    2  O   UNL     1       2.817  -0.584   2.541  1.00  0.00    -0.271 OA
HETATM    3  N   UNL     1       2.756   1.630   1.986  1.00  0.00    -0.338 N 
HETATM    4  H   UNL     1       2.386   2.294   1.304  1.00  0.00     0.164 HD
ENDROOT
BRANCH   3   5
HETATM    5  C   UNL     1       3.228   2.145   3.289  1.00  0.00     0.105 C 
HETATM    6  C   UNL     1       3.420   3.674   3.200  1.00  0.00     0.045 C 
HETATM    7  C   UNL     1       4.565   4.071   2.256  1.00  0.00     0.004 C 
HETATM    8  C   UNL     1       5.876   3.343   2.568  1.00  0.00     0.004 C 
HETATM    9  C   UNL     1       5.678   1.827   2.652  1.00  0.00    -0.015 C 
HETATM   10  C   UNL     1       6.977   1.102   2.991  1.00  0.00     0.010 C 
HETATM   11  C   UNL     1       4.587   1.511   3.687  1.00  0.00     0.049 C 
BRANCH   5  12
HETATM   12  C   UNL     1       2.196   1.804   4.351  1.00  0.00    -0.046 C 
BRANCH  12  13
HETATM   13  N   UNL     1       1.339   1.521   5.232  1.00  0.00    -0.367 N 
ATOM     14  HN2 UNL     1       2.013   1.751   4.502  1.00  0.00     0.165 HD
ATOM     15  HN1 UNL     1       0.646   1.292   5.945  1.00  0.00     0.165 HD
ENDBRANCH  12  13
ENDBRANCH   5  12
ENDBRANCH   3   5
BRANCH   1  16
HETATM   16  C   UNL     1       2.205  -0.070   0.268  1.00  0.00     0.195 C 
HETATM   17  C   UNL     1       2.650  -1.493  -0.083  1.00  0.00     0.044 C 
BRANCH  16  18
HETATM   18  N   UNL     1       2.673   0.921  -0.695  1.00  0.00    -0.290 N 
HETATM   19  C   UNL     1       3.852   0.946  -1.387  1.00  0.00     0.112 A 
HETATM   20  C   UNL     1       3.821   2.085  -2.156  1.00  0.00     0.037 A 
HETATM   21  C   UNL     1       2.605   2.707  -1.828  1.00  0.00     0.108 A 
HETATM   22  N   UNL     1       1.926   2.032  -0.898  1.00  0.00    -0.309 N 
ATOM     23  HN  UNL     1       1.049   2.292  -0.446  1.00  0.00     0.186 HD
ENDBRANCH  16  18
ENDBRANCH   1  16
TORSDOF 5
