REMARK  5 active torsions:
REMARK  status: ('A' for Active; 'I' for Inactive)
REMARK    1  A    between atoms: N_2  and  C_4 
REMARK    2  A    between atoms: N_7  and  C_8 
REMARK    3  A    between atoms: C_8  and  C_9 
REMARK    4  A    between atoms: C_9  and  N_10 
REMARK       I    between atoms: N_10  and  C_11 
REMARK       I    between atoms: C_11  and  N_13 
REMARK    5  A    between atoms: N_13  and  C_14 
ROOT
HETATM    1  N   UNL     1       2.506  -6.078  -3.508  1.00  0.00    -0.341 N 
HETATM    2  C   UNL     1       3.374  -7.116  -3.260  1.00  0.00     0.321 C 
HETATM    3  O   UNL     1       3.655  -7.500  -2.133  1.00  0.00    -0.247 OA
HETATM    4  N   UNL     1       3.918  -7.584  -4.433  1.00  0.00    -0.295 N 
HETATM    5  H   UNL     1       1.913  -6.223  -4.316  1.00  0.00     0.164 HD
HETATM    6  H   UNL     1       4.096  -6.861  -5.113  1.00  0.00     0.172 HD
ENDROOT
BRANCH   1   7
HETATM    7  C   UNL     1       1.943  -5.315  -2.403  1.00  0.00     0.154 C 
BRANCH   7   8
HETATM    8  C   UNL     1       2.998  -4.406  -1.733  1.00  0.00     0.292 C 
BRANCH   8   9
HETATM    9  N   UNL     1       2.493  -3.599  -0.606  1.00  0.00     0.090 N 
HETATM   10  C   UNL     1       1.443  -2.637  -0.965  1.00  0.00     0.274 C 
HETATM   11  C   UNL     1       1.960  -1.453  -1.787  1.00  0.00     0.066 C 
HETATM   12  C   UNL     1       3.043  -0.660  -1.020  1.00  0.00     0.225 C 
HETATM   13  C   UNL     1       4.145  -1.688  -0.661  1.00  0.00     0.066 C 
HETATM   14  C   UNL     1       3.590  -2.903   0.095  1.00  0.00     0.274 C 
BRANCH  12  15
HETATM   15  N   UNL     1       2.515   0.074   0.166  1.00  0.00     0.084 N 
HETATM   16  C   UNL     1       3.559   0.858   0.841  1.00  0.00     0.309 C 
HETATM   17  C   UNL     1       1.419   0.990  -0.179  1.00  0.00     0.309 C 
ENDBRANCH  12  15
ENDBRANCH   8   9
ENDBRANCH   7   8
ENDBRANCH   1   7
BRANCH   4  18
HETATM   18  C   UNL     1       4.939  -8.538  -4.419  1.00  0.00     0.109 A 
HETATM   19  C   UNL     1       4.842  -9.700  -3.666  1.00  0.00     0.055 A 
HETATM   20  C   UNL     1       5.913 -10.590  -3.668  1.00  0.00    -0.057 A 
HETATM   21  C   UNL     1       5.857 -11.874  -2.899  1.00  0.00     0.048 C 
HETATM   22  C   UNL     1       7.060 -10.245  -4.386  1.00  0.00     0.031 A 
HETATM   23  C   UNL     1       7.071  -9.060  -5.118  1.00  0.00     0.007 A 
HETATM   24  C   UNL     1       8.312  -8.596  -5.816  1.00  0.00     0.068 C 
HETATM   25  N   UNL     1       6.004  -8.231  -5.184  1.00  0.00    -0.346 N 
ATOM     26  HN  UNL     1       6.006  -7.409  -5.787  1.00  0.00     0.167 HD
ENDBRANCH   4  18
TORSDOF 5
