REMARK  4 active torsions:
REMARK  status: ('A' for Active; 'I' for Inactive)
REMARK    1  A    between atoms: C_2  and  C_5 
REMARK    2  A    between atoms: C_5  and  N_6 
REMARK    3  A    between atoms: C_5  and  C_18 
REMARK       I    between atoms: N_6  and  C_7 
REMARK       I    between atoms: C_7  and  N_9 
REMARK    4  A    between atoms: N_9  and  C_10 
ROOT
HETATM    1  N   UNL     1       2.243  -0.763  -2.450  1.00  0.00    -0.329 N 
HETATM    2  C   UNL     1       2.285  -1.808  -3.338  1.00  0.00     0.322 C 
HETATM    3  O   UNL     1       2.858  -2.858  -3.079  1.00  0.00    -0.247 OA
HETATM    4  N   UNL     1       1.560  -1.555  -4.476  1.00  0.00    -0.294 N 
HETATM    5  H   UNL     1       2.016   0.163  -2.792  1.00  0.00     0.165 HD
HETATM    6  H   UNL     1       0.729  -0.999  -4.342  1.00  0.00     0.172 HD
ENDROOT
BRANCH   1   7
HETATM    7  C   UNL     1       2.737  -0.916  -1.062  1.00  0.00     0.197 C 
BRANCH   7   8
HETATM    8  C   UNL     1       2.054   0.051  -0.063  1.00  0.00     0.407 C 
HETATM    9  F   UNL     1       1.144   0.834  -0.697  1.00  0.00    -0.169 F 
HETATM   10  F   UNL     1       2.910   0.880   0.567  1.00  0.00    -0.169 F 
HETATM   11  F   UNL     1       1.385  -0.637   0.893  1.00  0.00    -0.169 F 
ENDBRANCH   7   8
BRANCH   7  12
HETATM   12  C   UNL     1       4.280  -0.962  -1.000  1.00  0.00     0.017 C 
HETATM   13  C   UNL     1       4.832  -1.391   0.368  1.00  0.00     0.007 C 
HETATM   14  C   UNL     1       6.138  -0.624   0.563  1.00  0.00     0.000 C 
HETATM   15  C   UNL     1       6.396   0.115  -0.743  1.00  0.00     0.000 C 
HETATM   16  C   UNL     1       5.011   0.340  -1.332  1.00  0.00     0.007 C 
ENDBRANCH   7  12
ENDBRANCH   1   7
BRANCH   4  17
HETATM   17  C   UNL     1       1.389  -2.541  -5.461  1.00  0.00     0.123 A 
HETATM   18  C   UNL     1       2.426  -3.363  -5.875  1.00  0.00     0.051 A 
HETATM   19  C   UNL     1       2.151  -4.383  -6.776  1.00  0.00     0.022 A 
HETATM   20  C   UNL     1       0.851  -4.525  -7.217  1.00  0.00     0.107 A 
HETATM   21  N   UNL     1      -0.132  -3.680  -6.849  1.00  0.00    -0.310 N 
HETATM   22  N   UNL     1       0.149  -2.662  -5.979  1.00  0.00    -0.286 N 
ATOM     23  HN  UNL     1      -1.077  -3.798  -7.215  1.00  0.00     0.186 HD
ATOM     24  HN  UNL     1      -0.579  -1.995  -5.722  1.00  0.00     0.188 HD
ENDBRANCH   4  17
TORSDOF 4
