REMARK  3 active torsions:
REMARK  status: ('A' for Active; 'I' for Inactive)
REMARK    1  A    between atoms: C_2  and  C_5 
REMARK    2  A    between atoms: C_10  and  N_11 
REMARK       I    between atoms: N_11  and  C_12 
REMARK    3  A    between atoms: C_12  and  C_14 
ROOT
HETATM    1  C   UNL     1       3.118   0.786  -1.115  1.00  0.00     0.065 A 
HETATM    2  C   UNL     1       2.797   2.071  -1.344  1.00  0.00     0.107 A 
HETATM    3  N   UNL     1       2.764   2.571  -2.628  1.00  0.00    -0.331 N 
HETATM    4  C   UNL     1       3.011   1.828  -3.761  1.00  0.00     0.272 A 
HETATM    5  O   UNL     1       2.975   2.299  -4.891  1.00  0.00    -0.266 OA
HETATM    6  C   UNL     1       3.320   0.369  -3.524  1.00  0.00     0.104 A 
HETATM    7  C   UNL     1       3.418  -0.061  -2.254  1.00  0.00     0.052 A 
HETATM    8  H   UNL     1       2.515   3.544  -2.783  1.00  0.00     0.168 HD
ENDROOT
BRANCH   6   9
HETATM    9  N   UNL     1       3.499  -0.434  -4.630  1.00  0.00    -0.320 N 
HETATM   10  C   UNL     1       3.376  -1.814  -4.633  1.00  0.00     0.253 C 
HETATM   11  O   UNL     1       2.889  -2.457  -3.705  1.00  0.00    -0.270 OA
HETATM   12  H   UNL     1       3.573   0.039  -5.529  1.00  0.00     0.169 HD
BRANCH  10  13
HETATM   13  C   UNL     1       3.822  -2.492  -5.938  1.00  0.00     0.237 C 
HETATM   14  C   UNL     1       4.277  -3.926  -5.634  1.00  0.00     0.209 C 
HETATM   15  O   UNL     1       5.534  -3.926  -4.934  1.00  0.00    -0.386 OA
HETATM   16  C   UNL     1       6.533  -3.251  -5.701  1.00  0.00     0.193 C 
HETATM   17  C   UNL     1       6.098  -1.827  -6.047  1.00  0.00     0.195 C 
HETATM   18  O   UNL     1       4.816  -1.789  -6.689  1.00  0.00    -0.372 OA
ENDBRANCH  10  13
ENDBRANCH   6   9
BRANCH   1  19
HETATM   19  C   UNL     1       3.118   0.167   0.257  1.00  0.00     0.418 C 
HETATM   20  F   UNL     1       3.468  -1.145   0.260  1.00  0.00    -0.166 F 
HETATM   21  F   UNL     1       1.891   0.246   0.835  1.00  0.00    -0.166 F 
HETATM   22  F   UNL     1       3.984   0.801   1.089  1.00  0.00    -0.166 F 
ENDBRANCH   1  19
TORSDOF 3
