REMARK  5 active torsions:
REMARK  status: ('A' for Active; 'I' for Inactive)
REMARK    1  A    between atoms: N_1  and  S_2 
REMARK    2  A    between atoms: S_2  and  N_5 
REMARK    3  A    between atoms: N_5  and  C_6 
REMARK    4  A    between atoms: C_6  and  C_7 
REMARK    5  A    between atoms: C_13  and  N_14 
ROOT
HETATM    1  C   UNL     1       5.212  -3.044  -0.173  1.00  0.00    -0.000 A 
HETATM    2  C   UNL     1       6.593  -3.363  -0.191  1.00  0.00     0.013 A 
HETATM    3  C   UNL     1       7.019  -4.676  -0.171  1.00  0.00     0.018 A 
HETATM    4  C   UNL     1       6.050  -5.648  -0.150  1.00  0.00     0.089 A 
HETATM    5  N   UNL     1       4.721  -5.381  -0.107  1.00  0.00    -0.352 N 
ATOM      6  HN  UNL     1       4.049  -6.148  -0.092  1.00  0.00     0.166 HD
HETATM    7  C   UNL     1       4.282  -4.099  -0.084  1.00  0.00     0.110 A 
ENDROOT
BRANCH   1   8
HETATM    8  C   UNL     1       4.888  -1.571  -0.238  1.00  0.00     0.147 C 
BRANCH   8   9
HETATM    9  N   UNL     1       4.268  -1.025   0.971  1.00  0.00    -0.203 NA
HETATM   10  H   UNL     1       3.421  -1.537   1.228  1.00  0.00     0.141 HD
BRANCH   9  11
HETATM   11  S   UNL     1       4.006   0.613   0.975  1.00  0.00     0.276 S 
HETATM   12  O   UNL     1       3.253   0.966   2.149  1.00  0.00    -0.194 OA
HETATM   13  O   UNL     1       3.638   1.029  -0.348  1.00  0.00    -0.194 OA
BRANCH  11  14
HETATM   14  N   UNL     1       5.569   1.142   1.213  1.00  0.00    -0.216 NA
HETATM   15  H   UNL     1       5.549   2.022   1.727  1.00  0.00     0.137 HD
HETATM   16  H   UNL     1       6.048   1.245   0.323  1.00  0.00     0.137 HD
ENDBRANCH  11  14
ENDBRANCH   9  11
ENDBRANCH   8   9
ENDBRANCH   1   8
BRANCH   7  17
HETATM   17  N   UNL     1       2.924  -3.914   0.186  1.00  0.00    -0.363 N 
HETATM   18  C   UNL     1       2.211  -5.093   0.752  1.00  0.00     0.150 C 
HETATM   19  C   UNL     1       1.413  -5.877  -0.308  1.00  0.00     0.187 C 
HETATM   20  O   UNL     1       0.553  -5.020  -1.077  1.00  0.00    -0.388 OA
HETATM   21  C   UNL     1       1.336  -4.015  -1.733  1.00  0.00     0.187 C 
HETATM   22  C   UNL     1       2.057  -3.129  -0.710  1.00  0.00     0.150 C 
ENDBRANCH   7  17
TORSDOF 5
