REMARK  4 active torsions:
REMARK  status: ('A' for Active; 'I' for Inactive)
REMARK    1  A    between atoms: C_5  and  C_6 
REMARK    2  A    between atoms: C_6  and  C_7 
REMARK    3  A    between atoms: C_7  and  N_8 
REMARK       I    between atoms: N_8  and  C_9 
REMARK       I    between atoms: C_9  and  N_11 
REMARK    4  A    between atoms: C_14  and  O_15 
ROOT
HETATM    1  N   UNL     1       8.322   1.677   0.165  1.00  0.00    -0.343 N 
HETATM    2  C   UNL     1       9.566   1.111   0.095  1.00  0.00     0.318 C 
HETATM    3  O   UNL     1       9.711  -0.108   0.175  1.00  0.00    -0.247 OA
HETATM    4  N   UNL     1      10.635   1.977  -0.051  1.00  0.00    -0.334 N 
HETATM    5  C   UNL     1      10.588   3.436   0.065  1.00  0.00     0.130 C 
HETATM    6  C   UNL     1      11.482   4.101  -0.982  1.00  0.00     0.051 C 
HETATM    7  C   UNL     1      12.898   3.525  -0.994  1.00  0.00     0.121 C 
HETATM    8  C   UNL     1      12.891   2.001  -1.052  1.00  0.00     0.051 C 
HETATM    9  C   UNL     1      11.976   1.396   0.005  1.00  0.00     0.130 C 
HETATM   10  H   UNL     1       8.178   2.526  -0.369  1.00  0.00     0.164 HD
ENDROOT
BRANCH   1  11
HETATM   11  C   UNL     1       7.162   0.799   0.191  1.00  0.00     0.130 C 
BRANCH  11  12
HETATM   12  C   UNL     1       5.841   1.534   0.403  1.00  0.00     0.077 C 
BRANCH  12  13
HETATM   13  C   UNL     1       5.502   2.460  -0.722  1.00  0.00     0.018 A 
HETATM   14  N   UNL     1       6.323   3.556  -0.954  1.00  0.00    -0.357 N 
HETATM   15  C   UNL     1       5.850   4.269  -1.955  1.00  0.00     0.046 A 
ATOM     16  HN  UNL     1       7.168   3.776  -0.427  1.00  0.00     0.166 HD
HETATM   17  C   UNL     1       6.466   5.528  -2.452  1.00  0.00     0.076 C 
HETATM   18  S   UNL     1       4.425   3.658  -2.692  1.00  0.00    -0.087 SA
HETATM   19  C   UNL     1       4.425   2.353  -1.583  1.00  0.00     0.076 A 
ENDBRANCH  12  13
ENDBRANCH  11  12
ENDBRANCH   1  11
BRANCH   7  20
HETATM   20  O   UNL     1      13.634   3.986   0.138  1.00  0.00    -0.395 OA
HETATM   21  H   UNL     1      13.232   3.632   0.948  1.00  0.00     0.210 HD
ENDBRANCH   7  20
TORSDOF 4
