REMARK  4 active torsions:
REMARK  status: ('A' for Active; 'I' for Inactive)
REMARK       I    between atoms: C_2  and  N_3 
REMARK       I    between atoms: C_2  and  N_13 
REMARK    1  A    between atoms: N_3  and  C_4 
REMARK    2  A    between atoms: C_4  and  C_5 
REMARK    3  A    between atoms: C_5  and  C_6 
REMARK    4  A    between atoms: N_13  and  C_14 
ROOT
HETATM    1  O   UNL     1       2.859   1.638  -0.897  1.00  0.00    -0.247 OA
HETATM    2  C   UNL     1       2.327   0.543  -1.026  1.00  0.00     0.316 C 
HETATM    3  N   UNL     1       0.981   0.459  -1.233  1.00  0.00    -0.343 N 
HETATM    4  N   UNL     1       2.983  -0.649  -0.953  1.00  0.00    -0.338 N 
HETATM    5  H   UNL     1       0.533   1.368  -1.222  1.00  0.00     0.164 HD
HETATM    6  H   UNL     1       2.461  -1.471  -1.195  1.00  0.00     0.164 HD
ENDROOT
BRANCH   3   7
HETATM    7  C   UNL     1       0.177  -0.745  -1.392  1.00  0.00     0.129 C 
BRANCH   7   8
HETATM    8  C   UNL     1      -1.286  -0.444  -1.711  1.00  0.00     0.060 C 
BRANCH   8   9
HETATM    9  C   UNL     1      -2.090  -1.698  -1.927  1.00  0.00    -0.041 A 
HETATM   10  C   UNL     1      -2.230  -2.268  -3.195  1.00  0.00     0.010 A 
HETATM   11  C   UNL     1      -2.997  -3.420  -3.356  1.00  0.00     0.018 A 
HETATM   12  C   UNL     1      -3.593  -3.974  -2.236  1.00  0.00     0.087 A 
HETATM   13  N   UNL     1      -3.460  -3.469  -0.992  1.00  0.00    -0.375 N 
HETATM   14  C   UNL     1      -2.716  -2.347  -0.866  1.00  0.00     0.094 A 
ATOM     15  HN  UNL     1      -3.900  -3.912  -0.185  1.00  0.00     0.164 HD
ENDBRANCH   8   9
ENDBRANCH   7   8
ENDBRANCH   3   7
BRANCH   4  16
HETATM   16  C   UNL     1       4.427  -0.801  -0.783  1.00  0.00     0.091 C 
HETATM   17  C   UNL     1       4.829  -2.278  -0.860  1.00  0.00     0.051 C 
HETATM   18  C   UNL     1       4.634  -3.037   0.453  1.00  0.00     0.171 C 
HETATM   19  O   UNL     1       5.110  -2.337   1.605  1.00  0.00    -0.380 OA
HETATM   20  C   UNL     1       4.585  -1.006   1.766  1.00  0.00     0.062 C 
HETATM   21  C   UNL     1       5.299  -0.353   2.980  1.00  0.00     0.038 C 
HETATM   22  C   UNL     1       3.061  -1.036   2.020  1.00  0.00     0.038 C 
HETATM   23  C   UNL     1       4.977  -0.200   0.511  1.00  0.00     0.063 C 
HETATM   24  C   UNL     1       4.839  -0.855   4.352  1.00  0.00     0.003 C 
HETATM   25  C   UNL     1       3.323  -0.882   4.491  1.00  0.00     0.000 C 
HETATM   26  C   UNL     1       2.700  -1.674   3.356  1.00  0.00     0.003 C 
ENDBRANCH   4  16
TORSDOF 4
