REMARK  9 active torsions:
REMARK  status: ('A' for Active; 'I' for Inactive)
REMARK    1  A    between atoms: N_1  and  C_3 
REMARK    2  A    between atoms: C_8  and  O_15 
REMARK    3  A    between atoms: C_10  and  O_18 
REMARK    4  A    between atoms: C_11  and  C_24 
REMARK    5  A    between atoms: C_14  and  N_29 
REMARK    6  A    between atoms: O_15  and  C_20 
REMARK    7  A    between atoms: O_18  and  C_21 
REMARK    8  A    between atoms: C_22  and  O_25 
REMARK    9  A    between atoms: C_24  and  O_25 
ROOT
HETATM    1  C   UNL     1       2.230   2.411  -0.038  1.00  0.00     0.264 C 
HETATM    2  C   UNL     1       2.626   2.653   1.420  1.00  0.00     0.213 C 
HETATM    3  O   UNL     1       1.476   3.556  -0.468  1.00  0.00    -0.353 OA
HETATM    4  C   UNL     1       2.602   4.191   1.532  1.00  0.00     0.197 C 
HETATM    5  C   UNL     1       2.133   4.689   0.149  1.00  0.00     0.180 C 
ENDROOT
BRANCH   1   6
HETATM    6  N   UNL     1       1.564   1.170  -0.369  1.00  0.00    -0.281 N 
HETATM    7  C   UNL     1       2.060   0.227  -1.249  1.00  0.00     0.160 A 
HETATM    8  N   UNL     1       1.436  -0.925  -1.148  1.00  0.00    -0.330 N 
HETATM    9 BR   UNL     1       3.477   0.455  -2.463  1.00  0.00    -0.010 Br
HETATM   10  C   UNL     1       0.437  -0.699  -0.234  1.00  0.00     0.117 A 
ATOM     11  HN  UNL     1       1.647  -1.794  -1.639  1.00  0.00     0.168 HD
HETATM   12  C   UNL     1       0.465   0.609   0.235  1.00  0.00     0.143 A 
HETATM   13  C   UNL     1      -0.550  -1.552   0.288  1.00  0.00     0.109 A 
HETATM   14  N   UNL     1      -0.385   1.160   1.118  1.00  0.00    -0.336 N 
HETATM   15  C   UNL     1      -1.320   0.261   1.508  1.00  0.00     0.183 A 
ATOM     16  HN  UNL     1      -0.333   2.123   1.449  1.00  0.00     0.168 HD
HETATM   17  N   UNL     1      -1.439  -1.042   1.167  1.00  0.00    -0.341 N 
ATOM     18  HN  UNL     1      -2.179  -1.623   1.562  1.00  0.00     0.167 HD
BRANCH  13  19
HETATM   19  N   UNL     1      -0.639  -2.899  -0.049  1.00  0.00    -0.287 NA
HETATM   20  H   UNL     1       0.245  -3.277  -0.376  1.00  0.00     0.125 HD
HETATM   21  H   UNL     1      -1.133  -3.432   0.655  1.00  0.00     0.125 HD
ENDBRANCH  13  19
ENDBRANCH   1   6
BRANCH   2  22
HETATM   22  O   UNL     1       3.954   2.136   1.661  1.00  0.00    -0.309 OA
BRANCH  22  23
HETATM   23  C   UNL     1       4.022   0.806   1.928  1.00  0.00     0.255 C 
HETATM   24  O   UNL     1       3.061   0.057   2.004  1.00  0.00    -0.266 OA
HETATM   25  C   UNL     1       5.447   0.357   1.992  1.00  0.00     0.126 C 
ENDBRANCH  22  23
ENDBRANCH   2  22
BRANCH   4  26
HETATM   26  O   UNL     1       3.867   4.757   1.909  1.00  0.00    -0.311 OA
BRANCH  26  27
HETATM   27  C   UNL     1       4.187   4.683   3.229  1.00  0.00     0.255 C 
HETATM   28  O   UNL     1       3.471   4.199   4.094  1.00  0.00    -0.266 OA
HETATM   29  C   UNL     1       5.556   5.236   3.478  1.00  0.00     0.126 C 
ENDBRANCH  26  27
ENDBRANCH   4  26
BRANCH   5  30
HETATM   30  C   UNL     1       3.250   5.218  -0.781  1.00  0.00     0.213 C 
BRANCH  30  31
HETATM   31  O   UNL     1       3.959   6.348  -0.252  1.00  0.00    -0.319 OA
BRANCH  31  32
HETATM   32  C   UNL     1       3.348   7.555  -0.385  1.00  0.00     0.254 C 
HETATM   33  O   UNL     1       2.252   7.734  -0.894  1.00  0.00    -0.266 OA
HETATM   34  C   UNL     1       4.193   8.643   0.207  1.00  0.00     0.126 C 
ENDBRANCH  31  32
ENDBRANCH  30  31
ENDBRANCH   5  30
TORSDOF 9
