REMARK  5 active torsions:
REMARK  status: ('A' for Active; 'I' for Inactive)
REMARK    1  A    between atoms: O_2  and  C_3 
REMARK    2  A    between atoms: C_9  and  N_10 
REMARK       I    between atoms: N_10  and  C_11 
REMARK       I    between atoms: C_11  and  N_13 
REMARK    3  A    between atoms: N_13  and  C_14 
REMARK    4  A    between atoms: C_14  and  C_15 
REMARK    5  A    between atoms: C_15  and  N_16 
ROOT
HETATM    1  N   UNL     1       3.060  -2.505   0.634  1.00  0.00    -0.305 N 
HETATM    2  C   UNL     1       2.742  -2.393  -0.700  1.00  0.00     0.320 C 
HETATM    3  O   UNL     1       2.482  -1.336  -1.273  1.00  0.00    -0.247 OA
HETATM    4  N   UNL     1       2.674  -3.591  -1.391  1.00  0.00    -0.341 N 
HETATM    5  H   UNL     1       3.464  -3.366   0.978  1.00  0.00     0.171 HD
HETATM    6  H   UNL     1       3.325  -4.310  -1.105  1.00  0.00     0.164 HD
ENDROOT
BRANCH   1   7
HETATM    7  C   UNL     1       2.991  -1.428   1.570  1.00  0.00     0.087 A 
HETATM    8  C   UNL     1       3.598  -1.508   2.830  1.00  0.00     0.169 A 
HETATM    9  N   UNL     1       3.516  -0.539   3.780  1.00  0.00    -0.345 N 
HETATM   10  C   UNL     1       2.850   0.586   3.459  1.00  0.00     0.090 A 
ATOM     11  HN  UNL     1       3.942  -0.660   4.699  1.00  0.00     0.167 HD
HETATM   12  C   UNL     1       2.254   0.789   2.234  1.00  0.00     0.019 A 
HETATM   13  C   UNL     1       2.313  -0.237   1.294  1.00  0.00     0.035 A 
BRANCH   8  14
HETATM   14  O   UNL     1       4.377  -2.618   3.117  1.00  0.00    -0.339 OA
HETATM   15  C   UNL     1       5.349  -2.304   4.121  1.00  0.00     0.211 C 
ENDBRANCH   8  14
ENDBRANCH   1   7
BRANCH   4  16
HETATM   16  C   UNL     1       2.365  -3.461  -2.806  1.00  0.00     0.144 C 
BRANCH  16  17
HETATM   17  C   UNL     1       2.149  -4.741  -3.628  1.00  0.00     0.145 C 
BRANCH  17  18
HETATM   18  N   UNL     1       1.915  -4.404  -5.049  1.00  0.00    -0.351 N 
HETATM   19  C   UNL     1       0.705  -3.658  -5.397  1.00  0.00     0.126 C 
HETATM   20  C   UNL     1       1.009  -2.303  -6.021  1.00  0.00     0.020 C 
HETATM   21  C   UNL     1       1.229  -2.359  -7.532  1.00  0.00     0.002 C 
HETATM   22  C   UNL     1       1.887  -3.630  -8.067  1.00  0.00     0.009 C 
HETATM   23  C   UNL     1       3.053  -4.128  -7.233  1.00  0.00     0.103 C 
HETATM   24  C   UNL     1       2.719  -4.983  -6.017  1.00  0.00     0.219 C 
HETATM   25  O   UNL     1       3.293  -6.057  -5.837  1.00  0.00    -0.273 OA
ENDBRANCH  17  18
ENDBRANCH  16  17
ENDBRANCH   4  16
TORSDOF 5
