REMARK  6 active torsions:
REMARK  status: ('A' for Active; 'I' for Inactive)
REMARK    1  A    between atoms: O_1  and  C_2 
REMARK    2  A    between atoms: C_2  and  C_3 
REMARK    3  A    between atoms: C_2  and  C_13 
REMARK    4  A    between atoms: C_3  and  O_4 
REMARK    5  A    between atoms: O_4  and  C_5 
REMARK    6  A    between atoms: C_13  and  N_14 
ROOT
HETATM    1  C   UNL     1       2.646   3.601  -0.755  1.00  0.00     0.069 A 
HETATM    2  C   UNL     1       3.868   4.052  -0.249  1.00  0.00     0.038 A 
HETATM    3  C   UNL     1       4.091   5.416  -0.058  1.00  0.00     0.025 A 
HETATM    4  C   UNL     1       3.100   6.340  -0.395  1.00  0.00     0.044 A 
HETATM    5  C   UNL     1       3.320   7.734  -0.153  1.00  0.00     0.099 C 
HETATM    6  N   UNL     1       3.510   8.859   0.062  1.00  0.00    -0.191 NA
HETATM    7  C   UNL     1       1.898   5.896  -0.955  1.00  0.00     0.025 A 
HETATM    8  C   UNL     1       1.676   4.527  -1.141  1.00  0.00     0.038 A 
ENDROOT
BRANCH   1   9
HETATM    9  O   UNL     1       2.336   2.275  -0.921  1.00  0.00    -0.349 OA
BRANCH   9  10
HETATM   10  C   UNL     1       2.829   1.448   0.145  1.00  0.00     0.209 C 
BRANCH  10  11
HETATM   11  C   UNL     1       2.288   0.026  -0.020  1.00  0.00     0.160 C 
BRANCH  11  12
HETATM   12  O   UNL     1       0.860   0.066   0.087  1.00  0.00    -0.392 OA
HETATM   13  H   UNL     1       0.547   0.640  -0.639  1.00  0.00     0.210 HD
ENDBRANCH  11  12
BRANCH  11  14
HETATM   14  C   UNL     1       2.866  -0.867   1.082  1.00  0.00     0.164 C 
BRANCH  14  15
HETATM   15  N   UNL     1       2.496  -2.257   0.913  1.00  0.00    -0.339 N 
HETATM   16  C   UNL     1       1.371  -2.833   1.439  1.00  0.00     0.184 A 
HETATM   17  N   UNL     1       1.273  -4.098   1.109  1.00  0.00    -0.350 N 
HETATM   18  C   UNL     1       2.381  -4.353   0.337  1.00  0.00     0.060 A 
ATOM     19  HN  UNL     1       0.534  -4.752   1.369  1.00  0.00     0.166 HD
HETATM   20  C   UNL     1       2.764  -5.542  -0.297  1.00  0.00     0.032 A 
HETATM   21  C   UNL     1       3.184  -3.219   0.216  1.00  0.00     0.062 A 
HETATM   22  C   UNL     1       3.958  -5.563  -1.027  1.00  0.00     0.002 A 
HETATM   23  C   UNL     1       4.757  -4.421  -1.120  1.00  0.00     0.002 A 
HETATM   24  C   UNL     1       4.387  -3.220  -0.502  1.00  0.00     0.032 A 
ENDBRANCH  14  15
ENDBRANCH  11  14
ENDBRANCH  10  11
ENDBRANCH   9  10
ENDBRANCH   1   9
TORSDOF 6
