REMARK  5 active torsions:
REMARK  status: ('A' for Active; 'I' for Inactive)
REMARK    1  A    between atoms: C_2  and  N_3 
REMARK    2  A    between atoms: C_6  and  C_7 
REMARK    3  A    between atoms: C_7  and  N_8 
REMARK       I    between atoms: N_8  and  C_9 
REMARK       I    between atoms: C_9  and  N_11 
REMARK    4  A    between atoms: N_11  and  C_12 
REMARK    5  A    between atoms: C_15  and  O_16 
ROOT
HETATM    1  N   UNL     1       4.461  -5.153   2.180  1.00  0.00    -0.342 N 
HETATM    2  C   UNL     1       5.371  -5.598   3.097  1.00  0.00     0.320 C 
HETATM    3  O   UNL     1       5.867  -4.892   3.969  1.00  0.00    -0.247 OA
HETATM    4  N   UNL     1       5.808  -6.884   2.927  1.00  0.00    -0.308 N 
HETATM    5  H   UNL     1       4.503  -5.656   1.306  1.00  0.00     0.164 HD
HETATM    6  H   UNL     1       6.711  -7.033   3.361  1.00  0.00     0.170 HD
ENDROOT
BRANCH   1   7
HETATM    7  C   UNL     1       4.149  -3.741   2.048  1.00  0.00     0.130 C 
BRANCH   7   8
HETATM    8  C   UNL     1       2.752  -3.530   1.457  1.00  0.00     0.033 C 
HETATM    9  C   UNL     1       2.611  -4.035   0.017  1.00  0.00     0.038 C 
HETATM   10  C   UNL     1       2.773  -2.804  -0.872  1.00  0.00     0.273 C 
HETATM   11  N   UNL     1       3.051  -1.695   0.044  1.00  0.00     0.088 N 
HETATM   12  C   UNL     1       2.424  -2.050   1.321  1.00  0.00     0.278 C 
BRANCH  11  13
HETATM   13  C   UNL     1       2.586  -0.394  -0.447  1.00  0.00     0.268 C 
HETATM   14  C   UNL     1       3.295   0.036  -1.725  1.00  0.00     0.037 C 
ENDBRANCH  11  13
ENDBRANCH   7   8
ENDBRANCH   1   7
BRANCH   4  15
HETATM   15  C   UNL     1       5.324  -7.854   2.035  1.00  0.00     0.051 A 
HETATM   16  C   UNL     1       3.963  -8.081   1.836  1.00  0.00     0.035 A 
HETATM   17  C   UNL     1       3.559  -9.026   0.897  1.00  0.00     0.058 A 
HETATM   18  C   UNL     1       4.536  -9.702   0.182  1.00  0.00     0.141 A 
HETATM   19  N   UNL     1       5.861  -9.527   0.374  1.00  0.00    -0.345 N 
HETATM   20  C   UNL     1       6.225  -8.623   1.310  1.00  0.00     0.119 A 
ATOM     21  HN  UNL     1       6.553 -10.051  -0.161  1.00  0.00     0.167 HD
BRANCH  18  22
HETATM   22  O   UNL     1       4.094 -10.589  -0.778  1.00  0.00    -0.341 OA
HETATM   23  C   UNL     1       5.163 -11.175  -1.515  1.00  0.00     0.211 C 
ENDBRANCH  18  22
ENDBRANCH   4  15
TORSDOF 5
