REMARK  5 active torsions:
REMARK  status: ('A' for Active; 'I' for Inactive)
REMARK    1  A    between atoms: C_2  and  C_5 
REMARK    2  A    between atoms: C_5  and  N_6 
REMARK    3  A    between atoms: C_9  and  C_10 
REMARK    4  A    between atoms: C_10  and  N_11 
REMARK       I    between atoms: N_11  and  C_12 
REMARK       I    between atoms: C_12  and  N_14 
REMARK    5  A    between atoms: N_14  and  C_15 
ROOT
HETATM    1  N   UNL     1       7.055  -0.998  -0.536  1.00  0.00    -0.342 N 
HETATM    2  C   UNL     1       7.999  -1.344  -1.472  1.00  0.00     0.320 C 
HETATM    3  O   UNL     1       9.199  -1.337  -1.226  1.00  0.00    -0.247 OA
HETATM    4  N   UNL     1       7.432  -1.638  -2.691  1.00  0.00    -0.306 N 
HETATM    5  H   UNL     1       6.085  -1.258  -0.678  1.00  0.00     0.164 HD
HETATM    6  H   UNL     1       6.471  -1.374  -2.841  1.00  0.00     0.171 HD
ENDROOT
BRANCH   1   7
HETATM    7  C   UNL     1       7.432  -0.488   0.765  1.00  0.00     0.130 C 
BRANCH   7   8
HETATM    8  C   UNL     1       6.412  -0.772   1.876  1.00  0.00     0.033 C 
HETATM    9  C   UNL     1       6.209  -2.271   2.105  1.00  0.00     0.038 C 
HETATM   10  C   UNL     1       4.916  -2.627   1.373  1.00  0.00     0.273 C 
HETATM   11  N   UNL     1       4.460  -1.379   0.739  1.00  0.00     0.097 N 
HETATM   12  C   UNL     1       5.003  -0.286   1.557  1.00  0.00     0.279 C 
BRANCH  11  13
HETATM   13  C   UNL     1       2.984  -1.303   0.621  1.00  0.00     0.389 C 
BRANCH  13  14
HETATM   14  C   UNL     1       2.263  -2.372  -0.235  1.00  0.00     0.413 C 
HETATM   15  F   UNL     1       3.118  -3.222  -0.845  1.00  0.00    -0.169 F 
HETATM   16  F   UNL     1       1.518  -1.788  -1.204  1.00  0.00    -0.169 F 
HETATM   17  F   UNL     1       1.427  -3.113   0.529  1.00  0.00    -0.169 F 
ENDBRANCH  13  14
ENDBRANCH  11  13
ENDBRANCH   7   8
ENDBRANCH   1   7
BRANCH   4  18
HETATM   18  C   UNL     1       8.178  -2.002  -3.797  1.00  0.00     0.070 A 
HETATM   19  C   UNL     1       9.523  -2.424  -3.907  1.00  0.00     0.138 A 
HETATM   20  N   UNL     1       9.880  -2.659  -5.174  1.00  0.00    -0.310 N 
HETATM   21  N   UNL     1       8.769  -2.371  -5.870  1.00  0.00    -0.310 N 
ATOM     22  HN  UNL     1      10.781  -2.980  -5.527  1.00  0.00     0.186 HD
HETATM   23  C   UNL     1       7.706  -2.011  -5.086  1.00  0.00     0.138 A 
HETATM   24  H   UNL     1       8.811  -2.436  -6.881  1.00  0.00     0.186 HD
ENDBRANCH   4  18
TORSDOF 5
