REMARK  6 active torsions:
REMARK  status: ('A' for Active; 'I' for Inactive)
REMARK    1  A    between atoms: C_2  and  C_3 
REMARK    2  A    between atoms: C_3  and  C_5 
REMARK    3  A    between atoms: C_3  and  N_17 
REMARK    4  A    between atoms: C_5  and  N_6 
REMARK       I    between atoms: N_6  and  C_7 
REMARK    5  A    between atoms: C_7  and  C_9 
REMARK    6  A    between atoms: C_9  and  N_10 
ROOT
HETATM    1  N   UNL     1       2.557  -3.040  -0.548  1.00  0.00    -0.357 N 
HETATM    2  C   UNL     1       1.589  -3.023  -1.512  1.00  0.00     0.235 C 
HETATM    3  O   UNL     1       1.780  -3.601  -2.581  1.00  0.00    -0.272 OA
HETATM    4  H   UNL     1       3.315  -3.675  -0.772  1.00  0.00     0.162 HD
ENDROOT
BRANCH   1   5
HETATM    5  C   UNL     1       2.516  -2.500   0.813  1.00  0.00     0.153 C 
BRANCH   5   6
HETATM    6  C   UNL     1       2.958  -0.990   1.046  1.00  0.00     0.040 C 
HETATM    7  C   UNL     1       2.612  -0.749   2.545  1.00  0.00     0.040 C 
BRANCH   6   8
HETATM    8  C   UNL     1       2.188   0.080   0.193  1.00  0.00     0.027 C 
HETATM    9  C   UNL     1       0.756   0.534   0.519  1.00  0.00     0.007 C 
ENDBRANCH   6   8
BRANCH   6  10
HETATM   10  N   UNL     1       4.456  -0.892   0.895  1.00  0.00    -0.398 N 
HETATM   11  C   UNL     1       5.122   0.368   1.292  1.00  0.00     0.144 C 
HETATM   12  C   UNL     1       5.283   1.432   0.180  1.00  0.00     0.187 C 
HETATM   13  O   UNL     1       5.819   0.900  -1.035  1.00  0.00    -0.388 OA
HETATM   14  C   UNL     1       5.100  -0.259  -1.469  1.00  0.00     0.187 C 
HETATM   15  C   UNL     1       5.087  -1.324  -0.368  1.00  0.00     0.144 C 
ENDBRANCH   6  10
ENDBRANCH   5   6
ENDBRANCH   1   5
BRANCH   2  16
HETATM   16  C   UNL     1       0.331  -2.238  -1.218  1.00  0.00     0.234 C 
BRANCH  16  17
HETATM   17  N   UNL     1      -0.916  -2.960  -1.283  1.00  0.00    -0.316 N 
HETATM   18  C   UNL     1      -1.719  -2.810  -2.395  1.00  0.00     0.095 A 
HETATM   19  C   UNL     1      -2.969  -3.291  -2.411  1.00  0.00     0.017 A 
HETATM   20  C   UNL     1      -3.482  -3.976  -1.248  1.00  0.00     0.007 A 
HETATM   21  C   UNL     1      -2.726  -4.148  -0.158  1.00  0.00     0.074 A 
HETATM   22  C   UNL     1      -1.337  -3.621  -0.127  1.00  0.00     0.247 A 
HETATM   23  O   UNL     1      -0.672  -3.749   0.897  1.00  0.00    -0.268 OA
ENDBRANCH  16  17
ENDBRANCH   2  16
TORSDOF 6
