REMARK  6 active torsions:
REMARK  status: ('A' for Active; 'I' for Inactive)
REMARK    1  A    between atoms: C_2  and  C_4 
REMARK    2  A    between atoms: C_4  and  N_5 
REMARK    3  A    between atoms: C_9  and  C_10 
REMARK    4  A    between atoms: C_10  and  N_11 
REMARK       I    between atoms: N_11  and  C_12 
REMARK    5  A    between atoms: C_12  and  C_14 
REMARK    6  A    between atoms: C_14  and  N_15 
ROOT
HETATM    1  N   UNL     1       6.477  -4.760   0.528  1.00  0.00    -0.357 N 
HETATM    2  C   UNL     1       7.089  -5.133   1.702  1.00  0.00     0.235 C 
HETATM    3  O   UNL     1       6.475  -5.548   2.682  1.00  0.00    -0.272 OA
HETATM    4  H   UNL     1       7.048  -4.517  -0.280  1.00  0.00     0.162 HD
ENDROOT
BRANCH   1   5
HETATM    5  C   UNL     1       5.036  -4.720   0.363  1.00  0.00     0.156 C 
BRANCH   5   6
HETATM    6  C   UNL     1       4.536  -3.305   0.038  1.00  0.00     0.167 C 
HETATM    7  O   UNL     1       5.126  -2.883  -1.210  1.00  0.00    -0.381 OA
HETATM    8  C   UNL     1       4.704  -1.558  -1.559  1.00  0.00     0.198 C 
HETATM    9  C   UNL     1       5.005  -0.545  -0.439  1.00  0.00     0.298 C 
HETATM   10  N   UNL     1       4.445  -0.921   0.881  1.00  0.00     0.093 N 
HETATM   11  C   UNL     1       4.887  -2.306   1.164  1.00  0.00     0.305 C 
BRANCH  10  12
HETATM   12  C   UNL     1       2.981  -0.748   0.921  1.00  0.00     0.276 C 
BRANCH  12  13
HETATM   13  C   UNL     1       2.337  -1.070   2.289  1.00  0.00     0.006 C 
HETATM   14  C   UNL     1       2.871  -0.165   3.400  1.00  0.00     0.011 C 
HETATM   15  C   UNL     1       0.814  -0.957   2.203  1.00  0.00     0.011 C 
ENDBRANCH  12  13
ENDBRANCH  10  12
ENDBRANCH   5   6
ENDBRANCH   1   5
BRANCH   2  16
HETATM   16  C   UNL     1       8.611  -5.030   1.677  1.00  0.00     0.234 C 
BRANCH  16  17
HETATM   17  N   UNL     1       9.205  -6.283   1.230  1.00  0.00    -0.316 N 
HETATM   18  C   UNL     1       9.494  -7.267   2.157  1.00  0.00     0.095 A 
HETATM   19  C   UNL     1      10.063  -8.421   1.786  1.00  0.00     0.024 A 
HETATM   20  C   UNL     1      10.395  -8.658   0.398  1.00  0.00    -0.055 A 
HETATM   21  C   UNL     1      11.096  -9.933   0.040  1.00  0.00     0.048 C 
HETATM   22  C   UNL     1      10.078  -7.736  -0.527  1.00  0.00     0.081 A 
HETATM   23  C   UNL     1       9.417  -6.460  -0.134  1.00  0.00     0.248 A 
HETATM   24  O   UNL     1       9.108  -5.639  -0.995  1.00  0.00    -0.268 OA
ENDBRANCH  16  17
ENDBRANCH   2  16
TORSDOF 6
