REMARK  4 active torsions:
REMARK  status: ('A' for Active; 'I' for Inactive)
REMARK    1  A    between atoms: C_2  and  C_3 
REMARK       I    between atoms: N_6  and  C_10 
REMARK       I    between atoms: C_10  and  N_12 
REMARK    2  A    between atoms: N_12  and  C_13 
REMARK    3  A    between atoms: C_13  and  C_14 
REMARK    4  A    between atoms: C_14  and  C_15 
ROOT
HETATM    1  C   UNL     1       3.305  -1.030   0.817  1.00  0.00     0.073 C 
HETATM    2  C   UNL     1       3.489  -0.998   2.343  1.00  0.00     0.047 C 
HETATM    3  C   UNL     1       4.695  -1.266   0.158  1.00  0.00     0.165 C 
HETATM    4  N   UNL     1       4.553  -1.611  -1.260  1.00  0.00    -0.329 N 
HETATM    5  C   UNL     1       3.689  -2.778  -1.454  1.00  0.00     0.153 C 
HETATM    6  C   UNL     1       2.317  -2.509  -0.827  1.00  0.00     0.189 C 
HETATM    7  O   UNL     1       2.426  -2.150   0.560  1.00  0.00    -0.377 OA
HETATM    8  C   UNL     1       4.845  -0.837  -2.362  1.00  0.00     0.318 C 
HETATM    9  O   UNL     1       4.578  -1.189  -3.506  1.00  0.00    -0.247 OA
HETATM   10  N   UNL     1       5.426   0.384  -2.116  1.00  0.00    -0.343 N 
HETATM   11  H   UNL     1       5.916   0.501  -1.248  1.00  0.00     0.164 HD
ENDROOT
BRANCH  10  12
HETATM   12  C   UNL     1       5.850   1.208  -3.241  1.00  0.00     0.129 C 
BRANCH  12  13
HETATM   13  C   UNL     1       6.439   2.538  -2.779  1.00  0.00     0.060 C 
BRANCH  13  14
HETATM   14  C   UNL     1       6.871   3.432  -3.914  1.00  0.00    -0.041 A 
HETATM   15  C   UNL     1       8.160   3.373  -4.446  1.00  0.00     0.010 A 
HETATM   16  C   UNL     1       8.544   4.275  -5.437  1.00  0.00     0.025 A 
HETATM   17  C   UNL     1       7.623   5.216  -5.884  1.00  0.00     0.005 A 
HETATM   18  C   UNL     1       8.017   6.276  -6.869  1.00  0.00     0.068 C 
HETATM   19  N   UNL     1       6.353   5.265  -5.416  1.00  0.00    -0.369 N 
HETATM   20  C   UNL     1       6.007   4.377  -4.457  1.00  0.00     0.095 A 
ATOM     21  HN  UNL     1       5.683   5.946  -5.773  1.00  0.00     0.165 HD
ENDBRANCH  13  14
ENDBRANCH  12  13
ENDBRANCH  10  12
BRANCH   1  22
HETATM   22  C   UNL     1       2.701   0.304   0.315  1.00  0.00     0.035 C 
HETATM   23  C   UNL     1       1.317   0.629   0.862  1.00  0.00     0.008 C 
ENDBRANCH   1  22
TORSDOF 4
