REMARK  3 active torsions:
REMARK  status: ('A' for Active; 'I' for Inactive)
REMARK    1  A    between atoms: N_1  and  C_10 
REMARK    2  A    between atoms: N_2  and  C_7 
REMARK    3  A    between atoms: C_10  and  C_12 
ROOT
HETATM    1  N   UNL     1      -0.675   1.088   0.004  1.00  0.00    -0.258 N 
HETATM    2  N   UNL     1      -0.584  -1.274   0.011  1.00  0.00    -0.279 N 
HETATM    3  C   UNL     1      -1.339  -0.119  -0.209  1.00  0.00     0.334 C 
HETATM    4  C   UNL     1       0.697   1.204   0.173  1.00  0.00     0.292 C 
HETATM    5  C   UNL     1       1.436  -0.072   0.252  1.00  0.00     0.200 C 
HETATM    6  C   UNL     1       0.782  -1.227   0.192  1.00  0.00     0.146 C 
HETATM    7  O   UNL     1      -2.505  -0.180  -0.604  1.00  0.00    -0.246 OA
HETATM    8  O   UNL     1       1.299   2.275   0.211  1.00  0.00    -0.264 OA
HETATM    9  F   UNL     1       2.772  -0.008   0.392  1.00  0.00    -0.199 F 
ENDROOT
BRANCH   1  10
HETATM   10  C   UNL     1      -1.446   2.323  -0.069  1.00  0.00     0.194 C 
BRANCH  10  11
HETATM   11  C   UNL     1      -1.820   2.938   1.277  1.00  0.00     0.028 A 
HETATM   12  N   UNL     1      -2.149   2.115   2.308  1.00  0.00    -0.357 N 
HETATM   13  C   UNL     1      -2.707   2.652   3.416  1.00  0.00     0.042 A 
ATOM     14  HN  UNL     1      -1.978   1.111   2.247  1.00  0.00     0.166 HD
HETATM   15  C   UNL     1      -2.946   4.036   3.551  1.00  0.00    -0.009 A 
HETATM   16  C   UNL     1      -3.107   1.827   4.459  1.00  0.00     0.030 A 
HETATM   17  C   UNL     1      -3.600   4.545   4.691  1.00  0.00     0.013 A 
HETATM   18  C   UNL     1      -2.550   4.869   2.504  1.00  0.00     0.015 A 
HETATM   19  C   UNL     1      -4.027   3.686   5.700  1.00  0.00     0.001 A 
HETATM   20  C   UNL     1      -3.773   2.324   5.588  1.00  0.00     0.002 A 
HETATM   21  C   UNL     1      -1.989   4.319   1.356  1.00  0.00     0.027 A 
ENDBRANCH  10  11
ENDBRANCH   1  10
BRANCH   2  22
HETATM   22  C   UNL     1      -1.310  -2.533   0.077  1.00  0.00     0.232 C 
HETATM   23  O   UNL     1      -0.715  -3.412   1.051  1.00  0.00    -0.366 OA
HETATM   24  C   UNL     1      -1.007  -4.762   0.656  1.00  0.00     0.170 C 
HETATM   25  C   UNL     1      -1.774  -4.694  -0.652  1.00  0.00     0.031 C 
HETATM   26  C   UNL     1      -1.363  -3.348  -1.205  1.00  0.00     0.056 C 
ENDBRANCH   2  22
TORSDOF 3
