REMARK  3 active torsions:
REMARK  status: ('A' for Active; 'I' for Inactive)
REMARK    1  A    between atoms: C_8  and  N_9 
REMARK       I    between atoms: N_9  and  C_10 
REMARK       I    between atoms: C_10  and  N_12 
REMARK    2  A    between atoms: N_12  and  C_13 
REMARK    3  A    between atoms: N_16  and  S_19 
ROOT
HETATM    1  N   UNL     1       2.605  -3.124   0.987  1.00  0.00    -0.294 N 
HETATM    2  C   UNL     1       1.293  -3.175   1.401  1.00  0.00     0.322 C 
HETATM    3  O   UNL     1       0.895  -2.973   2.539  1.00  0.00    -0.247 OA
HETATM    4  N   UNL     1       0.453  -3.461   0.345  1.00  0.00    -0.338 N 
HETATM    5  H   UNL     1       2.884  -3.910   0.420  1.00  0.00     0.172 HD
HETATM    6  H   UNL     1       0.904  -3.904  -0.442  1.00  0.00     0.164 HD
ENDROOT
BRANCH   1   7
HETATM    7  C   UNL     1       3.654  -2.756   1.837  1.00  0.00     0.114 A 
HETATM    8  C   UNL     1       3.687  -1.561   2.565  1.00  0.00    -0.018 A 
HETATM    9  C   UNL     1       2.640  -0.491   2.467  1.00  0.00     0.052 C 
HETATM   10  C   UNL     1       4.799  -1.347   3.392  1.00  0.00     0.012 A 
HETATM   11  C   UNL     1       5.827  -2.282   3.439  1.00  0.00     0.018 A 
HETATM   12  C   UNL     1       5.721  -3.401   2.635  1.00  0.00     0.089 A 
HETATM   13  N   UNL     1       4.676  -3.643   1.817  1.00  0.00    -0.352 N 
ATOM     14  HN  UNL     1       4.657  -4.461   1.208  1.00  0.00     0.166 HD
ENDBRANCH   1   7
BRANCH   4  15
HETATM   15  C   UNL     1      -0.992  -3.663   0.494  1.00  0.00     0.089 C 
HETATM   16  C   UNL     1      -1.622  -3.952  -0.875  1.00  0.00     0.045 C 
HETATM   17  C   UNL     1      -1.644  -2.704  -1.754  1.00  0.00     0.137 C 
HETATM   18  N   UNL     1      -2.321  -1.561  -1.098  1.00  0.00    -0.311 N 
HETATM   19  C   UNL     1      -1.716  -1.252   0.233  1.00  0.00     0.137 C 
HETATM   20  C   UNL     1      -1.727  -2.478   1.138  1.00  0.00     0.045 C 
BRANCH  18  21
HETATM   21  S   UNL     1      -4.015  -1.450  -1.164  1.00  0.00     0.224 S 
HETATM   22  O   UNL     1      -4.566  -2.674  -0.631  1.00  0.00    -0.206 OA
HETATM   23  O   UNL     1      -4.394  -0.165  -0.616  1.00  0.00    -0.206 OA
HETATM   24  C   UNL     1      -4.351  -1.408  -2.914  1.00  0.00     0.186 C 
ENDBRANCH  18  21
ENDBRANCH   4  15
TORSDOF 3
