REMARK  7 active torsions:
REMARK  status: ('A' for Active; 'I' for Inactive)
REMARK    1  A    between atoms: O_2  and  C_3 
REMARK    2  A    between atoms: C_3  and  C_4 
REMARK    3  A    between atoms: C_4  and  N_5 
REMARK    4  A    between atoms: C_9  and  C_10 
REMARK    5  A    between atoms: C_10  and  N_11 
REMARK       I    between atoms: N_11  and  C_12 
REMARK    6  A    between atoms: C_12  and  C_14 
REMARK    7  A    between atoms: C_14  and  N_15 
ROOT
HETATM    1  N   UNL     1       3.092   2.740   0.959  1.00  0.00    -0.358 N 
HETATM    2  C   UNL     1       3.133   1.361   0.966  1.00  0.00     0.236 C 
HETATM    3  O   UNL     1       4.063   0.708   0.498  1.00  0.00    -0.272 OA
HETATM    4  H   UNL     1       2.456   3.193   1.614  1.00  0.00     0.162 HD
ENDROOT
BRANCH   1   5
HETATM    5  C   UNL     1       4.144   3.541   0.355  1.00  0.00     0.158 C 
BRANCH   5   6
HETATM    6  C   UNL     1       4.221   3.377  -1.186  1.00  0.00     0.240 C 
HETATM    7  N   UNL     1       5.146   4.269  -1.906  1.00  0.00     0.096 N 
HETATM    8  C   UNL     1       4.486   5.571  -2.037  1.00  0.00     0.273 C 
HETATM    9  C   UNL     1       2.994   5.262  -2.048  1.00  0.00     0.032 C 
HETATM   10  C   UNL     1       2.902   3.755  -1.865  1.00  0.00     0.039 C 
BRANCH   7  11
HETATM   11  C   UNL     1       6.510   4.380  -1.388  1.00  0.00     0.299 C 
BRANCH  11  12
HETATM   12  C   UNL     1       7.279   3.053  -1.297  1.00  0.00     0.197 C 
BRANCH  12  13
HETATM   13  O   UNL     1       8.614   3.336  -0.861  1.00  0.00    -0.394 OA
HETATM   14  C   UNL     1       9.359   2.145  -0.646  1.00  0.00     0.201 C 
ENDBRANCH  12  13
ENDBRANCH  11  12
ENDBRANCH   7  11
ENDBRANCH   5   6
ENDBRANCH   1   5
BRANCH   2  15
HETATM   15  C   UNL     1       1.955   0.705   1.687  1.00  0.00     0.235 C 
BRANCH  15  16
HETATM   16  N   UNL     1       2.327   0.483   3.081  1.00  0.00    -0.301 N 
HETATM   17  C   UNL     1       2.901  -0.711   3.441  1.00  0.00     0.102 A 
HETATM   18  C   UNL     1       3.349  -0.925   4.676  1.00  0.00     0.092 A 
HETATM   19  C   UNL     1       3.246   0.150   5.678  1.00  0.00     0.252 A 
HETATM   20  O   UNL     1       3.718  -0.044   6.796  1.00  0.00    -0.268 OA
HETATM   21  N   UNL     1       2.630   1.317   5.264  1.00  0.00    -0.271 N 
HETATM   22  C   UNL     1       2.528   2.416   6.201  1.00  0.00     0.164 C 
HETATM   23  C   UNL     1       2.182   1.547   3.967  1.00  0.00     0.331 A 
HETATM   24  O   UNL     1       1.713   2.629   3.604  1.00  0.00    -0.246 OA
ENDBRANCH  15  16
ENDBRANCH   2  15
TORSDOF 7
