REMARK  5 active torsions:
REMARK  status: ('A' for Active; 'I' for Inactive)
REMARK    1  A    between atoms: N_4  and  C_5 
REMARK    2  A    between atoms: C_5  and  O_6 
REMARK    3  A    between atoms: O_6  and  C_7 
REMARK    4  A    between atoms: C_7  and  C_8 
REMARK    5  A    between atoms: C_9  and  C_10 
ROOT
HETATM    1  C   UNL     1       5.357   2.412  -0.367  1.00  0.00     0.303 C 
ENDROOT
BRANCH   1   2
HETATM    2  N   UNL     1       4.628   1.171  -0.150  1.00  0.00    -0.287 N 
HETATM    3  C   UNL     1       3.294   1.156   0.205  1.00  0.00     0.110 A 
HETATM    4  C   UNL     1       2.601   0.020   0.351  1.00  0.00     0.022 A 
HETATM    5  C   UNL     1       1.153  -0.039   0.707  1.00  0.00     0.056 C 
HETATM    6  C   UNL     1       3.314  -1.260   0.135  1.00  0.00     0.256 A 
HETATM    7  N   UNL     1       4.645  -1.162  -0.149  1.00  0.00    -0.275 N 
HETATM    8  O   UNL     1       2.741  -2.342   0.204  1.00  0.00    -0.267 OA
HETATM    9  C   UNL     1       5.346  -0.001  -0.335  1.00  0.00     0.331 A 
HETATM   10  H   UNL     1       5.144  -2.023  -0.304  1.00  0.00     0.173 HD
HETATM   11  O   UNL     1       6.534  -0.033  -0.653  1.00  0.00    -0.246 OA
ENDBRANCH   1   2
BRANCH   1  12
HETATM   12  O   UNL     1       4.506   3.543  -0.220  1.00  0.00    -0.368 OA
BRANCH  12  13
HETATM   13  C   UNL     1       5.208   4.754  -0.464  1.00  0.00     0.197 C 
BRANCH  13  14
HETATM   14  C   UNL     1       4.228   5.872  -0.311  1.00  0.00     0.000 C 
HETATM   15  C   UNL     1       4.354   6.866   0.583  1.00  0.00     0.009 C 
BRANCH  15  16
HETATM   16  C   UNL     1       3.423   7.997   0.706  1.00  0.00    -0.036 A 
HETATM   17  C   UNL     1       2.049   7.880   0.456  1.00  0.00     0.011 A 
HETATM   18  C   UNL     1       1.205   8.988   0.585  1.00  0.00     0.001 A 
HETATM   19  C   UNL     1       1.723  10.220   0.978  1.00  0.00     0.000 A 
HETATM   20  C   UNL     1       3.082  10.343   1.256  1.00  0.00     0.001 A 
HETATM   21  C   UNL     1       3.926   9.236   1.127  1.00  0.00     0.011 A 
ENDBRANCH  15  16
ENDBRANCH  13  14
ENDBRANCH  12  13
ENDBRANCH   1  12
TORSDOF 5
