REMARK  2 active torsions:
REMARK  status: ('A' for Active; 'I' for Inactive)
REMARK       I    between atoms: N_2  and  C_3 
REMARK       I    between atoms: C_3  and  N_5 
REMARK    1  A    between atoms: N_5  and  C_6 
REMARK    2  A    between atoms: C_11  and  C_13 
ROOT
HETATM    1  C   UNL     1       5.788  -1.143  -2.525  1.00  0.00     0.169 A 
HETATM    2  N   UNL     1       5.014  -0.251  -3.088  1.00  0.00    -0.279 N 
ATOM      3  HN  UNL     1       4.149   0.097  -2.674  1.00  0.00     0.189 HD
HETATM    4  N   UNL     1       5.505   0.160  -4.302  1.00  0.00    -0.296 N 
ATOM      5  HN  UNL     1       5.046   0.854  -4.892  1.00  0.00     0.187 HD
HETATM    6  C   UNL     1       6.633  -0.438  -4.623  1.00  0.00     0.074 A 
HETATM    7  S   UNL     1       7.200  -1.526  -3.407  1.00  0.00    -0.037 SA
ENDROOT
BRANCH   1   8
HETATM    8  N   UNL     1       5.632  -1.784  -1.326  1.00  0.00    -0.288 N 
HETATM    9  C   UNL     1       4.413  -1.763  -0.691  1.00  0.00     0.321 C 
HETATM   10  N   UNL     1       4.493  -2.327   0.570  1.00  0.00    -0.347 N 
HETATM   11  O   UNL     1       3.361  -1.339  -1.144  1.00  0.00    -0.247 OA
HETATM   12  C   UNL     1       3.294  -2.344   1.376  1.00  0.00     0.151 C 
HETATM   13  H   UNL     1       5.360  -2.156   1.058  1.00  0.00     0.163 HD
HETATM   14  H   UNL     1       6.324  -2.460  -1.052  1.00  0.00     0.172 HD
ENDBRANCH   1   8
BRANCH   6  15
HETATM   15  C   UNL     1       7.377  -0.221  -5.918  1.00  0.00     0.044 C 
HETATM   16  C   UNL     1       7.149   1.196  -6.480  1.00  0.00     0.011 C 
HETATM   17  C   UNL     1       5.755   1.411  -7.081  1.00  0.00     0.001 C 
HETATM   18  C   UNL     1       5.377   0.322  -8.080  1.00  0.00     0.000 C 
HETATM   19  C   UNL     1       5.587  -1.083  -7.524  1.00  0.00     0.001 C 
HETATM   20  C   UNL     1       6.999  -1.273  -6.973  1.00  0.00     0.011 C 
ENDBRANCH   6  15
TORSDOF 2
