REMARK  4 active torsions:
REMARK  status: ('A' for Active; 'I' for Inactive)
REMARK    1  A    between atoms: C_2  and  C_3 
REMARK    2  A    between atoms: C_2  and  N_15 
REMARK    3  A    between atoms: C_3  and  N_4 
REMARK       I    between atoms: N_4  and  C_5 
REMARK       I    between atoms: C_5  and  N_7 
REMARK    4  A    between atoms: N_7  and  C_8 
ROOT
HETATM    1  N   UNL     1       4.370  -1.492  -0.318  1.00  0.00    -0.341 N 
HETATM    2  C   UNL     1       4.969  -2.635  -0.794  1.00  0.00     0.321 C 
HETATM    3  O   UNL     1       4.361  -3.673  -1.019  1.00  0.00    -0.247 OA
HETATM    4  N   UNL     1       6.330  -2.465  -0.877  1.00  0.00    -0.293 N 
HETATM    5  H   UNL     1       4.711  -0.625  -0.720  1.00  0.00     0.164 HD
HETATM    6  H   UNL     1       6.731  -1.819  -0.214  1.00  0.00     0.172 HD
ENDROOT
BRANCH   1   7
HETATM    7  C   UNL     1       2.956  -1.496  -0.008  1.00  0.00     0.149 C 
BRANCH   7   8
HETATM    8  C   UNL     1       2.383  -0.068   0.140  1.00  0.00     0.093 C 
HETATM    9  C   UNL     1       0.909  -0.182   0.550  1.00  0.00     0.033 C 
BRANCH   8  10
HETATM   10  N   UNL     1       2.758   0.893  -0.933  1.00  0.00    -0.403 N 
HETATM   11  C   UNL     1       2.469   2.296  -0.571  1.00  0.00     0.117 C 
HETATM   12  C   UNL     1       1.042   2.766  -0.879  1.00  0.00     0.019 C 
HETATM   13  C   UNL     1       0.590   2.419  -2.291  1.00  0.00     0.004 C 
HETATM   14  C   UNL     1       0.960   0.997  -2.699  1.00  0.00     0.024 C 
HETATM   15  C   UNL     1       2.423   0.682  -2.358  1.00  0.00     0.075 C 
HETATM   16  C   UNL     1       2.862  -0.625  -3.019  1.00  0.00     0.032 C 
ENDBRANCH   8  10
ENDBRANCH   7   8
ENDBRANCH   1   7
BRANCH   4  17
HETATM   17  C   UNL     1       7.175  -3.495  -1.222  1.00  0.00     0.132 A 
HETATM   18  C   UNL     1       6.964  -4.530  -2.159  1.00  0.00     0.084 A 
HETATM   19  C   UNL     1       8.091  -5.306  -2.064  1.00  0.00     0.076 A 
HETATM   20  C   UNL     1       8.546  -6.546  -2.717  1.00  0.00     0.079 C 
HETATM   21  O   UNL     1       8.932  -4.762  -1.145  1.00  0.00    -0.241 OA
HETATM   22  N   UNL     1       8.381  -3.594  -0.654  1.00  0.00    -0.245 N 
ATOM     23  HN  UNL     1       8.806  -2.942   0.005  1.00  0.00     0.196 HD
ENDBRANCH   4  17
TORSDOF 4
