REMARK  4 active torsions:
REMARK  status: ('A' for Active; 'I' for Inactive)
REMARK       I    between atoms: C_2  and  N_3 
REMARK       I    between atoms: C_2  and  N_13 
REMARK    1  A    between atoms: N_3  and  C_4 
REMARK    2  A    between atoms: C_4  and  C_5 
REMARK    3  A    between atoms: C_5  and  C_6 
REMARK    4  A    between atoms: N_13  and  C_14 
ROOT
HETATM    1  O   UNL     1       1.038   0.007  -0.147  1.00  0.00    -0.247 OA
HETATM    2  C   UNL     1       2.252  -0.001  -0.007  1.00  0.00     0.316 C 
HETATM    3  N   UNL     1       2.905  -0.603   1.042  1.00  0.00    -0.343 N 
HETATM    4  N   UNL     1       3.147   0.548  -0.890  1.00  0.00    -0.339 N 
HETATM    5  H   UNL     1       3.754  -0.134   1.323  1.00  0.00     0.164 HD
HETATM    6  H   UNL     1       4.100   0.232  -0.789  1.00  0.00     0.164 HD
ENDROOT
BRANCH   3   7
HETATM    7  C   UNL     1       2.161  -1.272   2.100  1.00  0.00     0.129 C 
BRANCH   7   8
HETATM    8  C   UNL     1       1.430  -2.527   1.610  1.00  0.00     0.060 C 
BRANCH   8   9
HETATM    9  C   UNL     1       0.688  -3.231   2.712  1.00  0.00    -0.041 A 
HETATM   10  C   UNL     1      -0.619  -2.870   3.050  1.00  0.00     0.010 A 
HETATM   11  C   UNL     1      -1.284  -3.554   4.062  1.00  0.00     0.018 A 
HETATM   12  C   UNL     1      -0.613  -4.575   4.714  1.00  0.00     0.087 A 
HETATM   13  N   UNL     1       0.655  -4.944   4.427  1.00  0.00    -0.375 N 
HETATM   14  C   UNL     1       1.274  -4.266   3.434  1.00  0.00     0.094 A 
ATOM     15  HN  UNL     1       1.122  -5.696   4.934  1.00  0.00     0.164 HD
ENDBRANCH   8   9
ENDBRANCH   7   8
ENDBRANCH   3   7
BRANCH   4  16
HETATM   16  C   UNL     1       2.774   1.090  -2.183  1.00  0.00     0.086 C 
HETATM   17  C   UNL     1       1.821   2.293  -2.132  1.00  0.00     0.025 C 
HETATM   18  C   UNL     1       0.715   1.995  -3.142  1.00  0.00     0.002 C 
HETATM   19  C   UNL     1       1.304   0.948  -4.073  1.00  0.00     0.002 C 
HETATM   20  C   UNL     1       2.129   0.078  -3.137  1.00  0.00     0.025 C 
ENDBRANCH   4  16
TORSDOF 4
