REMARK  4 active torsions:
REMARK  status: ('A' for Active; 'I' for Inactive)
REMARK    1  A    between atoms: S_2  and  N_5 
REMARK    2  A    between atoms: C_8  and  N_11 
REMARK       I    between atoms: N_11  and  C_12 
REMARK    3  A    between atoms: C_12  and  C_14 
REMARK    4  A    between atoms: C_14  and  N_15 
ROOT
HETATM    1  N   UNL     1       5.860   1.602  -2.508  1.00  0.00    -0.355 N 
HETATM    2  C   UNL     1       6.893   1.135  -3.310  1.00  0.00     0.237 C 
HETATM    3  O   UNL     1       6.756   0.226  -4.125  1.00  0.00    -0.272 OA
HETATM    4  H   UNL     1       6.153   2.122  -1.684  1.00  0.00     0.162 HD
ENDROOT
BRANCH   1   5
HETATM    5  C   UNL     1       4.594   0.872  -2.435  1.00  0.00     0.087 C 
HETATM    6  C   UNL     1       3.416   1.784  -2.071  1.00  0.00     0.045 C 
HETATM    7  C   UNL     1       3.273   2.085  -0.580  1.00  0.00     0.137 C 
HETATM    8  N   UNL     1       3.447   0.881   0.278  1.00  0.00    -0.311 N 
HETATM    9  C   UNL     1       4.710   0.160  -0.029  1.00  0.00     0.137 C 
HETATM   10  C   UNL     1       4.705  -0.315  -1.472  1.00  0.00     0.045 C 
BRANCH   8  11
HETATM   11  S   UNL     1       2.089  -0.100   0.577  1.00  0.00     0.224 S 
HETATM   12  C   UNL     1       1.136   0.882   1.716  1.00  0.00     0.186 C 
HETATM   13  O   UNL     1       2.531  -1.276   1.298  1.00  0.00    -0.206 OA
HETATM   14  O   UNL     1       1.346  -0.218  -0.659  1.00  0.00    -0.206 OA
ENDBRANCH   8  11
ENDBRANCH   1   5
BRANCH   2  15
HETATM   15  C   UNL     1       8.221   1.819  -3.093  1.00  0.00     0.250 C 
BRANCH  15  16
HETATM   16  N   UNL     1       8.949   1.143  -2.041  1.00  0.00    -0.295 N 
HETATM   17  C   UNL     1       9.915   0.190  -2.190  1.00  0.00     0.112 A 
HETATM   18  C   UNL     1      10.254  -0.206  -0.918  1.00  0.00     0.037 A 
HETATM   19  C   UNL     1       9.457   0.586  -0.072  1.00  0.00     0.108 A 
HETATM   20  N   UNL     1       8.661   1.417  -0.749  1.00  0.00    -0.310 N 
ATOM     21  HN  UNL     1       7.995   2.096  -0.380  1.00  0.00     0.186 HD
ENDBRANCH  15  16
ENDBRANCH   2  15
TORSDOF 4
