REMARK  5 active torsions:
REMARK  status: ('A' for Active; 'I' for Inactive)
REMARK    1  A    between atoms: O_2  and  C_3 
REMARK    2  A    between atoms: C_6  and  N_7 
REMARK       I    between atoms: N_7  and  C_8 
REMARK       I    between atoms: C_8  and  N_10 
REMARK    3  A    between atoms: N_10  and  C_11 
REMARK    4  A    between atoms: C_11  and  C_12 
REMARK    5  A    between atoms: C_12  and  N_13 
ROOT
HETATM    1  N   UNL     1       7.462  -4.821   2.425  1.00  0.00    -0.308 N 
HETATM    2  C   UNL     1       7.061  -6.138   2.440  1.00  0.00     0.320 C 
HETATM    3  O   UNL     1       7.628  -7.068   1.882  1.00  0.00    -0.247 OA
HETATM    4  N   UNL     1       5.923  -6.324   3.190  1.00  0.00    -0.341 N 
HETATM    5  H   UNL     1       7.071  -4.226   3.142  1.00  0.00     0.170 HD
HETATM    6  H   UNL     1       5.282  -5.544   3.145  1.00  0.00     0.164 HD
ENDROOT
BRANCH   1   7
HETATM    7  C   UNL     1       8.563  -4.340   1.690  1.00  0.00     0.051 A 
HETATM    8  C   UNL     1       9.157  -5.052   0.647  1.00  0.00     0.035 A 
HETATM    9  C   UNL     1      10.263  -4.536  -0.009  1.00  0.00     0.058 A 
HETATM   10  C   UNL     1      10.741  -3.301   0.381  1.00  0.00     0.141 A 
HETATM   11  N   UNL     1      10.189  -2.557   1.368  1.00  0.00    -0.345 N 
HETATM   12  C   UNL     1       9.113  -3.094   1.991  1.00  0.00     0.119 A 
ATOM     13  HN  UNL     1      10.562  -1.644   1.628  1.00  0.00     0.167 HD
BRANCH  10  14
HETATM   14  O   UNL     1      11.828  -2.837  -0.331  1.00  0.00    -0.341 OA
HETATM   15  C   UNL     1      12.300  -1.578   0.124  1.00  0.00     0.211 C 
ENDBRANCH  10  14
ENDBRANCH   1   7
BRANCH   4  16
HETATM   16  C   UNL     1       5.281  -7.628   3.137  1.00  0.00     0.154 C 
BRANCH  16  17
HETATM   17  C   UNL     1       6.074  -8.817   3.754  1.00  0.00     0.292 C 
BRANCH  17  18
HETATM   18  N   UNL     1       5.343 -10.068   3.522  1.00  0.00     0.095 N 
HETATM   19  C   UNL     1       4.096 -10.187   4.282  1.00  0.00     0.303 C 
HETATM   20  C   UNL     1       4.291 -10.776   5.684  1.00  0.00     0.146 C 
HETATM   21  C   UNL     1       2.956 -10.815   6.413  1.00  0.00     0.041 C 
HETATM   22  O   UNL     1       4.791 -12.110   5.556  1.00  0.00    -0.378 OA
HETATM   23  C   UNL     1       6.093 -12.100   4.947  1.00  0.00     0.146 C 
HETATM   24  C   UNL     1       6.468 -13.563   4.714  1.00  0.00     0.041 C 
HETATM   25  C   UNL     1       6.136 -11.308   3.608  1.00  0.00     0.303 C 
ENDBRANCH  17  18
ENDBRANCH  16  17
ENDBRANCH   4  16
TORSDOF 5
