REMARK  5 active torsions:
REMARK  status: ('A' for Active; 'I' for Inactive)
REMARK    1  A    between atoms: C_2  and  C_3 
REMARK    2  A    between atoms: C_2  and  C_14 
REMARK       I    between atoms: C_3  and  N_5 
REMARK    3  A    between atoms: N_5  and  C_6 
REMARK    4  A    between atoms: C_9  and  C_11 
REMARK    5  A    between atoms: C_11  and  O_13 
ROOT
HETATM    1  C   UNL     1       3.127   0.537  -1.199  1.00  0.00     0.226 C 
HETATM    2  O   UNL     1       4.090   1.295  -1.105  1.00  0.00    -0.273 OA
HETATM    3  N   UNL     1       2.643   0.079  -2.406  1.00  0.00    -0.356 N 
HETATM    4  H   UNL     1       1.795  -0.471  -2.407  1.00  0.00     0.162 HD
ENDROOT
BRANCH   1   5
HETATM    5  C   UNL     1       2.395   0.030   0.049  1.00  0.00     0.111 C 
HETATM    6  C   UNL     1       2.482  -1.490   0.162  1.00  0.00     0.025 C 
BRANCH   5   7
HETATM    7  C   UNL     1       1.005   0.595   0.135  1.00  0.00     0.010 A 
HETATM    8  C   UNL     1       0.638   1.884   0.637  1.00  0.00     0.038 A 
HETATM    9  C   UNL     1       1.496   2.968   1.175  1.00  0.00     0.071 C 
HETATM   10  N   UNL     1      -0.684   2.072   0.588  1.00  0.00    -0.265 N 
HETATM   11  O   UNL     1      -1.209   0.924   0.044  1.00  0.00    -0.242 OA
ATOM     12  HN  UNL     1      -1.198   2.899   0.892  1.00  0.00     0.194 HD
HETATM   13  C   UNL     1      -0.211   0.046  -0.233  1.00  0.00     0.081 A 
HETATM   14  C   UNL     1      -0.649  -1.230  -0.833  1.00  0.00     0.079 C 
ENDBRANCH   5   7
ENDBRANCH   1   5
BRANCH   3  15
HETATM   15  C   UNL     1       3.181   0.447  -3.703  1.00  0.00     0.085 C 
HETATM   16  C   UNL     1       4.635   0.023  -3.928  1.00  0.00     0.026 C 
HETATM   17  C   UNL     1       5.302   1.153  -4.718  1.00  0.00     0.017 C 
HETATM   18  C   UNL     1       4.200   2.144  -5.079  1.00  0.00     0.085 C 
HETATM   19  C   UNL     1       3.132   1.946  -4.007  1.00  0.00     0.040 C 
BRANCH  18  20
HETATM   20  C   UNL     1       3.671   1.878  -6.475  1.00  0.00     0.143 C 
HETATM   21  O   UNL     1       2.747   1.124  -6.738  1.00  0.00    -0.650 OA
BRANCH  20  22
HETATM   22  O   UNL     1       4.356   2.540  -7.435  1.00  0.00    -0.776 OA
HETATM   23  H   UNL     1       5.076   3.106  -7.097  1.00  0.00     0.167 HD
ENDBRANCH  20  22
ENDBRANCH  18  20
ENDBRANCH   3  15
TORSDOF 5
