REMARK  4 active torsions:
REMARK  status: ('A' for Active; 'I' for Inactive)
REMARK    1  A    between atoms: C_5  and  C_6 
REMARK    2  A    between atoms: C_6  and  C_7 
REMARK    3  A    between atoms: C_7  and  N_8 
REMARK       I    between atoms: N_8  and  C_9 
REMARK       I    between atoms: C_9  and  N_11 
REMARK    4  A    between atoms: C_16  and  C_17 
ROOT
HETATM    1  N   UNL     1       6.478  -4.085   0.228  1.00  0.00    -0.343 N 
HETATM    2  C   UNL     1       6.177  -5.429   0.219  1.00  0.00     0.318 C 
HETATM    3  O   UNL     1       5.015  -5.797   0.362  1.00  0.00    -0.247 OA
HETATM    4  N   UNL     1       7.258  -6.276   0.044  1.00  0.00    -0.325 N 
HETATM    5  C   UNL     1       8.565  -5.787  -0.425  1.00  0.00     0.154 C 
HETATM    6  C   UNL     1       9.209  -6.750  -1.419  1.00  0.00     0.187 C 
HETATM    7  O   UNL     1       9.343  -8.050  -0.840  1.00  0.00    -0.387 OA
HETATM    8  C   UNL     1       8.044  -8.575  -0.528  1.00  0.00     0.193 C 
HETATM    9  C   UNL     1       7.290  -7.702   0.511  1.00  0.00     0.116 C 
HETATM   10  H   UNL     1       7.399  -3.835   0.550  1.00  0.00     0.164 HD
ENDROOT
BRANCH   1  11
HETATM   11  C   UNL     1       5.431  -3.099   0.472  1.00  0.00     0.131 C 
BRANCH  11  12
HETATM   12  C   UNL     1       4.964  -3.087   1.929  1.00  0.00     0.084 C 
BRANCH  12  13
HETATM   13  C   UNL     1       3.854  -2.109   2.148  1.00  0.00     0.052 A 
HETATM   14  S   UNL     1       2.217  -2.597   1.955  1.00  0.00    -0.087 SA
HETATM   15  C   UNL     1       1.708  -1.031   2.421  1.00  0.00     0.076 A 
HETATM   16  C   UNL     1       2.805  -0.236   2.688  1.00  0.00     0.012 A 
HETATM   17  C   UNL     1       2.785   1.179   3.139  1.00  0.00     0.068 C 
HETATM   18  N   UNL     1       4.031  -0.857   2.516  1.00  0.00    -0.357 N 
ATOM     19  HN  UNL     1       4.938  -0.410   2.654  1.00  0.00     0.166 HD
ENDBRANCH  12  13
ENDBRANCH  11  12
ENDBRANCH   1  11
BRANCH   9  20
HETATM   20  C   UNL     1       5.971  -8.313   0.951  1.00  0.00     0.011 A 
HETATM   21  C   UNL     1       5.904  -9.709   1.536  1.00  0.00     0.007 A 
HETATM   22  C   UNL     1       5.268  -9.429   0.206  1.00  0.00     0.007 A 
ENDBRANCH   9  20
TORSDOF 4
