REMARK  5 active torsions:
REMARK  status: ('A' for Active; 'I' for Inactive)
REMARK    1  A    between atoms: C_2  and  C_3 
REMARK    2  A    between atoms: N_6  and  C_7 
REMARK    3  A    between atoms: C_7  and  C_8 
REMARK    4  A    between atoms: C_8  and  O_9 
REMARK    5  A    between atoms: C_20  and  C_21 
ROOT
HETATM    1  C   UNL     1       3.035  -0.561  -1.461  1.00  0.00     0.033 A 
HETATM    2  N   UNL     1       3.059  -1.813  -1.803  1.00  0.00    -0.299 N 
ATOM      3  HN  UNL     1       2.762  -2.536  -1.147  1.00  0.00     0.187 HD
HETATM    4  N   UNL     1       3.490  -2.147  -3.060  1.00  0.00    -0.253 N 
HETATM    5  C   UNL     1       3.862  -1.216  -4.013  1.00  0.00     0.283 A 
HETATM    6  O   UNL     1       4.183  -1.510  -5.160  1.00  0.00    -0.265 OA
HETATM    7  C   UNL     1       3.881   0.202  -3.574  1.00  0.00     0.122 A 
HETATM    8  C   UNL     1       4.334   1.158  -4.526  1.00  0.00     0.106 C 
HETATM    9  N   UNL     1       4.689   1.989  -5.252  1.00  0.00    -0.191 NA
HETATM   10  C   UNL     1       3.495   0.562  -2.333  1.00  0.00    -0.008 A 
ENDROOT
BRANCH  10  11
HETATM   11  C   UNL     1       3.603   1.974  -1.802  1.00  0.00     0.038 C 
HETATM   12  C   UNL     1       2.394   2.850  -2.108  1.00  0.00     0.010 C 
ENDBRANCH  10  11
BRANCH   4  13
HETATM   13  C   UNL     1       3.412  -3.572  -3.420  1.00  0.00     0.190 C 
BRANCH  13  14
HETATM   14  C   UNL     1       4.339  -4.487  -2.574  1.00  0.00     0.076 C 
HETATM   15  C   UNL     1       5.816  -4.054  -2.591  1.00  0.00     0.040 C 
HETATM   16  C   UNL     1       6.478  -4.263  -3.950  1.00  0.00     0.003 C 
HETATM   17  C   UNL     1       6.335  -5.704  -4.433  1.00  0.00     0.000 C 
HETATM   18  C   UNL     1       4.886  -6.184  -4.410  1.00  0.00     0.003 C 
HETATM   19  C   UNL     1       4.235  -5.950  -3.047  1.00  0.00     0.040 C 
BRANCH  14  20
HETATM   20  O   UNL     1       3.892  -4.456  -1.208  1.00  0.00    -0.388 OA
HETATM   21  H   UNL     1       3.628  -3.526  -1.040  1.00  0.00     0.210 HD
ENDBRANCH  14  20
ENDBRANCH  13  14
ENDBRANCH   4  13
BRANCH   1  22
HETATM   22  C   UNL     1       2.483  -0.278  -0.070  1.00  0.00     0.055 C 
HETATM   23  C   UNL     1       3.556  -0.428   0.995  1.00  0.00     0.011 C 
ENDBRANCH   1  22
TORSDOF 5
