REMARK  3 active torsions:
REMARK  status: ('A' for Active; 'I' for Inactive)
REMARK    1  A    between atoms: N_6  and  C_7 
REMARK    2  A    between atoms: C_7  and  C_8 
REMARK       I    between atoms: C_8  and  N_10 
REMARK    3  A    between atoms: N_10  and  C_11 
ROOT
HETATM    1  C   UNL     1       5.557  -3.211   0.060  1.00  0.00     0.237 C 
HETATM    2  O   UNL     1       4.373  -3.399   0.347  1.00  0.00    -0.272 OA
HETATM    3  N   UNL     1       6.442  -4.243  -0.193  1.00  0.00    -0.355 N 
HETATM    4  H   UNL     1       7.433  -4.020  -0.092  1.00  0.00     0.162 HD
ENDROOT
BRANCH   1   5
HETATM    5  C   UNL     1       6.093  -1.814  -0.121  1.00  0.00     0.250 C 
BRANCH   5   6
HETATM    6  N   UNL     1       7.061  -1.465   0.896  1.00  0.00    -0.294 N 
HETATM    7  N   UNL     1       8.283  -2.049   0.885  1.00  0.00    -0.308 N 
HETATM    8  C   UNL     1       8.931  -1.441   1.887  1.00  0.00     0.127 A 
ATOM      9  HN  UNL     1       8.628  -2.779   0.261  1.00  0.00     0.186 HD
HETATM   10  C   UNL     1       8.131  -0.476   2.511  1.00  0.00     0.044 A 
HETATM   11 BR   UNL     1       8.645   0.614   3.933  1.00  0.00    -0.048 Br
HETATM   12  C   UNL     1       6.930  -0.501   1.856  1.00  0.00     0.131 A 
ENDBRANCH   5   6
ENDBRANCH   1   5
BRANCH   3  13
HETATM   13  C   UNL     1       6.007  -5.611  -0.020  1.00  0.00     0.084 C 
HETATM   14  C   UNL     1       6.148  -6.123   1.413  1.00  0.00     0.025 C 
HETATM   15  C   UNL     1       6.162  -7.649   1.284  1.00  0.00     0.002 C 
HETATM   16  C   UNL     1       6.259  -7.943  -0.214  1.00  0.00     0.002 C 
HETATM   17  C   UNL     1       6.782  -6.647  -0.823  1.00  0.00     0.025 C 
ENDBRANCH   3  13
TORSDOF 3
