REMARK  5 active torsions:
REMARK  status: ('A' for Active; 'I' for Inactive)
REMARK    1  A    between atoms: O_2  and  C_3 
REMARK    2  A    between atoms: C_3  and  C_6 
REMARK    3  A    between atoms: C_6  and  N_7 
REMARK       I    between atoms: N_7  and  C_8 
REMARK    4  A    between atoms: C_8  and  C_10 
REMARK    5  A    between atoms: C_10  and  C_11 
ROOT
HETATM    1  N   UNL     1       4.963   1.931  -1.990  1.00  0.00    -0.358 N 
HETATM    2  C   UNL     1       6.316   2.182  -1.977  1.00  0.00     0.223 C 
HETATM    3  O   UNL     1       7.097   1.618  -1.213  1.00  0.00    -0.273 OA
HETATM    4  H   UNL     1       4.359   2.469  -2.603  1.00  0.00     0.162 HD
ENDROOT
BRANCH   2   5
HETATM    5  C   UNL     1       6.775   3.219  -2.981  1.00  0.00     0.161 C 
BRANCH   5   6
HETATM    6  C   UNL     1       7.079   2.596  -4.296  1.00  0.00     0.036 A 
HETATM    7  C   UNL     1       8.317   2.079  -4.746  1.00  0.00     0.053 A 
HETATM    8  C   UNL     1       8.078   1.628  -6.025  1.00  0.00     0.024 A 
HETATM    9  C   UNL     1       8.951   0.981  -7.027  1.00  0.00     0.070 C 
HETATM   10  N   UNL     1       6.758   1.893  -6.265  1.00  0.00    -0.305 N 
HETATM   11  N   UNL     1       6.132   2.494  -5.240  1.00  0.00    -0.304 N 
HETATM   12  H   UNL     1       6.223   1.695  -7.104  1.00  0.00     0.186 HD
ATOM     13  HN  UNL     1       5.161   2.802  -5.191  1.00  0.00     0.186 HD
ENDBRANCH   5   6
ENDBRANCH   2   5
BRANCH   1  14
HETATM   14  C   UNL     1       4.324   1.034  -1.043  1.00  0.00     0.159 C 
BRANCH  14  15
HETATM   15  C   UNL     1       3.006   0.420  -1.589  1.00  0.00     0.069 C 
HETATM   16  C   UNL     1       2.433  -0.506  -0.505  1.00  0.00     0.047 C 
HETATM   17  C   UNL     1       3.294  -0.374  -2.871  1.00  0.00     0.047 C 
BRANCH  15  18
HETATM   18  O   UNL     1       2.124   1.532  -1.849  1.00  0.00    -0.384 OA
HETATM   19  C   UNL     1       0.816   1.218  -2.303  1.00  0.00     0.202 C 
ENDBRANCH  15  18
ENDBRANCH  14  15
ENDBRANCH   1  14
TORSDOF 5
