REMARK  2 active torsions:
REMARK  status: ('A' for Active; 'I' for Inactive)
REMARK    1  A    between atoms: N_3  and  C_4 
REMARK    2  A    between atoms: C_10  and  N_11 
ROOT
HETATM    1  C   UNL     2       2.634   0.058   0.494  1.00  0.00     0.070 A 
HETATM    2  C   UNL     2       3.506   1.153   0.402  1.00  0.00     0.034 A 
HETATM    3  C   UNL     2       4.879   0.964   0.327  1.00  0.00     0.019 A 
HETATM    4  C   UNL     2       5.387  -0.331   0.356  1.00  0.00     0.090 A 
HETATM    5  N   UNL     2       4.541  -1.393   0.431  1.00  0.00    -0.351 N 
ATOM      6  HN  UNL     2       4.940  -2.332   0.452  1.00  0.00     0.166 HD
HETATM    7  C   UNL     2       3.183  -1.262   0.479  1.00  0.00     0.130 A 
ENDROOT
BRANCH   7   8
HETATM    8  N   UNL     2       2.381  -2.457   0.520  1.00  0.00    -0.361 N 
HETATM    9  C   UNL     2       2.877  -3.687   1.123  1.00  0.00     0.150 C 
HETATM   10  C   UNL     2       2.779  -4.834   0.104  1.00  0.00     0.187 C 
HETATM   11  O   UNL     2       1.455  -4.948  -0.390  1.00  0.00    -0.388 OA
HETATM   12  C   UNL     2       1.112  -3.765  -1.089  1.00  0.00     0.187 C 
HETATM   13  C   UNL     2       1.082  -2.570  -0.131  1.00  0.00     0.150 C 
ENDBRANCH   7   8
BRANCH   1  14
HETATM   14  N   UNL     2       1.251   0.337   0.672  1.00  0.00    -0.396 N 
HETATM   15  H   UNL     2       0.910   1.309   0.663  1.00  0.00     0.156 HD
HETATM   16  H   UNL     2       0.571  -0.376   0.962  1.00  0.00     0.156 HD
ENDBRANCH   1  14
TORSDOF 2
