REMARK  5 active torsions:
REMARK  status: ('A' for Active; 'I' for Inactive)
REMARK       I    between atoms: C_2  and  N_3 
REMARK    1  A    between atoms: C_2  and  C_13 
REMARK    2  A    between atoms: N_3  and  C_4 
REMARK    3  A    between atoms: C_4  and  C_5 
REMARK    4  A    between atoms: C_5  and  C_6 
REMARK    5  A    between atoms: N_15  and  C_16 
ROOT
HETATM    1  O   UNL     1       2.683  -0.917   0.788  1.00  0.00    -0.273 OA
HETATM    2  C   UNL     1       2.318  -0.056  -0.006  1.00  0.00     0.223 C 
HETATM    3  N   UNL     1       1.180   0.703   0.196  1.00  0.00    -0.360 N 
HETATM    4  H   UNL     1       0.778   1.187  -0.598  1.00  0.00     0.162 HD
ENDROOT
BRANCH   2   5
HETATM    5  C   UNL     1       3.055   0.245  -1.293  1.00  0.00     0.104 C 
HETATM    6  C   UNL     1       4.285  -0.639  -1.451  1.00  0.00     0.141 C 
HETATM    7  N   UNL     1       5.242   0.180  -2.161  1.00  0.00    -0.347 N 
HETATM    8  C   UNL     1       4.931   1.529  -2.042  1.00  0.00     0.221 C 
HETATM    9  O   UNL     1       5.620   2.470  -2.404  1.00  0.00    -0.273 OA
HETATM   10  C   UNL     1       3.607   1.664  -1.335  1.00  0.00     0.118 C 
BRANCH   7  11
HETATM   11  C   UNL     1       6.600  -0.263  -2.467  1.00  0.00     0.087 C 
HETATM   12  C   UNL     1       6.719  -1.672  -3.063  1.00  0.00     0.025 C 
HETATM   13  C   UNL     1       7.974  -2.296  -2.451  1.00  0.00     0.002 C 
HETATM   14  C   UNL     1       8.665  -1.184  -1.677  1.00  0.00     0.002 C 
HETATM   15  C   UNL     1       7.526  -0.273  -1.246  1.00  0.00     0.025 C 
ENDBRANCH   7  11
ENDBRANCH   2   5
BRANCH   3  16
HETATM   16  C   UNL     1       0.327   0.419   1.343  1.00  0.00     0.128 C 
BRANCH  16  17
HETATM   17  C   UNL     1      -0.868   1.360   1.444  1.00  0.00     0.076 C 
BRANCH  17  18
HETATM   18  C   UNL     1      -1.688   1.054   2.670  1.00  0.00     0.010 A 
HETATM   19  C   UNL     1      -1.428   1.699   3.877  1.00  0.00     0.025 A 
HETATM   20  C   UNL     1      -2.184   1.362   4.996  1.00  0.00     0.003 A 
HETATM   21  C   UNL     1      -3.173   0.392   4.884  1.00  0.00     0.017 A 
HETATM   22  C   UNL     1      -3.365  -0.203   3.649  1.00  0.00     0.088 A 
HETATM   23  N   UNL     1      -2.647   0.106   2.545  1.00  0.00    -0.369 N 
ATOM     24  HN  UNL     1      -2.821  -0.357   1.653  1.00  0.00     0.165 HD
ENDBRANCH  17  18
ENDBRANCH  16  17
ENDBRANCH   3  16
TORSDOF 5
