REMARK  6 active torsions:
REMARK  status: ('A' for Active; 'I' for Inactive)
REMARK    1  A    between atoms: C_7  and  O_8 
REMARK    2  A    between atoms: O_8  and  C_9 
REMARK    3  A    between atoms: C_9  and  C_10 
REMARK    4  A    between atoms: C_10  and  N_11 
REMARK       I    between atoms: N_11  and  C_12 
REMARK    5  A    between atoms: C_12  and  C_14 
REMARK    6  A    between atoms: C_14  and  N_15 
ROOT
HETATM    1  N   UNL     1       0.988  -3.324   2.980  1.00  0.00    -0.358 N 
HETATM    2  C   UNL     1       0.202  -4.087   2.142  1.00  0.00     0.237 C 
HETATM    3  O   UNL     1       0.649  -4.880   1.313  1.00  0.00    -0.272 OA
HETATM    4  H   UNL     1       0.561  -2.545   3.468  1.00  0.00     0.162 HD
ENDROOT
BRANCH   1   5
HETATM    5  C   UNL     1       2.440  -3.348   2.875  1.00  0.00     0.148 C 
BRANCH   5   6
HETATM    6  C   UNL     1       2.996  -2.230   1.987  1.00  0.00     0.187 C 
BRANCH   6   7
HETATM    7  O   UNL     1       2.462  -2.325   0.666  1.00  0.00    -0.384 OA
BRANCH   7   8
HETATM    8  C   UNL     1       3.003  -1.375  -0.259  1.00  0.00     0.125 C 
HETATM    9  C   UNL     1       2.663   0.082   0.124  1.00  0.00     0.010 C 
HETATM   10  C   UNL     1       1.168   0.281   0.413  1.00  0.00     0.012 C 
HETATM   11  C   UNL     1       3.169   1.049  -0.954  1.00  0.00     0.007 C 
HETATM   12  C   UNL     1       2.645   0.709  -2.346  1.00  0.00     0.001 C 
HETATM   13  C   UNL     1       2.936  -0.741  -2.721  1.00  0.00     0.002 C 
HETATM   14  C   UNL     1       2.464  -1.726  -1.654  1.00  0.00     0.032 C 
ENDBRANCH   7   8
ENDBRANCH   6   7
ENDBRANCH   5   6
ENDBRANCH   1   5
BRANCH   2  15
HETATM   15  C   UNL     1      -1.303  -3.893   2.305  1.00  0.00     0.255 C 
BRANCH  15  16
HETATM   16  N   UNL     1      -1.896  -3.324   1.105  1.00  0.00    -0.246 N 
HETATM   17  N   UNL     1      -1.783  -4.112  -0.057  1.00  0.00    -0.261 N 
HETATM   18  C   UNL     1      -2.139  -3.644  -1.293  1.00  0.00     0.260 C 
HETATM   19  H   UNL     1      -1.102  -4.875  -0.048  1.00  0.00     0.190 HD
HETATM   20  O   UNL     1      -1.889  -4.234  -2.337  1.00  0.00    -0.267 OA
HETATM   21  C   UNL     1      -2.879  -2.368  -1.313  1.00  0.00     0.081 C 
HETATM   22  C   UNL     1      -3.040  -1.645  -0.205  1.00  0.00     0.081 C 
HETATM   23  C   UNL     1      -2.487  -2.082   1.095  1.00  0.00     0.262 C 
HETATM   24  O   UNL     1      -2.586  -1.350   2.076  1.00  0.00    -0.267 OA
ENDBRANCH  15  16
ENDBRANCH   2  15
TORSDOF 6
