REMARK  4 active torsions:
REMARK  status: ('A' for Active; 'I' for Inactive)
REMARK    1  A    between atoms: O_1  and  C_2 
REMARK    2  A    between atoms: C_2  and  C_3 
REMARK    3  A    between atoms: C_4  and  N_5 
REMARK       I    between atoms: N_5  and  C_6 
REMARK       I    between atoms: C_6  and  N_8 
REMARK    4  A    between atoms: N_8  and  C_9 
ROOT
HETATM    1  N   UNL     1       4.875  -2.307   1.218  1.00  0.00    -0.337 N 
HETATM    2  C   UNL     1       5.769  -1.786   0.311  1.00  0.00     0.322 C 
HETATM    3  O   UNL     1       5.404  -1.160  -0.681  1.00  0.00    -0.247 OA
HETATM    4  N   UNL     1       7.066  -2.110   0.617  1.00  0.00    -0.295 N 
HETATM    5  H   UNL     1       5.200  -2.349   2.173  1.00  0.00     0.164 HD
HETATM    6  H   UNL     1       7.186  -3.026   1.022  1.00  0.00     0.172 HD
ENDROOT
BRANCH   1   7
HETATM    7  C   UNL     1       3.448  -2.158   0.972  1.00  0.00     0.096 C 
HETATM    8  C   UNL     1       2.908  -0.749   1.322  1.00  0.00     0.036 C 
HETATM    9  C   UNL     1       1.752  -1.068   2.308  1.00  0.00    -0.006 C 
HETATM   10  C   UNL     1       0.590  -1.796   1.611  1.00  0.00     0.005 C 
HETATM   11  C   UNL     1       2.367  -2.213   3.117  1.00  0.00     0.012 C 
HETATM   12  C   UNL     1       1.191  -3.170   1.279  1.00  0.00     0.007 C 
HETATM   13  C   UNL     1       2.608  -3.082   1.881  1.00  0.00     0.009 C 
BRANCH   8  14
HETATM   14  C   UNL     1       2.515   0.061   0.090  1.00  0.00     0.171 C 
BRANCH  14  15
HETATM   15  O   UNL     1       1.845   1.250   0.493  1.00  0.00    -0.400 OA
HETATM   16  H   UNL     1       1.602   1.720  -0.323  1.00  0.00     0.209 HD
ENDBRANCH  14  15
ENDBRANCH   8  14
ENDBRANCH   1   7
BRANCH   4  17
HETATM   17  C   UNL     1       8.110  -1.786  -0.260  1.00  0.00     0.108 A 
HETATM   18  C   UNL     1       8.195  -0.536  -0.867  1.00  0.00     0.049 A 
HETATM   19  C   UNL     1       9.175  -0.325  -1.829  1.00  0.00     0.005 A 
HETATM   20  C   UNL     1      10.035  -1.364  -2.156  1.00  0.00     0.017 A 
HETATM   21  C   UNL     1       9.909  -2.559  -1.463  1.00  0.00     0.089 A 
HETATM   22  N   UNL     1       8.987  -2.781  -0.499  1.00  0.00    -0.352 N 
ATOM     23  HN  UNL     1       8.957  -3.658   0.021  1.00  0.00     0.166 HD
ENDBRANCH   4  17
TORSDOF 4
