REMARK  5 active torsions:
REMARK  status: ('A' for Active; 'I' for Inactive)
REMARK    1  A    between atoms: C_2  and  C_3 
REMARK    2  A    between atoms: C_2  and  N_14 
REMARK    3  A    between atoms: C_3  and  N_4 
REMARK       I    between atoms: N_4  and  C_5 
REMARK    4  A    between atoms: C_5  and  C_7 
REMARK    5  A    between atoms: C_7  and  N_8 
ROOT
HETATM    1  N   UNL     1       2.765  -1.959   1.550  1.00  0.00    -0.358 N 
HETATM    2  C   UNL     1       2.111  -3.167   1.714  1.00  0.00     0.237 C 
HETATM    3  O   UNL     1       1.620  -3.807   0.788  1.00  0.00    -0.272 OA
HETATM    4  H   UNL     1       3.335  -1.631   2.324  1.00  0.00     0.162 HD
ENDROOT
BRANCH   1   5
HETATM    5  C   UNL     1       3.025  -1.398   0.233  1.00  0.00     0.158 C 
BRANCH   5   6
HETATM    6  C   UNL     1       2.491   0.060   0.068  1.00  0.00     0.236 C 
HETATM    7  C   UNL     1       0.960   0.020   0.252  1.00  0.00     0.044 C 
BRANCH   6   8
HETATM    8  N   UNL     1       2.879   0.643  -1.247  1.00  0.00     0.098 N 
HETATM    9  C   UNL     1       4.349   0.738  -1.446  1.00  0.00     0.299 C 
HETATM   10  C   UNL     1       5.008   1.834  -0.595  1.00  0.00     0.198 C 
HETATM   11  O   UNL     1       4.457   3.118  -0.908  1.00  0.00    -0.388 OA
HETATM   12  C   UNL     1       3.036   3.127  -0.721  1.00  0.00     0.198 C 
HETATM   13  C   UNL     1       2.341   2.002  -1.509  1.00  0.00     0.299 C 
ENDBRANCH   6   8
ENDBRANCH   5   6
ENDBRANCH   1   5
BRANCH   2  14
HETATM   14  C   UNL     1       2.010  -3.634   3.145  1.00  0.00     0.250 C 
BRANCH  14  15
HETATM   15  N   UNL     1       3.138  -4.468   3.497  1.00  0.00    -0.295 N 
HETATM   16  C   UNL     1       3.208  -5.830   3.416  1.00  0.00     0.112 A 
HETATM   17  C   UNL     1       4.431  -6.181   3.935  1.00  0.00     0.037 A 
HETATM   18  C   UNL     1       5.026  -4.959   4.301  1.00  0.00     0.108 A 
HETATM   19  N   UNL     1       4.242  -3.909   4.038  1.00  0.00    -0.310 N 
ATOM     20  HN  UNL     1       4.432  -2.921   4.206  1.00  0.00     0.186 HD
ENDBRANCH  14  15
ENDBRANCH   2  14
TORSDOF 5
