REMARK  5 active torsions:
REMARK  status: ('A' for Active; 'I' for Inactive)
REMARK    1  A    between atoms: C_5  and  C_6 
REMARK    2  A    between atoms: C_6  and  C_7 
REMARK    3  A    between atoms: C_7  and  N_8 
REMARK       I    between atoms: N_8  and  C_9 
REMARK       I    between atoms: C_9  and  N_11 
REMARK    4  A    between atoms: N_11  and  C_12 
REMARK    5  A    between atoms: C_12  and  C_13 
ROOT
HETATM    1  N   UNL     1       8.358   1.843   0.083  1.00  0.00    -0.343 N 
HETATM    2  C   UNL     1       9.586   1.247   0.151  1.00  0.00     0.316 C 
HETATM    3  O   UNL     1       9.739   0.036   0.249  1.00  0.00    -0.247 OA
HETATM    4  N   UNL     1      10.614   2.139   0.072  1.00  0.00    -0.341 N 
HETATM    5  H   UNL     1       8.295   2.848   0.027  1.00  0.00     0.164 HD
HETATM    6  H   UNL     1      10.436   3.131   0.130  1.00  0.00     0.164 HD
ENDROOT
BRANCH   1   7
HETATM    7  C   UNL     1       7.131   1.064   0.077  1.00  0.00     0.130 C 
BRANCH   7   8
HETATM    8  C   UNL     1       6.665   0.642   1.472  1.00  0.00     0.077 C 
BRANCH   8   9
HETATM    9  C   UNL     1       6.245   1.806   2.313  1.00  0.00     0.018 A 
HETATM   10  N   UNL     1       4.941   2.267   2.219  1.00  0.00    -0.357 N 
HETATM   11  C   UNL     1       4.761   3.282   3.038  1.00  0.00     0.046 A 
ATOM     12  HN  UNL     1       4.226   1.877   1.605  1.00  0.00     0.166 HD
HETATM   13  C   UNL     1       3.477   4.014   3.209  1.00  0.00     0.076 C 
HETATM   14  S   UNL     1       6.143   3.755   3.944  1.00  0.00    -0.087 SA
HETATM   15  C   UNL     1       7.041   2.500   3.204  1.00  0.00     0.076 A 
ENDBRANCH   8   9
ENDBRANCH   7   8
ENDBRANCH   1   7
BRANCH   4  16
HETATM   16  C   UNL     1      12.000   1.706  -0.001  1.00  0.00     0.156 C 
BRANCH  16  17
HETATM   17  C   UNL     1      12.837   2.084   1.222  1.00  0.00     0.139 C 
HETATM   18  C   UNL     1      12.306   1.625   2.572  1.00  0.00     0.035 C 
HETATM   19  C   UNL     1      12.750   2.712   3.535  1.00  0.00     0.029 C 
HETATM   20  C   UNL     1      13.463   3.731   2.669  1.00  0.00     0.168 C 
HETATM   21  O   UNL     1      12.974   3.513   1.340  1.00  0.00    -0.384 OA
ENDBRANCH  16  17
ENDBRANCH   4  16
TORSDOF 5
