REMARK  3 active torsions:
REMARK  status: ('A' for Active; 'I' for Inactive)
REMARK    1  A    between atoms: C_2  and  N_4 
REMARK       I    between atoms: N_4  and  C_5 
REMARK    2  A    between atoms: C_5  and  C_7 
REMARK    3  A    between atoms: C_10  and  N_16 
ROOT
HETATM    1  C   UNL     1       4.890  -1.359   2.925  1.00  0.00     0.139 A 
HETATM    2  N   UNL     1       4.603  -2.679   3.130  1.00  0.00    -0.184 N 
ATOM      3  HN  UNL     1       4.081  -3.220   2.440  1.00  0.00     0.184 HD
HETATM    4  C   UNL     1       5.032  -3.237   4.271  1.00  0.00     0.680 A 
HETATM    5  N   UNL     1       5.682  -2.534   5.210  1.00  0.00    -0.200 N 
ATOM      6  HN  UNL     1       5.998  -2.980   6.071  1.00  0.00     0.183 HD
HETATM    7  C   UNL     1       5.908  -1.221   4.987  1.00  0.00     0.132 A 
HETATM    8  C   UNL     1       5.533  -0.561   3.846  1.00  0.00     0.082 A 
HETATM    9 CL   UNL     1       5.824   1.124   3.720  1.00  0.00    -0.080 Cl
ENDROOT
BRANCH   1  10
HETATM   10  C   UNL     1       4.467  -0.829   1.589  1.00  0.00     0.270 C 
HETATM   11  N   UNL     1       3.380  -1.466   1.015  1.00  0.00    -0.352 N 
HETATM   12  H   UNL     1       3.068  -2.326   1.454  1.00  0.00     0.163 HD
HETATM   13  O   UNL     1       5.058   0.097   1.045  1.00  0.00    -0.266 OA
BRANCH  11  14
HETATM   14  C   UNL     1       2.878  -1.083  -0.297  1.00  0.00     0.076 C 
HETATM   15  C   UNL     1       3.595  -1.849  -1.404  1.00  0.00     0.032 C 
HETATM   16  C   UNL     1       1.370  -1.293  -0.374  1.00  0.00     0.032 C 
ENDBRANCH  11  14
ENDBRANCH   1  10
BRANCH   4  17
HETATM   17  N   UNL     1       4.841  -4.574   4.475  1.00  0.00    -0.214 N 
HETATM   18  C   UNL     1       5.334  -5.260   5.670  1.00  0.00     0.167 C 
HETATM   19  C   UNL     1       6.031  -6.570   5.255  1.00  0.00     0.188 C 
HETATM   20  O   UNL     1       5.192  -7.384   4.416  1.00  0.00    -0.388 OA
HETATM   21  C   UNL     1       4.821  -6.665   3.228  1.00  0.00     0.188 C 
HETATM   22  C   UNL     1       4.036  -5.391   3.574  1.00  0.00     0.167 C 
ENDBRANCH   4  17
TORSDOF 3
