REMARK  4 active torsions:
REMARK  status: ('A' for Active; 'I' for Inactive)
REMARK       I    between atoms: C_2  and  N_3 
REMARK       I    between atoms: C_2  and  N_8 
REMARK    1  A    between atoms: N_3  and  C_4 
REMARK    2  A    between atoms: C_4  and  C_5 
REMARK    3  A    between atoms: N_8  and  C_9 
REMARK    4  A    between atoms: C_12  and  N_16 
ROOT
HETATM    1  C   UNL     1       4.424   1.082   0.655  1.00  0.00     0.051 A 
HETATM    2  C   UNL     1       5.148   0.608   1.738  1.00  0.00     0.035 A 
HETATM    3  C   UNL     1       6.534   0.776   1.773  1.00  0.00     0.051 A 
HETATM    4  C   UNL     1       7.198   1.414   0.730  1.00  0.00     0.103 A 
HETATM    5  N   UNL     1       6.501   1.862  -0.337  1.00  0.00    -0.350 N 
ATOM      6  HN  UNL     1       6.975   2.331  -1.108  1.00  0.00     0.166 HD
HETATM    7  C   UNL     1       5.157   1.675  -0.362  1.00  0.00     0.119 A 
ENDROOT
BRANCH   1   8
HETATM    8  N   UNL     1       3.019   1.002   0.557  1.00  0.00    -0.308 N 
HETATM    9  C   UNL     1       2.159   0.797   1.613  1.00  0.00     0.320 C 
HETATM   10  O   UNL     1       2.472   0.664   2.790  1.00  0.00    -0.247 OA
HETATM   11  N   UNL     1       0.847   0.820   1.200  1.00  0.00    -0.342 N 
HETATM   12  H   UNL     1       0.659   0.453   0.280  1.00  0.00     0.164 HD
HETATM   13  H   UNL     1       2.595   1.377  -0.279  1.00  0.00     0.170 HD
BRANCH  11  14
HETATM   14  C   UNL     1      -0.206   0.695   2.183  1.00  0.00     0.129 C 
BRANCH  14  15
HETATM   15  C   UNL     1      -1.454   1.320   1.651  1.00  0.00     0.003 A 
HETATM   16  C   UNL     1      -1.488   2.794   1.323  1.00  0.00     0.007 A 
HETATM   17  C   UNL     1      -2.250   2.274   2.507  1.00  0.00     0.007 A 
ENDBRANCH  14  15
ENDBRANCH  11  14
ENDBRANCH   1   8
BRANCH   4  18
HETATM   18  N   UNL     1       8.566   1.587   0.733  1.00  0.00    -0.367 N 
HETATM   19  C   UNL     1       9.130   2.777   0.102  1.00  0.00     0.124 C 
HETATM   20  C   UNL     1      10.313   2.382  -0.781  1.00  0.00     0.020 C 
HETATM   21  C   UNL     1      11.321   1.519  -0.023  1.00  0.00     0.003 C 
HETATM   22  C   UNL     1      10.633   0.320   0.626  1.00  0.00     0.020 C 
HETATM   23  C   UNL     1       9.474   0.763   1.518  1.00  0.00     0.124 C 
ENDBRANCH   4  18
TORSDOF 4
