REMARK  6 active torsions:
REMARK  status: ('A' for Active; 'I' for Inactive)
REMARK    1  A    between atoms: C_2  and  C_3 
REMARK       I    between atoms: C_2  and  N_8 
REMARK    2  A    between atoms: C_10  and  S_12 
REMARK    3  A    between atoms: S_12  and  N_15 
REMARK    4  A    between atoms: N_15  and  C_16 
REMARK    5  A    between atoms: C_16  and  C_17 
REMARK    6  A    between atoms: C_17  and  C_18 
ROOT
HETATM    1  S   UNL     1       3.674  -3.457  -1.940  1.00  0.00     0.216 S 
HETATM    2  O   UNL     1       3.074  -2.338  -2.634  1.00  0.00    -0.211 OA
HETATM    3  O   UNL     1       4.928  -4.017  -2.400  1.00  0.00    -0.211 OA
ENDROOT
BRANCH   1   4
HETATM    4  C   UNL     1       3.879  -3.069  -0.208  1.00  0.00     0.160 C 
HETATM    5  C   UNL     1       2.595  -2.714   0.533  1.00  0.00     0.149 C 
HETATM    6  N   UNL     1       2.996  -1.332   0.414  1.00  0.00    -0.349 N 
HETATM    7  C   UNL     1       2.300  -0.159   0.303  1.00  0.00     0.224 C 
HETATM    8  C   UNL     1       4.366  -1.632   0.035  1.00  0.00     0.149 C 
HETATM    9  O   UNL     1       2.857   0.921   0.111  1.00  0.00    -0.273 OA
BRANCH   7  10
HETATM   10  C   UNL     1       0.790  -0.315   0.374  1.00  0.00     0.078 C 
HETATM   11  C   UNL     1       0.195  -0.609  -1.011  1.00  0.00     0.014 C 
HETATM   12  C   UNL     1      -1.161   0.095  -1.051  1.00  0.00     0.001 C 
HETATM   13  C   UNL     1      -1.359   0.698   0.332  1.00  0.00     0.001 C 
HETATM   14  C   UNL     1       0.055   0.938   0.834  1.00  0.00     0.014 C 
ENDBRANCH   7  10
ENDBRANCH   1   4
BRANCH   1  15
HETATM   15  N   UNL     1       2.503  -4.704  -2.050  1.00  0.00    -0.219 NA
HETATM   16  H   UNL     1       1.651  -4.429  -1.558  1.00  0.00     0.139 HD
BRANCH  15  17
HETATM   17  C   UNL     1       2.112  -5.084  -3.453  1.00  0.00     0.110 C 
BRANCH  17  18
HETATM   18  C   UNL     1       3.259  -5.686  -4.255  1.00  0.00     0.072 C 
BRANCH  18  19
HETATM   19  C   UNL     1       2.881  -6.000  -5.679  1.00  0.00     0.010 A 
HETATM   20  C   UNL     1       3.859  -5.922  -6.670  1.00  0.00     0.025 A 
HETATM   21  C   UNL     1       3.506  -6.185  -7.988  1.00  0.00     0.003 A 
HETATM   22  C   UNL     1       2.194  -6.534  -8.279  1.00  0.00     0.017 A 
HETATM   23  C   UNL     1       1.290  -6.614  -7.233  1.00  0.00     0.088 A 
HETATM   24  N   UNL     1       1.603  -6.362  -5.943  1.00  0.00    -0.369 N 
ATOM     25  HN  UNL     1       0.908  -6.441  -5.201  1.00  0.00     0.165 HD
ENDBRANCH  18  19
ENDBRANCH  17  18
ENDBRANCH  15  17
ENDBRANCH   1  15
TORSDOF 6
