REMARK  4 active torsions:
REMARK  status: ('A' for Active; 'I' for Inactive)
REMARK    1  A    between atoms: N_6  and  C_7 
REMARK    2  A    between atoms: C_7  and  C_8 
REMARK    3  A    between atoms: C_8  and  O_9 
REMARK    4  A    between atoms: C_8  and  C_10 
ROOT
HETATM    1  C   UNL     1       6.683   0.077   0.102  1.00  0.00     0.169 C 
ENDROOT
BRANCH   1   2
HETATM    2  N   UNL     1       5.227  -0.007   0.183  1.00  0.00    -0.307 N 
HETATM    3  C   UNL     1       4.473  -0.009  -0.959  1.00  0.00     0.186 A 
HETATM    4  N   UNL     1       3.183  -0.020  -0.996  1.00  0.00    -0.355 N 
HETATM    5  C   UNL     1       2.520  -0.032   0.205  1.00  0.00     0.017 A 
ATOM      6  HN  UNL     1       2.677  -0.020  -1.882  1.00  0.00     0.166 HD
HETATM    7  C   UNL     1       1.017   0.010   0.085  1.00  0.00     0.069 C 
HETATM    8  C   UNL     1       3.133  -0.081   1.403  1.00  0.00     0.028 A 
HETATM    9  C   UNL     1       4.621  -0.103   1.414  1.00  0.00     0.256 A 
HETATM   10  C   UNL     1       2.418  -0.102   2.718  1.00  0.00     0.056 C 
HETATM   11  O   UNL     1       5.250  -0.187   2.468  1.00  0.00    -0.267 OA
ENDBRANCH   1   2
BRANCH   1  12
HETATM   12  C   UNL     1       7.381  -1.301   0.046  1.00  0.00     0.172 C 
BRANCH  12  13
HETATM   13  O   UNL     1       6.974  -2.005  -1.133  1.00  0.00    -0.389 OA
HETATM   14  H   UNL     1       7.489  -1.657  -1.883  1.00  0.00     0.210 HD
ENDBRANCH  12  13
BRANCH  12  15
HETATM   15  C   UNL     1       8.891  -1.161   0.059  1.00  0.00     0.011 A 
HETATM   16  C   UNL     1       9.665  -1.723   1.086  1.00  0.00     0.013 A 
HETATM   17  C   UNL     1      11.054  -1.546   1.108  1.00  0.00     0.001 A 
HETATM   18  C   UNL     1      11.688  -0.808   0.107  1.00  0.00     0.003 A 
HETATM   19  C   UNL     1      10.936  -0.260  -0.927  1.00  0.00     0.043 A 
HETATM   20  C   UNL     1       9.558  -0.447  -0.946  1.00  0.00     0.125 A 
HETATM   21  F   UNL     1       8.855   0.062  -1.968  1.00  0.00    -0.205 F 
ENDBRANCH  12  15
ENDBRANCH   1  12
TORSDOF 4
