REMARK  5 active torsions:
REMARK  status: ('A' for Active; 'I' for Inactive)
REMARK    1  A    between atoms: C_2  and  C_4 
REMARK    2  A    between atoms: C_4  and  N_5 
REMARK    3  A    between atoms: C_4  and  C_9 
REMARK       I    between atoms: N_5  and  C_6 
REMARK       I    between atoms: C_9  and  N_11 
REMARK    4  A    between atoms: N_11  and  C_12 
REMARK    5  A    between atoms: C_15  and  N_19 
ROOT
HETATM    1  C   UNL     1       6.708  -1.335  -2.278  1.00  0.00     0.107 A 
HETATM    2  C   UNL     1       7.300  -1.702  -3.480  1.00  0.00     0.051 A 
HETATM    3  C   UNL     1       8.689  -1.882  -3.528  1.00  0.00     0.034 A 
HETATM    4  C   UNL     1       9.478  -1.736  -2.385  1.00  0.00     0.046 A 
HETATM    5  C   UNL     1       8.765  -1.375  -1.241  1.00  0.00     0.119 A 
HETATM    6  N   UNL     1       7.428  -1.167  -1.166  1.00  0.00    -0.350 N 
ATOM      7  HN  UNL     1       6.986  -0.891  -0.289  1.00  0.00     0.166 HD
ENDROOT
BRANCH   1   8
HETATM    8  N   UNL     1       5.322  -1.156  -2.251  1.00  0.00    -0.311 N 
HETATM    9  C   UNL     1       4.626  -0.495  -1.248  1.00  0.00     0.246 C 
HETATM   10  O   UNL     1       5.122   0.145  -0.324  1.00  0.00    -0.271 OA
HETATM   11  H   UNL     1       4.791  -1.473  -3.045  1.00  0.00     0.170 HD
BRANCH   9  12
HETATM   12  C   UNL     1       3.107  -0.384  -1.537  1.00  0.00     0.180 C 
BRANCH  12  13
HETATM   13  C   UNL     1       2.802   0.896  -2.359  1.00  0.00     0.009 C 
HETATM   14  C   UNL     1       3.433   0.921  -3.756  1.00  0.00     0.012 C 
HETATM   15  C   UNL     1       1.292   1.130  -2.476  1.00  0.00     0.012 C 
ENDBRANCH  12  13
BRANCH  12  16
HETATM   16  N   UNL     1       2.589  -1.601  -2.174  1.00  0.00    -0.348 N 
HETATM   17  C   UNL     1       2.200  -2.676  -1.401  1.00  0.00     0.214 C 
HETATM   18  O   UNL     1       2.291  -2.711  -0.178  1.00  0.00    -0.274 OA
HETATM   19  C   UNL     1       1.617  -3.813  -2.193  1.00  0.00     0.117 C 
HETATM   20  H   UNL     1       2.287  -1.571  -3.138  1.00  0.00     0.163 HD
ENDBRANCH  12  16
ENDBRANCH   9  12
ENDBRANCH   1   8
BRANCH   4  21
HETATM   21  N   UNL     1      10.840  -1.924  -2.390  1.00  0.00    -0.376 N 
HETATM   22  C   UNL     1      11.577  -2.430  -1.219  1.00  0.00     0.149 C 
HETATM   23  C   UNL     1      12.752  -1.495  -0.900  1.00  0.00     0.187 C 
HETATM   24  O   UNL     1      13.606  -1.319  -2.044  1.00  0.00    -0.388 OA
HETATM   25  C   UNL     1      12.863  -0.758  -3.140  1.00  0.00     0.187 C 
HETATM   26  C   UNL     1      11.690  -1.664  -3.560  1.00  0.00     0.149 C 
ENDBRANCH   4  21
TORSDOF 5
