REMARK  2 active torsions:
REMARK  status: ('A' for Active; 'I' for Inactive)
REMARK    1  A    between atoms: C_1  and  C_2 
REMARK    2  A    between atoms: C_2  and  O_10 
ROOT
HETATM    1  C   UNL     1      -0.919  -2.501  -0.012  1.00  0.00     0.129 C 
HETATM    2  N   UNL     1      -0.636  -4.850   0.013  1.00  0.00     0.086 N 
HETATM    3  C   UNL     1      -1.312  -2.992   1.383  1.00  0.00     0.076 C 
HETATM    4  C   UNL     1      -0.016  -3.630  -0.527  1.00  0.00     0.313 C 
HETATM    5  C   UNL     1      -1.106  -4.507   1.351  1.00  0.00     0.273 C 
HETATM    6  H   UNL     1       0.025  -5.624   0.033  1.00  0.00     0.316 HD
ENDROOT
BRANCH   1   7
HETATM    7  C   UNL     1      -0.280  -1.155  -0.041  1.00  0.00     0.063 A 
HETATM    8  N   UNL     1      -0.397  -0.341  -1.137  1.00  0.00    -0.302 N 
HETATM    9  N   UNL     1       0.203   0.852  -0.993  1.00  0.00    -0.312 N 
HETATM   10  H   UNL     1      -0.908  -0.538  -1.994  1.00  0.00     0.186 HD
HETATM   11  C   UNL     1       0.744   0.788   0.224  1.00  0.00     0.109 A 
ATOM     12  HN  UNL     1       0.237   1.625  -1.658  1.00  0.00     0.186 HD
HETATM   13  C   UNL     1       0.492  -0.444   0.855  1.00  0.00     0.048 A 
ENDBRANCH   1   7
BRANCH   1  14
HETATM   14  O   UNL     1      -2.076  -2.391  -0.851  1.00  0.00    -0.382 OA
HETATM   15  H   UNL     1      -2.798  -2.038  -0.306  1.00  0.00     0.211 HD
ENDBRANCH   1  14
TORSDOF 2
