REMARK  4 active torsions:
REMARK  status: ('A' for Active; 'I' for Inactive)
REMARK    1  A    between atoms: C_2  and  C_3 
REMARK    2  A    between atoms: C_6  and  N_7 
REMARK       I    between atoms: N_7  and  C_8 
REMARK       I    between atoms: C_8  and  N_10 
REMARK    3  A    between atoms: N_10  and  C_11 
REMARK    4  A    between atoms: C_15  and  C_17 
ROOT
HETATM    1  N   UNL     1       3.553  -5.022  -1.086  1.00  0.00    -0.289 N 
HETATM    2  C   UNL     1       2.818  -5.612  -0.089  1.00  0.00     0.322 C 
HETATM    3  O   UNL     1       2.733  -5.257   1.077  1.00  0.00    -0.247 OA
HETATM    4  N   UNL     1       2.155  -6.739  -0.546  1.00  0.00    -0.338 N 
HETATM    5  H   UNL     1       3.683  -5.480  -1.970  1.00  0.00     0.172 HD
HETATM    6  H   UNL     1       2.027  -6.824  -1.543  1.00  0.00     0.164 HD
ENDROOT
BRANCH   1   7
HETATM    7  C   UNL     1       4.300  -3.903  -0.847  1.00  0.00     0.152 A 
HETATM    8  S   UNL     1       5.368  -3.473  -2.106  1.00  0.00    -0.064 SA
HETATM    9  C   UNL     1       5.940  -2.169  -1.144  1.00  0.00     0.078 A 
HETATM   10  C   UNL     1       5.240  -2.122   0.049  1.00  0.00     0.017 A 
HETATM   11  N   UNL     1       4.306  -3.129   0.204  1.00  0.00    -0.340 N 
ATOM     12  HN  UNL     1       3.708  -3.250   1.021  1.00  0.00     0.168 HD
BRANCH  10  13
HETATM   13  C   UNL     1       5.385  -1.124   1.149  1.00  0.00     0.053 C 
HETATM   14  C   UNL     1       6.348  -1.586   2.230  1.00  0.00     0.011 C 
ENDBRANCH  10  13
ENDBRANCH   1   7
BRANCH   4  15
HETATM   15  C   UNL     1       1.241  -7.463   0.341  1.00  0.00     0.090 C 
HETATM   16  C   UNL     1       0.996  -8.885  -0.172  1.00  0.00     0.051 C 
HETATM   17  C   UNL     1       0.053  -8.897  -1.367  1.00  0.00     0.170 C 
HETATM   18  O   UNL     1      -1.158  -8.204  -1.073  1.00  0.00    -0.385 OA
HETATM   19  C   UNL     1      -0.935  -6.826  -0.753  1.00  0.00     0.127 C 
HETATM   20  C   UNL     1      -0.095  -6.730   0.520  1.00  0.00     0.057 C 
BRANCH  19  21
HETATM   21  C   UNL     1      -2.276  -6.168  -0.584  1.00  0.00     0.015 A 
HETATM   22  C   UNL     1      -3.219  -6.076  -1.759  1.00  0.00     0.007 A 
HETATM   23  C   UNL     1      -2.564  -4.833  -1.230  1.00  0.00     0.007 A 
ENDBRANCH  19  21
ENDBRANCH   4  15
TORSDOF 4
