REMARK  7 active torsions:
REMARK  status: ('A' for Active; 'I' for Inactive)
REMARK    1  A    between atoms: N_5  and  C_6 
REMARK    2  A    between atoms: C_6  and  C_7 
REMARK    3  A    between atoms: C_7  and  O_8 
REMARK    4  A    between atoms: C_7  and  C_9 
REMARK    5  A    between atoms: C_9  and  O_10 
REMARK    6  A    between atoms: O_10  and  C_11 
REMARK    7  A    between atoms: C_11  and  C_12 
ROOT
HETATM    1  C   UNL     1       6.559  -3.250  -4.540  1.00  0.00     0.070 C 
HETATM    2  C   UNL     1       6.930  -2.602  -3.223  1.00  0.00     0.029 A 
HETATM    3  N   UNL     1       6.045  -2.675  -2.283  1.00  0.00    -0.300 N 
ATOM      4  HN  UNL     1       5.138  -3.109  -2.455  1.00  0.00     0.187 HD
HETATM    5  N   UNL     1       6.349  -2.158  -1.052  1.00  0.00    -0.254 N 
HETATM    6  C   UNL     1       7.530  -1.476  -0.774  1.00  0.00     0.283 A 
HETATM    7  O   UNL     1       7.772  -0.955   0.313  1.00  0.00    -0.265 OA
HETATM    8  C   UNL     1       8.520  -1.405  -1.881  1.00  0.00     0.121 A 
HETATM    9  C   UNL     1       9.745  -0.737  -1.609  1.00  0.00     0.105 C 
HETATM   10  N   UNL     1      10.765  -0.203  -1.455  1.00  0.00    -0.191 NA
HETATM   11  C   UNL     1       8.257  -1.946  -3.086  1.00  0.00    -0.012 A 
HETATM   12  C   UNL     1       9.169  -1.931  -4.277  1.00  0.00     0.052 C 
ENDROOT
BRANCH   5  13
HETATM   13  C   UNL     1       5.307  -2.238  -0.021  1.00  0.00     0.186 C 
BRANCH  13  14
HETATM   14  C   UNL     1       4.445  -3.514  -0.083  1.00  0.00     0.162 C 
BRANCH  14  15
HETATM   15  O   UNL     1       3.719  -3.600  -1.314  1.00  0.00    -0.392 OA
HETATM   16  H   UNL     1       4.374  -3.358  -2.004  1.00  0.00     0.210 HD
ENDBRANCH  14  15
BRANCH  14  17
HETATM   17  C   UNL     1       5.276  -4.789   0.126  1.00  0.00     0.201 C 
BRANCH  17  18
HETATM   18  O   UNL     1       6.053  -4.763   1.320  1.00  0.00    -0.384 OA
BRANCH  18  19
HETATM   19  C   UNL     1       5.263  -4.786   2.510  1.00  0.00     0.209 C 
BRANCH  19  20
HETATM   20  C   UNL     1       6.158  -4.753   3.714  1.00  0.00     0.004 A 
HETATM   21  C   UNL     1       7.393  -4.087   3.702  1.00  0.00     0.012 A 
HETATM   22  C   UNL     1       8.189  -4.054   4.848  1.00  0.00     0.001 A 
HETATM   23  C   UNL     1       7.752  -4.668   6.022  1.00  0.00     0.003 A 
HETATM   24  C   UNL     1       6.510  -5.300   6.054  1.00  0.00     0.043 A 
HETATM   25  C   UNL     1       5.724  -5.330   4.908  1.00  0.00     0.124 A 
HETATM   26  F   UNL     1       4.522  -5.922   4.963  1.00  0.00    -0.205 F 
ENDBRANCH  19  20
ENDBRANCH  18  19
ENDBRANCH  17  18
ENDBRANCH  14  17
ENDBRANCH  13  14
ENDBRANCH   5  13
TORSDOF 7
