REMARK  5 active torsions:
REMARK  status: ('A' for Active; 'I' for Inactive)
REMARK    1  A    between atoms: O_1  and  C_2 
REMARK    2  A    between atoms: C_2  and  C_3 
REMARK    3  A    between atoms: C_2  and  C_11 
REMARK    4  A    between atoms: C_3  and  N_4 
REMARK    5  A    between atoms: N_4  and  C_5 
ROOT
HETATM    1  C   UNL     1       2.280  -0.184   0.115  1.00  0.00     0.179 C 
ENDROOT
BRANCH   1   2
HETATM    2  O   UNL     1       2.960  -0.307   1.374  1.00  0.00    -0.389 OA
HETATM    3  H   UNL     1       2.895   0.552   1.822  1.00  0.00     0.210 HD
ENDBRANCH   1   2
BRANCH   1   4
HETATM    4  C   UNL     1       2.994   0.900  -0.735  1.00  0.00     0.306 C 
BRANCH   4   5
HETATM    5  N   UNL     1       2.326   1.253  -1.991  1.00  0.00     0.091 N 
HETATM    6  H   UNL     1       1.373   1.584  -1.836  1.00  0.00     0.316 HD
BRANCH   5   7
HETATM    7  C   UNL     1       3.075   2.227  -2.808  1.00  0.00     0.229 C 
HETATM    8  C   UNL     1       3.248   3.609  -2.145  1.00  0.00     0.037 C 
HETATM    9  C   UNL     1       1.939   4.366  -1.917  1.00  0.00     0.012 C 
HETATM   10  C   UNL     1       1.197   4.667  -3.213  1.00  0.00     0.074 C 
HETATM   11  S   UNL     1       0.747   3.150  -4.100  1.00  0.00    -0.167 SA
HETATM   12  C   UNL     1       2.402   2.383  -4.190  1.00  0.00     0.109 C 
ENDBRANCH   5   7
ENDBRANCH   4   5
ENDBRANCH   1   4
BRANCH   1  13
HETATM   13  C   UNL     1       2.221  -1.549  -0.533  1.00  0.00    -0.025 A 
HETATM   14  C   UNL     1       1.111  -1.914  -1.304  1.00  0.00     0.027 A 
HETATM   15  C   UNL     1       1.071  -3.184  -1.863  1.00  0.00     0.088 A 
HETATM   16  N   UNL     1       2.049  -4.102  -1.718  1.00  0.00    -0.375 N 
HETATM   17  C   UNL     1       3.117  -3.730  -0.978  1.00  0.00     0.088 A 
ATOM     18  HN  UNL     1       1.986  -5.027  -2.144  1.00  0.00     0.164 HD
HETATM   19  C   UNL     1       3.251  -2.484  -0.384  1.00  0.00     0.027 A 
ENDBRANCH   1  13
TORSDOF 5
