REMARK  3 active torsions:
REMARK  status: ('A' for Active; 'I' for Inactive)
REMARK    1  A    between atoms: C_2  and  N_4 
REMARK    2  A    between atoms: C_7  and  N_8 
REMARK       I    between atoms: N_8  and  C_9 
REMARK       I    between atoms: C_9  and  N_11 
REMARK    3  A    between atoms: N_11  and  C_12 
ROOT
HETATM    1  N   UNL     1       5.918  -1.234   2.175  1.00  0.00    -0.330 N 
HETATM    2  C   UNL     1       6.758  -2.216   2.616  1.00  0.00     0.322 C 
HETATM    3  O   UNL     1       6.448  -2.999   3.506  1.00  0.00    -0.247 OA
HETATM    4  N   UNL     1       7.950  -2.232   1.933  1.00  0.00    -0.295 N 
HETATM    5  H   UNL     1       6.279  -0.544   1.529  1.00  0.00     0.165 HD
HETATM    6  H   UNL     1       8.367  -1.328   1.765  1.00  0.00     0.172 HD
ENDROOT
BRANCH   1   7
HETATM    7  C   UNL     1       4.705  -0.885   2.908  1.00  0.00     0.180 C 
HETATM    8  C   UNL     1       3.675  -2.003   3.032  1.00  0.00     0.055 C 
HETATM    9  C   UNL     1       2.811  -1.859   1.797  1.00  0.00     0.129 C 
HETATM   10  N   UNL     1       2.898  -0.463   1.435  1.00  0.00    -0.346 N 
HETATM   11  C   UNL     1       3.984   0.157   2.060  1.00  0.00     0.243 C 
HETATM   12  O   UNL     1       4.423   1.270   1.804  1.00  0.00    -0.271 OA
BRANCH  10  13
HETATM   13  C   UNL     1       2.393   0.040   0.155  1.00  0.00     0.079 C 
HETATM   14  C   UNL     1       3.436  -0.158  -0.953  1.00  0.00     0.032 C 
HETATM   15  C   UNL     1       1.067  -0.600  -0.251  1.00  0.00     0.032 C 
ENDBRANCH  10  13
ENDBRANCH   1   7
BRANCH   4  16
HETATM   16  C   UNL     1       8.902  -3.225   2.169  1.00  0.00     0.108 A 
HETATM   17  C   UNL     1       8.540  -4.568   2.272  1.00  0.00     0.052 A 
HETATM   18  C   UNL     1       9.520  -5.507   2.574  1.00  0.00     0.047 A 
HETATM   19  C   UNL     1      10.817  -5.068   2.781  1.00  0.00     0.131 A 
HETATM   20  F   UNL     1      11.777  -5.934   3.123  1.00  0.00    -0.205 F 
HETATM   21  C   UNL     1      11.098  -3.721   2.629  1.00  0.00     0.132 A 
HETATM   22  N   UNL     1      10.174  -2.789   2.289  1.00  0.00    -0.349 N 
ATOM     23  HN  UNL     1      10.426  -1.813   2.133  1.00  0.00     0.167 HD
ENDBRANCH   4  16
TORSDOF 3
