REMARK  7 active torsions:
REMARK  status: ('A' for Active; 'I' for Inactive)
REMARK    1  A    between atoms: C_2  and  N_3 
REMARK    2  A    between atoms: N_3  and  C_4 
REMARK    3  A    between atoms: C_4  and  C_5 
REMARK    4  A    between atoms: N_14  and  C_15 
REMARK    5  A    between atoms: C_15  and  C_16 
REMARK    6  A    between atoms: C_16  and  O_17 
REMARK    7  A    between atoms: O_17  and  C_18 
ROOT
HETATM    1  C   UNL     1       4.865   1.487   2.405  1.00  0.00     0.102 A 
HETATM    2  N   UNL     1       4.713   2.794   2.490  1.00  0.00    -0.343 N 
ATOM      3  HN  UNL     1       4.344   3.418   1.772  1.00  0.00     0.167 HD
HETATM    4  C   UNL     1       5.151   3.142   3.736  1.00  0.00     0.060 A 
HETATM    5  C   UNL     1       5.174   4.415   4.332  1.00  0.00     0.032 A 
HETATM    6  C   UNL     1       5.660   4.554   5.633  1.00  0.00     0.002 A 
HETATM    7  C   UNL     1       6.121   3.448   6.332  1.00  0.00     0.002 A 
HETATM    8  C   UNL     1       6.110   2.177   5.750  1.00  0.00     0.032 A 
HETATM    9  C   UNL     1       5.616   2.030   4.440  1.00  0.00     0.062 A 
HETATM   10  N   UNL     1       5.443   0.972   3.559  1.00  0.00    -0.331 N 
ENDROOT
BRANCH  10  11
HETATM   11  C   UNL     1       5.787  -0.440   3.721  1.00  0.00     0.157 C 
BRANCH  11  12
HETATM   12  C   UNL     1       6.402  -0.809   5.062  1.00  0.00     0.196 C 
BRANCH  12  13
HETATM   13  O   UNL     1       6.712  -2.195   5.193  1.00  0.00    -0.350 OA
BRANCH  13  14
HETATM   14  C   UNL     1       7.283  -2.523   6.405  1.00  0.00     0.068 A 
HETATM   15  C   UNL     1       7.547  -1.630   7.453  1.00  0.00     0.037 A 
HETATM   16  C   UNL     1       8.140  -2.069   8.638  1.00  0.00     0.003 A 
HETATM   17  C   UNL     1       8.473  -3.409   8.791  1.00  0.00     0.000 A 
HETATM   18  C   UNL     1       8.210  -4.306   7.757  1.00  0.00     0.003 A 
HETATM   19  C   UNL     1       7.617  -3.866   6.570  1.00  0.00     0.037 A 
ENDBRANCH  13  14
ENDBRANCH  12  13
ENDBRANCH  11  12
ENDBRANCH  10  11
BRANCH   1  20
HETATM   20  C   UNL     1       4.497   0.677   1.209  1.00  0.00     0.198 C 
BRANCH  20  21
HETATM   21  N   UNL     1       5.628   0.674   0.311  1.00  0.00    -0.361 N 
HETATM   22  H   UNL     1       6.005   1.572   0.034  1.00  0.00     0.162 HD
BRANCH  21  23
HETATM   23  C   UNL     1       6.165  -0.479  -0.183  1.00  0.00     0.348 C 
HETATM   24  O   UNL     1       5.795  -1.609   0.097  1.00  0.00    -0.284 OA
ENDBRANCH  21  23
ENDBRANCH  20  21
ENDBRANCH   1  20
TORSDOF 7
