REMARK  5 active torsions:
REMARK  status: ('A' for Active; 'I' for Inactive)
REMARK    1  A    between atoms: N_1  and  C_3 
REMARK    2  A    between atoms: N_4  and  C_11 
REMARK    3  A    between atoms: C_8  and  C_16 
REMARK    4  A    between atoms: C_10  and  C_11 
REMARK    5  A    between atoms: C_10  and  O_25 
REMARK       I    between atoms: C_16  and  N_26 
ROOT
HETATM    1  C   UNL     1      -2.825  -1.677  -1.363  1.00  0.00     0.122 A 
HETATM    2  C   UNL     1      -1.591  -1.848  -0.681  1.00  0.00     0.136 A 
HETATM    3  N   UNL     1      -4.567  -2.388  -2.486  1.00  0.00    -0.324 N 
HETATM    4  C   UNL     1      -3.489  -2.828  -1.766  1.00  0.00     0.140 A 
HETATM    5  N   UNL     1      -3.541  -0.553  -1.764  1.00  0.00    -0.346 N 
ATOM      6  HN  UNL     1      -3.313   0.424  -1.583  1.00  0.00     0.167 HD
HETATM    7  C   UNL     1      -4.576  -1.023  -2.428  1.00  0.00     0.185 A 
HETATM    8  N   UNL     1      -1.204  -3.137  -0.445  1.00  0.00    -0.337 N 
ATOM      9  HN  UNL     1      -0.327  -3.326   0.041  1.00  0.00     0.168 HD
HETATM   10  N   UNL     1      -3.138  -4.105  -1.544  1.00  0.00    -0.336 N 
ATOM     11  HN  UNL     1      -3.671  -4.918  -1.854  1.00  0.00     0.168 HD
HETATM   12  C   UNL     1      -1.983  -4.160  -0.855  1.00  0.00     0.183 A 
ENDROOT
BRANCH   2  13
HETATM   13  N   UNL     1      -0.783  -0.832  -0.239  1.00  0.00    -0.349 N 
HETATM   14  C   UNL     1      -1.008   0.600  -0.438  1.00  0.00     0.180 C 
HETATM   15  C   UNL     1       0.080   1.290   0.408  1.00  0.00     0.073 C 
HETATM   16  C   UNL     1       0.892   0.168   1.034  1.00  0.00     0.190 C 
HETATM   17  C   UNL     1       0.575  -1.079   0.215  1.00  0.00     0.162 C 
HETATM   18  F   UNL     1       0.451  -0.013   2.314  1.00  0.00    -0.248 F 
BRANCH  14  19
HETATM   19  C   UNL     1      -0.801   1.013  -1.910  1.00  0.00     0.238 C 
HETATM   20  O   UNL     1       0.263   0.906  -2.516  1.00  0.00    -0.271 OA
HETATM   21  N   UNL     1      -1.895   1.558  -2.524  1.00  0.00    -0.368 N 
HETATM   22  H   UNL     1      -1.787   1.703  -3.518  1.00  0.00     0.159 HD
HETATM   23  H   UNL     1      -2.792   1.163  -2.239  1.00  0.00     0.159 HD
ENDBRANCH  14  19
ENDBRANCH   2  13
BRANCH   3  24
HETATM   24  C   UNL     1      -5.420  -3.217  -3.316  1.00  0.00     0.172 C 
BRANCH  24  25
HETATM   25  C   UNL     1      -6.684  -3.738  -2.622  1.00  0.00     0.102 C 
HETATM   26  C   UNL     1      -7.557  -4.590  -3.573  1.00  0.00     0.153 C 
HETATM   27  O   UNL     1      -8.924  -4.449  -3.129  1.00  0.00    -0.383 OA
HETATM   28  C   UNL     1      -7.221  -6.071  -3.632  1.00  0.00     0.042 C 
HETATM   29  C   UNL     1      -8.956  -3.453  -2.097  1.00  0.00     0.171 C 
HETATM   30  C   UNL     1      -7.678  -2.652  -2.246  1.00  0.00     0.068 C 
BRANCH  25  31
HETATM   31  O   UNL     1      -6.359  -4.459  -1.427  1.00  0.00    -0.385 OA
HETATM   32  H   UNL     1      -5.539  -4.970  -1.567  1.00  0.00     0.210 HD
ENDBRANCH  25  31
ENDBRANCH  24  25
ENDBRANCH   3  24
TORSDOF 5
