REMARK  5 active torsions:
REMARK  status: ('A' for Active; 'I' for Inactive)
REMARK    1  A    between atoms: N_2  and  C_3 
REMARK    2  A    between atoms: N_4  and  C_15 
REMARK    3  A    between atoms: C_9  and  C_22 
REMARK    4  A    between atoms: C_15  and  C_16 
REMARK    5  A    between atoms: C_16  and  O_24 
ROOT
HETATM    1  C   UNL     1       0.423  -0.724  -0.207  1.00  0.00     0.122 A 
HETATM    2  C   UNL     1      -0.759  -1.499  -0.072  1.00  0.00     0.136 C 
HETATM    3  N   UNL     1       1.553   1.155  -0.182  1.00  0.00    -0.324 N 
HETATM    4  C   UNL     1       0.280   0.659  -0.263  1.00  0.00     0.140 A 
HETATM    5  N   UNL     1       1.767  -1.050  -0.236  1.00  0.00    -0.346 N 
ATOM      6  HN  UNL     1       2.173  -1.985  -0.282  1.00  0.00     0.167 HD
HETATM    7  C   UNL     1       2.413   0.094  -0.192  1.00  0.00     0.185 A 
HETATM    8  N   UNL     1      -1.937  -0.803  -0.173  1.00  0.00    -0.337 N 
ATOM      9  HN  UNL     1      -2.827  -1.300  -0.134  1.00  0.00     0.168 HD
HETATM   10  N   UNL     1      -0.859   1.365  -0.331  1.00  0.00    -0.336 N 
ATOM     11  HN  UNL     1      -0.912   2.382  -0.381  1.00  0.00     0.168 HD
HETATM   12  C   UNL     1      -1.921   0.539  -0.324  1.00  0.00     0.183 C 
ENDROOT
BRANCH   2  13
HETATM   13  N   UNL     1      -0.826  -2.869   0.171  1.00  0.00    -0.350 N 
HETATM   14  C   UNL     1       0.391  -3.724   0.246  1.00  0.00     0.181 C 
HETATM   15  C   UNL     1      -0.008  -5.175  -0.175  1.00  0.00     0.241 C 
HETATM   16  O   UNL     1       0.717  -5.920  -0.833  1.00  0.00    -0.271 OA
HETATM   17  N   UNL     1      -1.177  -5.676   0.366  1.00  0.00    -0.358 N 
HETATM   18  C   UNL     1      -2.329  -4.804   0.484  1.00  0.00     0.142 C 
HETATM   19  H   UNL     1      -1.349  -6.630   0.076  1.00  0.00     0.162 HD
HETATM   20  C   UNL     1      -2.005  -3.360   0.894  1.00  0.00     0.145 C 
BRANCH  14  21
HETATM   21  C   UNL     1       1.015  -3.840   1.676  1.00  0.00     0.009 C 
HETATM   22  C   UNL     1       2.328  -4.643   1.621  1.00  0.00     0.012 C 
HETATM   23  C   UNL     1       1.303  -2.529   2.409  1.00  0.00     0.012 C 
ENDBRANCH  14  21
ENDBRANCH   2  13
BRANCH   3  24
HETATM   24  C   UNL     1       1.927   2.553  -0.138  1.00  0.00     0.171 C 
BRANCH  24  25
HETATM   25  C   UNL     1       1.954   3.173   1.271  1.00  0.00     0.097 C 
HETATM   26  C   UNL     1       2.379   4.632   1.240  1.00  0.00     0.068 C 
HETATM   27  C   UNL     1       2.961   4.863   2.623  1.00  0.00     0.170 C 
HETATM   28  O   UNL     1       3.398   3.598   3.129  1.00  0.00    -0.388 OA
HETATM   29  C   UNL     1       3.013   2.573   2.196  1.00  0.00     0.207 C 
BRANCH  25  30
HETATM   30  O   UNL     1       0.671   3.111   1.907  1.00  0.00    -0.386 OA
HETATM   31  H   UNL     1      -0.032   3.171   1.234  1.00  0.00     0.210 HD
ENDBRANCH  25  30
ENDBRANCH  24  25
ENDBRANCH   3  24
TORSDOF 5
