REMARK  4 active torsions:
REMARK  status: ('A' for Active; 'I' for Inactive)
REMARK    1  A    between atoms: O_2  and  C_3 
REMARK    2  A    between atoms: C_3  and  C_4 
REMARK    3  A    between atoms: C_4  and  N_5 
REMARK    4  A    between atoms: N_5  and  C_6 
ROOT
HETATM    1  N   UNL     1       2.526   0.388   3.066  1.00  0.00    -0.276 NA
HETATM    2  H   UNL     1       3.475   0.028   3.042  1.00  0.00     0.129 HD
ENDROOT
BRANCH   1   3
HETATM    3  C   UNL     1       2.332   1.509   2.135  1.00  0.00     0.132 C 
BRANCH   3   4
HETATM    4  C   UNL     1       2.775   1.158   0.680  1.00  0.00     0.076 C 
HETATM    5  C   UNL     1       2.567   2.392  -0.228  1.00  0.00     0.065 C 
HETATM    6  C   UNL     1       3.134   2.151  -1.621  1.00  0.00     0.170 C 
HETATM    7  O   UNL     1       4.524   1.837  -1.543  1.00  0.00    -0.391 OA
HETATM    8  C   UNL     1       4.753   0.639  -0.803  1.00  0.00     0.170 C 
HETATM    9  C   UNL     1       4.278   0.802   0.637  1.00  0.00     0.065 C 
BRANCH   4  10
HETATM   10  O   UNL     1       2.101  -0.001   0.143  1.00  0.00    -0.384 OA
HETATM   11  C   UNL     1       0.683   0.025   0.118  1.00  0.00     0.202 C 
ENDBRANCH   4  10
ENDBRANCH   3   4
ENDBRANCH   1   3
BRANCH   1  12
HETATM   12  C   UNL     1       2.203   0.682   4.404  1.00  0.00     0.080 A 
HETATM   13  C   UNL     1       2.441  -0.297   5.365  1.00  0.00     0.042 A 
HETATM   14  C   UNL     1       2.132  -0.042   6.697  1.00  0.00     0.005 A 
HETATM   15  C   UNL     1       1.574   1.185   7.038  1.00  0.00     0.024 A 
HETATM   16  C   UNL     1       1.343   2.108   6.029  1.00  0.00     0.006 A 
HETATM   17  C   UNL     1       0.711   3.435   6.328  1.00  0.00     0.068 C 
HETATM   18  N   UNL     1       1.646   1.866   4.729  1.00  0.00    -0.351 N 
ATOM     19  HN  UNL     1       1.456   2.566   4.012  1.00  0.00     0.167 HD
ENDBRANCH   1  12
TORSDOF 4
