REMARK  6 active torsions:
REMARK  status: ('A' for Active; 'I' for Inactive)
REMARK    1  A    between atoms: C_2  and  O_3 
REMARK    2  A    between atoms: O_3  and  C_4 
REMARK    3  A    between atoms: C_6  and  N_7 
REMARK    4  A    between atoms: N_7  and  C_8 
REMARK    5  A    between atoms: C_8  and  C_9 
REMARK    6  A    between atoms: C_9  and  C_10 
ROOT
HETATM    1  N   UNL     1       7.216  -1.315   1.022  1.00  0.00     0.089 N 
HETATM    2  H   UNL     1       7.699  -0.429   0.863  1.00  0.00     0.316 HD
ENDROOT
BRANCH   1   3
HETATM    3  C   UNL     1       6.059  -1.253   1.928  1.00  0.00     0.233 C 
HETATM    4  C   UNL     1       5.078  -0.188   1.381  1.00  0.00     0.069 C 
HETATM    5  C   UNL     1       5.704   0.852   2.335  1.00  0.00     0.133 C 
HETATM    6  C   UNL     1       6.290  -0.336   3.175  1.00  0.00     0.009 C 
HETATM    7  C   UNL     1       7.691  -0.031   3.706  1.00  0.00     0.020 C 
HETATM    8  C   UNL     1       5.398  -0.831   4.328  1.00  0.00     0.020 C 
BRANCH   5   9
HETATM    9  O   UNL     1       4.786   1.742   3.008  1.00  0.00    -0.385 OA
BRANCH   9  10
HETATM   10  C   UNL     1       5.390   2.709   3.865  1.00  0.00     0.163 C 
HETATM   11  C   UNL     1       4.310   3.553   4.507  1.00  0.00     0.033 C 
ENDBRANCH   9  10
ENDBRANCH   5   9
ENDBRANCH   1   3
BRANCH   1  12
HETATM   12  C   UNL     1       8.201  -2.327   1.437  1.00  0.00     0.275 C 
BRANCH  12  13
HETATM   13  C   UNL     1       7.677  -3.768   1.492  1.00  0.00     0.072 C 
BRANCH  13  14
HETATM   14  C   UNL     1       8.725  -4.726   1.958  1.00  0.00    -0.009 A 
HETATM   15  C   UNL     1       9.667  -5.431   1.163  1.00  0.00     0.030 A 
HETATM   16  C   UNL     1       9.858  -5.386  -0.307  1.00  0.00     0.070 C 
HETATM   17  N   UNL     1      10.448  -6.219   1.907  1.00  0.00    -0.303 N 
HETATM   18  N   UNL     1      10.013  -6.032   3.166  1.00  0.00    -0.300 N 
ATOM     19  HN  UNL     1      11.204  -6.826   1.591  1.00  0.00     0.186 HD
HETATM   20  C   UNL     1      10.623  -6.784   4.237  1.00  0.00     0.177 C 
HETATM   21  C   UNL     1       8.998  -5.117   3.262  1.00  0.00     0.032 A 
HETATM   22  C   UNL     1       8.375  -4.692   4.543  1.00  0.00     0.070 C 
ENDBRANCH  13  14
ENDBRANCH  12  13
ENDBRANCH   1  12
TORSDOF 6
