REMARK  6 active torsions:
REMARK  status: ('A' for Active; 'I' for Inactive)
REMARK    1  A    between atoms: C_2  and  C_3 
REMARK       I    between atoms: C_2  and  N_19 
REMARK    2  A    between atoms: C_3  and  N_4 
REMARK    3  A    between atoms: C_7  and  C_8 
REMARK    4  A    between atoms: C_8  and  N_9 
REMARK    5  A    between atoms: N_13  and  C_14 
REMARK    6  A    between atoms: N_19  and  C_20 
ROOT
HETATM    1  N   UNL     1      -0.123   0.640   1.110  1.00  0.00    -0.256 N 
HETATM    2  C   UNL     1       0.258   1.520   2.114  1.00  0.00     0.273 C 
HETATM    3  O   UNL     1       1.255   2.236   2.048  1.00  0.00    -0.266 OA
HETATM    4  C   UNL     1      -0.634   1.588   3.292  1.00  0.00     0.110 C 
HETATM    5  C   UNL     1      -1.879   1.111   3.168  1.00  0.00     0.123 C 
HETATM    6  N   UNL     1      -2.314   0.528   1.996  1.00  0.00    -0.303 N 
HETATM    7  C   UNL     1      -1.451   0.264   0.925  1.00  0.00     0.332 C 
HETATM    8  O   UNL     1      -1.857  -0.225  -0.130  1.00  0.00    -0.246 OA
ENDROOT
BRANCH   1   9
HETATM    9  C   UNL     1       0.737   0.524  -0.060  1.00  0.00     0.239 C 
BRANCH   9  10
HETATM   10  C   UNL     1       2.161   0.065   0.266  1.00  0.00     0.236 C 
HETATM   11  O   UNL     1       2.455  -1.100   0.508  1.00  0.00    -0.272 OA
HETATM   12  N   UNL     1       3.043   1.128   0.315  1.00  0.00    -0.355 N 
HETATM   13  H   UNL     1       2.599   1.958   0.717  1.00  0.00     0.162 HD
BRANCH  12  14
HETATM   14  C   UNL     1       4.468   0.999   0.643  1.00  0.00     0.084 C 
HETATM   15  C   UNL     1       5.016   2.425   0.831  1.00  0.00     0.025 C 
HETATM   16  C   UNL     1       6.457   2.585   1.305  1.00  0.00     0.002 C 
HETATM   17  C   UNL     1       6.840   1.683   2.475  1.00  0.00     0.000 C 
HETATM   18  C   UNL     1       7.667   0.454   2.091  1.00  0.00     0.000 C 
HETATM   19  C   UNL     1       6.989  -0.609   1.224  1.00  0.00     0.000 C 
HETATM   20  C   UNL     1       6.664  -0.161  -0.201  1.00  0.00     0.002 C 
HETATM   21  C   UNL     1       5.199   0.209  -0.454  1.00  0.00     0.025 C 
ENDBRANCH  12  14
ENDBRANCH   9  10
ENDBRANCH   1   9
BRANCH   4  22
HETATM   22  C   UNL     1      -0.132   2.216   4.581  1.00  0.00    -0.030 C 
BRANCH  22  23
HETATM   23  N   UNL     1       0.285   2.737   5.651  1.00  0.00    -0.365 N 
ATOM     24  HN2 UNL     1      -0.040   2.304   4.787  1.00  0.00     0.165 HD
ATOM     25  HN1 UNL     1       0.622   3.159   6.516  1.00  0.00     0.165 HD
ENDBRANCH  22  23
ENDBRANCH   4  22
BRANCH   6  26
HETATM   26  C   UNL     1      -3.702   0.131   1.832  1.00  0.00     0.094 A 
HETATM   27  C   UNL     1      -4.645   1.122   1.178  1.00  0.00     0.028 A 
HETATM   28  C   UNL     1      -4.921   0.624   2.562  1.00  0.00     0.028 A 
ENDBRANCH   6  26
TORSDOF 6
