REMARK  6 active torsions:
REMARK  status: ('A' for Active; 'I' for Inactive)
REMARK    1  A    between atoms: S_2  and  C_5 
REMARK    2  A    between atoms: C_5  and  C_6 
REMARK    3  A    between atoms: C_6  and  N_7 
REMARK    4  A    between atoms: C_11  and  C_12 
REMARK    5  A    between atoms: C_12  and  N_13 
REMARK    6  A    between atoms: N_13  and  C_14 
ROOT
HETATM    1  N   UNL     1       5.712   2.713   0.307  1.00  0.00     0.093 N 
HETATM    2  C   UNL     1       5.551   3.780  -0.726  1.00  0.00     0.298 C 
HETATM    3  C   UNL     1       5.516   3.321  -2.211  1.00  0.00     0.198 C 
HETATM    4  O   UNL     1       6.496   2.313  -2.531  1.00  0.00    -0.381 OA
HETATM    5  C   UNL     1       6.377   1.240  -1.583  1.00  0.00     0.163 C 
HETATM    6  C   UNL     1       6.752   1.782  -0.194  1.00  0.00     0.305 C 
ENDROOT
BRANCH   5   7
HETATM    7  C   UNL     1       7.170  -0.002  -1.970  1.00  0.00     0.127 C 
BRANCH   7   8
HETATM    8  N   UNL     1       8.616   0.209  -1.981  1.00  0.00    -0.275 NA
HETATM    9  H   UNL     1       8.877   0.892  -2.691  1.00  0.00     0.129 HD
BRANCH   8  10
HETATM   10  C   UNL     1       9.295  -1.009  -2.218  1.00  0.00     0.094 A 
HETATM   11  C   UNL     1      10.676  -0.991  -2.329  1.00  0.00     0.045 A 
HETATM   12  C   UNL     1      11.356  -2.191  -2.511  1.00  0.00     0.022 A 
HETATM   13  C   UNL     1      10.623  -3.360  -2.570  1.00  0.00     0.107 A 
HETATM   14  N   UNL     1       9.286  -3.371  -2.453  1.00  0.00    -0.311 N 
HETATM   15  N   UNL     1       8.630  -2.188  -2.267  1.00  0.00    -0.290 N 
ATOM     16  HN  UNL     1       8.768  -4.249  -2.502  1.00  0.00     0.186 HD
ATOM     17  HN  UNL     1       7.615  -2.192  -2.163  1.00  0.00     0.188 HD
ENDBRANCH   8  10
ENDBRANCH   7   8
ENDBRANCH   5   7
BRANCH   1  18
HETATM   18  C   UNL     1       4.422   2.041   0.593  1.00  0.00     0.287 C 
BRANCH  18  19
HETATM   19  C   UNL     1       4.485   0.900   1.621  1.00  0.00     0.170 C 
BRANCH  19  20
HETATM   20  S   UNL     1       2.886   0.098   1.696  1.00  0.00     0.142 S 
HETATM   21  C   UNL     1       3.058  -1.157   2.947  1.00  0.00     0.161 C 
HETATM   22  O   UNL     1       2.680  -0.581   0.434  1.00  0.00    -0.228 OA
HETATM   23  O   UNL     1       1.926   1.065   2.189  1.00  0.00    -0.228 OA
ENDBRANCH  19  20
ENDBRANCH  18  19
ENDBRANCH   1  18
TORSDOF 6
