REMARK  4 active torsions:
REMARK  status: ('A' for Active; 'I' for Inactive)
REMARK    1  A    between atoms: C_2  and  C_3 
REMARK    2  A    between atoms: C_2  and  N_6 
REMARK    3  A    between atoms: C_3  and  O_5 
REMARK    4  A    between atoms: C_10  and  O_11 
ROOT
HETATM    1  N   UNL     1       2.940  -1.193   0.624  1.00  0.00    -0.304 N 
HETATM    2  C   UNL     1       2.568  -2.435   0.073  1.00  0.00     0.014 C 
HETATM    3  C   UNL     1       1.794  -2.542  -1.215  1.00  0.00     0.068 C 
HETATM    4  C   UNL     1       2.941  -3.576   0.685  1.00  0.00     0.061 C 
HETATM    5  C   UNL     1       3.740  -3.549   1.878  1.00  0.00     0.072 C 
HETATM    6  C   UNL     1       4.230  -2.403   2.344  1.00  0.00     0.111 C 
HETATM    7  C   UNL     1       3.876  -1.130   1.678  1.00  0.00     0.251 C 
HETATM    8  O   UNL     1       4.387  -0.091   2.088  1.00  0.00    -0.268 OA
ENDROOT
BRANCH   1   9
HETATM    9  C   UNL     1       2.581   0.124   0.033  1.00  0.00     0.186 C 
HETATM   10  C   UNL     1       3.591   0.577  -1.020  1.00  0.00     0.044 C 
BRANCH   9  11
HETATM   11  C   UNL     1       1.124   0.340  -0.417  1.00  0.00     0.163 C 
HETATM   12  O   UNL     1       0.765   1.153  -1.254  1.00  0.00    -0.648 OA
BRANCH  11  13
HETATM   13  O   UNL     1       0.224  -0.383   0.297  1.00  0.00    -0.775 OA
HETATM   14  H   UNL     1       0.664  -0.935   0.975  1.00  0.00     0.167 HD
ENDBRANCH  11  13
ENDBRANCH   9  11
ENDBRANCH   1   9
BRANCH   5  15
HETATM   15  O   UNL     1       4.010  -4.742   2.505  1.00  0.00    -0.360 OA
HETATM   16  H   UNL     1       3.507  -5.458   2.081  1.00  0.00     0.217 HD
ENDBRANCH   5  15
TORSDOF 4
