REMARK  5 active torsions:
REMARK  status: ('A' for Active; 'I' for Inactive)
REMARK    1  A    between atoms: O_1  and  C_2 
REMARK    2  A    between atoms: C_2  and  C_4 
REMARK    3  A    between atoms: C_4  and  N_10 
REMARK       I    between atoms: N_10  and  C_11 
REMARK    4  A    between atoms: C_11  and  C_13 
REMARK    5  A    between atoms: C_13  and  N_14 
ROOT
HETATM    1  N   UNL     1       2.972  -0.600   2.506  1.00  0.00    -0.341 N 
HETATM    2  C   UNL     1       3.332   0.563   3.147  1.00  0.00     0.238 C 
HETATM    3  O   UNL     1       3.866   1.493   2.539  1.00  0.00    -0.272 OA
HETATM    4  H   UNL     1       2.301  -1.190   2.996  1.00  0.00     0.163 HD
ENDROOT
BRANCH   1   5
HETATM    5  C   UNL     1       3.152  -0.871   1.049  1.00  0.00     0.118 C 
HETATM    6  C   UNL     1       4.632  -0.713   0.618  1.00  0.00     0.042 C 
HETATM    7  C   UNL     1       4.910  -1.218  -0.799  1.00  0.00     0.003 C 
HETATM    8  C   UNL     1       4.487  -2.669  -0.976  1.00  0.00     0.000 C 
HETATM    9  C   UNL     1       3.026  -2.868  -0.602  1.00  0.00     0.003 C 
HETATM   10  C   UNL     1       2.719  -2.344   0.803  1.00  0.00     0.042 C 
BRANCH   5  11
HETATM   11  C   UNL     1       2.228   0.088   0.233  1.00  0.00     0.169 C 
HETATM   12  O   UNL     1       1.332  -0.282  -0.516  1.00  0.00    -0.648 OA
BRANCH  11  13
HETATM   13  O   UNL     1       2.496   1.406   0.382  1.00  0.00    -0.775 OA
HETATM   14  H   UNL     1       3.192   1.595   1.058  1.00  0.00     0.167 HD
ENDBRANCH  11  13
ENDBRANCH   5  11
ENDBRANCH   1   5
BRANCH   2  15
HETATM   15  C   UNL     1       3.002   0.644   4.618  1.00  0.00     0.250 C 
BRANCH  15  16
HETATM   16  N   UNL     1       1.651   1.120   4.825  1.00  0.00    -0.295 N 
HETATM   17  C   UNL     1       1.251   2.417   4.982  1.00  0.00     0.112 A 
HETATM   18  C   UNL     1      -0.098   2.370   5.246  1.00  0.00     0.037 A 
HETATM   19  C   UNL     1      -0.419   0.998   5.222  1.00  0.00     0.108 A 
HETATM   20  N   UNL     1       0.644   0.232   4.961  1.00  0.00    -0.310 N 
ATOM     21  HN  UNL     1       0.685  -0.784   4.883  1.00  0.00     0.186 HD
ENDBRANCH  15  16
ENDBRANCH   2  15
TORSDOF 5
