REMARK  3 active torsions:
REMARK  status: ('A' for Active; 'I' for Inactive)
REMARK    1  A    between atoms: C_2  and  C_3 
REMARK       I    between atoms: C_2  and  N_13 
REMARK    2  A    between atoms: C_3  and  N_4 
REMARK    3  A    between atoms: N_13  and  C_14 
ROOT
HETATM    1  N   UNL     1       0.095   0.347   1.272  1.00  0.00    -0.277 N 
HETATM    2  C   UNL     1      -0.257   1.663   1.229  1.00  0.00     0.203 A 
HETATM    3  N   UNL     1      -0.820   2.004   2.366  1.00  0.00    -0.327 N 
ATOM      4  HN  UNL     1      -1.193   2.912   2.642  1.00  0.00     0.169 HD
HETATM    5  C   UNL     1      -0.783   0.840   3.090  1.00  0.00     0.204 A 
HETATM    6  C   UNL     1      -1.238   0.755   4.449  1.00  0.00     0.138 C 
HETATM    7  N   UNL     1      -1.596   0.685   5.553  1.00  0.00    -0.188 NA
HETATM    8  N   UNL     1      -0.256  -0.214   2.448  1.00  0.00    -0.273 N 
ATOM      9  HN  UNL     1      -0.150  -1.178   2.764  1.00  0.00     0.189 HD
ENDROOT
BRANCH   1  10
HETATM   10  C   UNL     1       0.775  -0.424   0.262  1.00  0.00     0.252 C 
BRANCH  10  11
HETATM   11  C   UNL     1       2.245  -0.073   0.238  1.00  0.00     0.238 C 
HETATM   12  O   UNL     1       2.628   1.067  -0.015  1.00  0.00    -0.272 OA
HETATM   13  N   UNL     1       3.103  -1.119   0.500  1.00  0.00    -0.347 N 
HETATM   14  H   UNL     1       2.733  -1.909   1.028  1.00  0.00     0.163 HD
BRANCH  13  15
HETATM   15  C   UNL     1       4.554  -0.922   0.668  1.00  0.00     0.170 C 
HETATM   16  C   UNL     1       5.231  -0.497  -0.637  1.00  0.00     0.034 C 
HETATM   17  C   UNL     1       6.701  -0.145  -0.425  1.00  0.00     0.004 C 
HETATM   18  C   UNL     1       7.633  -1.339  -0.569  1.00  0.00     0.015 C 
HETATM   19  C   UNL     1       7.103  -2.648  -0.007  1.00  0.00     0.095 C 
HETATM   20  N   UNL     1       6.416  -2.539   1.263  1.00  0.00    -0.261 NA
HETATM   21  C   UNL     1       5.084  -2.221   1.320  1.00  0.00     0.220 C 
HETATM   22  H   UNL     1       6.579  -3.339   1.866  1.00  0.00     0.130 HD
HETATM   23  O   UNL     1       4.342  -2.934   2.005  1.00  0.00    -0.278 OA
ENDBRANCH  13  15
ENDBRANCH  10  11
ENDBRANCH   1  10
TORSDOF 3
