REMARK  3 active torsions:
REMARK  status: ('A' for Active; 'I' for Inactive)
REMARK       I    between atoms: N_6  and  C_9 
REMARK       I    between atoms: C_9  and  N_11 
REMARK    1  A    between atoms: N_11  and  C_12 
REMARK    2  A    between atoms: C_12  and  C_13 
REMARK    3  A    between atoms: C_13  and  C_14 
ROOT
HETATM    1  C   UNL     1       1.070   0.436  -0.189  1.00  0.00     0.309 C 
HETATM    2  N   UNL     1       2.531   0.329  -0.126  1.00  0.00     0.085 N 
HETATM    3  C   UNL     1       3.149   1.448  -0.857  1.00  0.00     0.273 C 
HETATM    4  C   UNL     1       4.628   1.614  -0.503  1.00  0.00     0.050 C 
HETATM    5  C   UNL     1       5.568   0.821  -1.408  1.00  0.00     0.129 C 
HETATM    6  N   UNL     1       5.155  -0.553  -1.686  1.00  0.00    -0.333 N 
HETATM    7  C   UNL     1       4.464  -1.269  -0.613  1.00  0.00     0.157 C 
HETATM    8  C   UNL     1       2.946  -1.000  -0.625  1.00  0.00     0.291 C 
HETATM    9  C   UNL     1       5.157  -1.154  -2.936  1.00  0.00     0.318 C 
HETATM   10  O   UNL     1       4.628  -2.242  -3.152  1.00  0.00    -0.247 OA
HETATM   11  N   UNL     1       5.765  -0.441  -3.936  1.00  0.00    -0.343 N 
HETATM   12  H   UNL     1       6.551   0.122  -3.651  1.00  0.00     0.164 HD
ENDROOT
BRANCH  11  13
HETATM   13  C   UNL     1       5.792  -0.978  -5.286  1.00  0.00     0.129 C 
BRANCH  13  14
HETATM   14  C   UNL     1       6.329   0.009  -6.324  1.00  0.00     0.061 C 
BRANCH  14  15
HETATM   15  C   UNL     1       5.508   1.246  -6.461  1.00  0.00    -0.023 A 
HETATM   16  C   UNL     1       5.924   2.584  -6.267  1.00  0.00     0.115 A 
HETATM   17  N   UNL     1       4.938   3.463  -6.452  1.00  0.00    -0.310 N 
HETATM   18  N   UNL     1       3.884   2.693  -6.774  1.00  0.00    -0.308 N 
ATOM     19  HN  UNL     1       4.975   4.479  -6.369  1.00  0.00     0.186 HD
HETATM   20  C   UNL     1       2.595   3.291  -7.022  1.00  0.00     0.177 C 
HETATM   21  C   UNL     1       4.179   1.362  -6.812  1.00  0.00     0.118 A 
ENDBRANCH  14  15
ENDBRANCH  13  14
ENDBRANCH  11  13
TORSDOF 3
