REMARK  5 active torsions:
REMARK  status: ('A' for Active; 'I' for Inactive)
REMARK    1  A    between atoms: C_2  and  N_4 
REMARK    2  A    between atoms: N_3  and  C_15 
REMARK    3  A    between atoms: C_9  and  C_14 
REMARK       I    between atoms: C_14  and  N_20 
REMARK    4  A    between atoms: C_15  and  C_17 
REMARK    5  A    between atoms: C_17  and  O_24 
ROOT
HETATM    1  C   UNL     1       0.418  -0.814   0.018  1.00  0.00     0.117 A 
HETATM    2  C   UNL     1      -0.724  -1.650   0.027  1.00  0.00     0.115 A 
HETATM    3  N   UNL     1       1.439   1.119  -0.027  1.00  0.00    -0.324 N 
HETATM    4  C   UNL     1       0.198   0.555  -0.051  1.00  0.00     0.140 A 
HETATM    5  N   UNL     1       1.777  -1.074   0.059  1.00  0.00    -0.346 N 
ATOM      6  HN  UNL     1       2.232  -1.987   0.089  1.00  0.00     0.167 HD
HETATM    7  C   UNL     1       2.357   0.106   0.051  1.00  0.00     0.185 A 
HETATM    8  N   UNL     1      -1.935  -1.034  -0.068  1.00  0.00    -0.341 N 
ATOM      9  HN  UNL     1      -2.791  -1.588  -0.094  1.00  0.00     0.167 HD
HETATM   10  N   UNL     1      -0.979   1.193  -0.124  1.00  0.00    -0.336 N 
ATOM     11  HN  UNL     1      -1.088   2.206  -0.170  1.00  0.00     0.168 HD
HETATM   12  C   UNL     1      -1.997   0.314  -0.128  1.00  0.00     0.183 A 
ENDROOT
BRANCH   2  13
HETATM   13  N   UNL     1      -0.658  -3.041   0.071  1.00  0.00    -0.254 NA
HETATM   14  C   UNL     1      -1.940  -3.791   0.094  1.00  0.00     0.156 C 
HETATM   15  C   UNL     1      -1.535  -5.185   0.612  1.00  0.00     0.031 C 
HETATM   16  C   UNL     1      -0.044  -5.094   0.934  1.00  0.00     0.017 C 
HETATM   17  C   UNL     1       0.210  -3.603   1.101  1.00  0.00     0.098 C 
BRANCH  14  18
HETATM   18  C   UNL     1      -2.592  -3.879  -1.294  1.00  0.00     0.235 C 
HETATM   19  O   UNL     1      -3.806  -4.026  -1.437  1.00  0.00    -0.272 OA
HETATM   20  N   UNL     1      -1.701  -3.876  -2.346  1.00  0.00    -0.364 N 
HETATM   21  C   UNL     1      -2.123  -3.819  -3.720  1.00  0.00     0.149 C 
HETATM   22  H   UNL     1      -0.736  -3.671  -2.100  1.00  0.00     0.161 HD
ENDBRANCH  14  18
ENDBRANCH   2  13
BRANCH   3  23
HETATM   23  C   UNL     1       1.723   2.537   0.069  1.00  0.00     0.169 C 
BRANCH  23  24
HETATM   24  C   UNL     1       2.108   3.240  -1.254  1.00  0.00     0.078 C 
HETATM   25  C   UNL     1       2.460   4.708  -0.946  1.00  0.00     0.066 C 
HETATM   26  C   UNL     1       1.214   5.561  -0.770  1.00  0.00     0.170 C 
HETATM   27  O   UNL     1       0.434   5.515  -1.959  1.00  0.00    -0.391 OA
HETATM   28  C   UNL     1      -0.071   4.208  -2.222  1.00  0.00     0.170 C 
HETATM   29  C   UNL     1       1.054   3.189  -2.377  1.00  0.00     0.066 C 
BRANCH  24  30
HETATM   30  O   UNL     1       3.321   2.625  -1.729  1.00  0.00    -0.388 OA
HETATM   31  H   UNL     1       3.103   1.752  -2.103  1.00  0.00     0.210 HD
ENDBRANCH  24  30
ENDBRANCH  23  24
ENDBRANCH   3  23
TORSDOF 5
