REMARK  8 active torsions:
REMARK  status: ('A' for Active; 'I' for Inactive)
REMARK    1  A    between atoms: C_2  and  C_3 
REMARK    2  A    between atoms: C_2  and  N_11 
REMARK    3  A    between atoms: C_3  and  N_4 
REMARK    4  A    between atoms: N_11  and  C_12 
REMARK    5  A    between atoms: C_12  and  C_13 
REMARK       I    between atoms: C_13  and  N_15 
REMARK    6  A    between atoms: N_15  and  C_16 
REMARK    7  A    between atoms: C_16  and  C_21 
REMARK    8  A    between atoms: C_21  and  N_22 
ROOT
HETATM    1  C   UNL     1       4.505  -0.887  -1.166  1.00  0.00     0.372 C 
ENDROOT
BRANCH   1   2
HETATM    2  N   UNL     1       3.042  -0.993  -0.998  1.00  0.00     0.098 N 
HETATM    3  H   UNL     1       2.616  -0.639  -1.860  1.00  0.00     0.317 HD
BRANCH   2   4
HETATM    4  C   UNL     1       2.555  -0.153   0.125  1.00  0.00     0.236 C 
HETATM    5  C   UNL     1       1.026  -0.246   0.099  1.00  0.00     0.044 C 
BRANCH   4   6
HETATM    6  C   UNL     1       3.133  -0.603   1.478  1.00  0.00     0.183 C 
BRANCH   6   7
HETATM    7  N   UNL     1       2.649   0.153   2.612  1.00  0.00    -0.301 N 
HETATM    8  C   UNL     1       1.973  -0.347   3.688  1.00  0.00     0.118 A 
HETATM    9  C   UNL     1       1.814   0.704   4.566  1.00  0.00    -0.028 A 
HETATM   10  C   UNL     1       1.170   0.687   5.896  1.00  0.00     0.051 C 
HETATM   11  C   UNL     1       2.422   1.798   3.908  1.00  0.00     0.115 A 
HETATM   12  N   UNL     1       2.929   1.465   2.718  1.00  0.00    -0.310 N 
ATOM     13  HN  UNL     1       3.413   2.063   2.049  1.00  0.00     0.186 HD
ENDBRANCH   6   7
ENDBRANCH   4   6
ENDBRANCH   2   4
ENDBRANCH   1   2
BRANCH   1  14
HETATM   14  C   UNL     1       4.941  -1.684  -2.392  1.00  0.00     0.247 C 
HETATM   15  O   UNL     1       5.918  -1.362  -3.059  1.00  0.00    -0.272 OA
HETATM   16  N   UNL     1       4.170  -2.805  -2.651  1.00  0.00    -0.339 N 
HETATM   17  H   UNL     1       3.470  -3.044  -1.955  1.00  0.00     0.164 HD
BRANCH  16  18
HETATM   18  C   UNL     1       4.535  -3.733  -3.716  1.00  0.00     0.104 C 
HETATM   19  C   UNL     1       4.587  -2.995  -5.079  1.00  0.00     0.045 C 
HETATM   20  C   UNL     1       3.982  -3.925  -6.127  1.00  0.00     0.004 C 
HETATM   21  C   UNL     1       3.692  -5.228  -5.405  1.00  0.00     0.004 C 
HETATM   22  C   UNL     1       3.483  -4.822  -3.949  1.00  0.00     0.045 C 
BRANCH  18  23
HETATM   23  C   UNL     1       5.891  -4.341  -3.398  1.00  0.00    -0.046 C 
BRANCH  23  24
HETATM   24  N   UNL     1       7.016  -4.845  -3.134  1.00  0.00    -0.367 N 
ATOM     25  HN2 UNL     1       6.111  -4.422  -3.339  1.00  0.00     0.165 HD
ATOM     26  HN1 UNL     1       7.926  -5.253  -2.921  1.00  0.00     0.165 HD
ENDBRANCH  23  24
ENDBRANCH  18  23
ENDBRANCH  16  18
ENDBRANCH   1  14
TORSDOF 8
