REMARK  7 active torsions:
REMARK  status: ('A' for Active; 'I' for Inactive)
REMARK    1  A    between atoms: N_2  and  C_10 
REMARK    2  A    between atoms: N_6  and  C_7 
REMARK    3  A    between atoms: C_9  and  C_10 
REMARK    4  A    between atoms: C_9  and  O_27 
REMARK    5  A    between atoms: C_15  and  C_23 
REMARK       I    between atoms: C_15  and  N_21 
REMARK    6  A    between atoms: C_19  and  O_25 
REMARK    7  A    between atoms: C_23  and  O_25 
ROOT
HETATM    1  C   UNL     1       0.406  -0.848  -0.114  1.00  0.00     0.122 A 
HETATM    2  N   UNL     1       1.495   1.041  -0.113  1.00  0.00    -0.324 N 
HETATM    3  C   UNL     1       0.228   0.525  -0.171  1.00  0.00     0.140 A 
HETATM    4  N   UNL     1       1.746  -1.162  -0.030  1.00  0.00    -0.346 N 
ATOM      5  HN  UNL     1       2.164  -2.092   0.004  1.00  0.00     0.167 HD
HETATM    6  C   UNL     1      -0.755  -1.647  -0.156  1.00  0.00     0.135 A 
HETATM    7  C   UNL     1       2.370  -0.004  -0.003  1.00  0.00     0.185 A 
HETATM    8  N   UNL     1      -0.930   1.194  -0.262  1.00  0.00    -0.336 N 
ATOM      9  HN  UNL     1      -1.010   2.209  -0.323  1.00  0.00     0.168 HD
HETATM   10  N   UNL     1      -1.958  -1.010  -0.223  1.00  0.00    -0.337 N 
ATOM     11  HN  UNL     1      -2.828  -1.542  -0.243  1.00  0.00     0.168 HD
HETATM   12  C   UNL     1      -1.976   0.341  -0.262  1.00  0.00     0.183 A 
ENDROOT
BRANCH   6  13
HETATM   13  N   UNL     1      -0.697  -3.041  -0.105  1.00  0.00    -0.360 N 
HETATM   14  C   UNL     1       0.417  -3.867  -0.457  1.00  0.00     0.158 C 
HETATM   15  C   UNL     1      -0.557  -5.058  -0.448  1.00  0.00     0.158 C 
HETATM   16  C   UNL     1      -1.663  -3.983  -0.559  1.00  0.00     0.158 C 
BRANCH  15  17
HETATM   17  O   UNL     1      -0.547  -5.876   0.755  1.00  0.00    -0.373 OA
BRANCH  17  18
HETATM   18  C   UNL     1      -1.460  -6.960   0.760  1.00  0.00     0.271 C 
BRANCH  18  19
HETATM   19  C   UNL     1      -1.413  -7.836   2.019  1.00  0.00     0.242 C 
HETATM   20  N   UNL     1      -1.895  -7.318   3.216  1.00  0.00    -0.359 N 
HETATM   21  C   UNL     1      -1.943  -8.179   4.388  1.00  0.00     0.152 C 
HETATM   22  C   UNL     1      -2.377  -5.959   3.408  1.00  0.00     0.152 C 
HETATM   23  O   UNL     1      -1.006  -8.998   1.928  1.00  0.00    -0.271 OA
ENDBRANCH  18  19
ENDBRANCH  17  18
ENDBRANCH  15  17
ENDBRANCH   6  13
BRANCH   2  24
HETATM   24  C   UNL     1       1.860   2.442  -0.064  1.00  0.00     0.172 C 
BRANCH  24  25
HETATM   25  C   UNL     1       2.070   3.112  -1.432  1.00  0.00     0.102 C 
HETATM   26  C   UNL     1       3.162   2.495  -2.336  1.00  0.00     0.153 C 
HETATM   27  O   UNL     1       3.769   3.586  -3.072  1.00  0.00    -0.383 OA
HETATM   28  C   UNL     1       2.691   1.472  -3.357  1.00  0.00     0.042 C 
HETATM   29  C   UNL     1       3.181   4.813  -2.623  1.00  0.00     0.171 C 
HETATM   30  C   UNL     1       2.630   4.518  -1.247  1.00  0.00     0.068 C 
BRANCH  25  31
HETATM   31  O   UNL     1       0.819   3.267  -2.116  1.00  0.00    -0.385 OA
HETATM   32  H   UNL     1       0.352   2.410  -2.135  1.00  0.00     0.210 HD
ENDBRANCH  25  31
ENDBRANCH  24  25
ENDBRANCH   2  24
TORSDOF 7
