REMARK  4 active torsions:
REMARK  status: ('A' for Active; 'I' for Inactive)
REMARK    1  A    between atoms: N_5  and  C_6 
REMARK    2  A    between atoms: C_6  and  C_7 
REMARK    3  A    between atoms: C_7  and  N_8 
REMARK       I    between atoms: N_8  and  C_9 
REMARK       I    between atoms: C_9  and  N_11 
REMARK    4  A    between atoms: N_11  and  C_12 
ROOT
HETATM    1  N   UNL     1       6.584   0.155  -4.069  1.00  0.00    -0.341 N 
HETATM    2  C   UNL     1       7.142   0.973  -5.041  1.00  0.00     0.322 C 
HETATM    3  O   UNL     1       6.454   1.698  -5.748  1.00  0.00    -0.247 OA
HETATM    4  N   UNL     1       8.500   0.820  -5.111  1.00  0.00    -0.288 N 
HETATM    5  H   UNL     1       7.122   0.109  -3.217  1.00  0.00     0.164 HD
HETATM    6  H   UNL     1       8.909  -0.031  -4.763  1.00  0.00     0.172 HD
ENDROOT
BRANCH   1   7
HETATM    7  C   UNL     1       5.138   0.228  -3.925  1.00  0.00     0.154 C 
BRANCH   7   8
HETATM    8  C   UNL     1       4.576  -0.726  -2.862  1.00  0.00     0.292 C 
BRANCH   8   9
HETATM    9  N   UNL     1       3.105  -0.707  -2.774  1.00  0.00     0.090 N 
HETATM   10  C   UNL     1       2.533   0.610  -2.455  1.00  0.00     0.273 C 
HETATM   11  C   UNL     1       2.810   1.061  -1.018  1.00  0.00     0.034 C 
HETATM   12  C   UNL     1       2.332   0.027   0.012  1.00  0.00    -0.015 C 
HETATM   13  C   UNL     1       0.809   0.053   0.158  1.00  0.00     0.010 C 
HETATM   14  C   UNL     1       2.838  -1.375  -0.363  1.00  0.00     0.034 C 
HETATM   15  C   UNL     1       2.597  -1.720  -1.838  1.00  0.00     0.273 C 
ENDBRANCH   8   9
ENDBRANCH   7   8
ENDBRANCH   1   7
BRANCH   4  16
HETATM   16  C   UNL     1       9.214   1.535  -6.036  1.00  0.00     0.168 A 
HETATM   17  N   UNL     1       8.896   2.633  -6.679  1.00  0.00    -0.279 N 
HETATM   18  N   UNL     1       9.865   2.996  -7.594  1.00  0.00    -0.303 N 
ATOM     19  HN  UNL     1       8.035   3.157  -6.522  1.00  0.00     0.189 HD
HETATM   20  C   UNL     1      10.872   2.150  -7.589  1.00  0.00     0.160 A 
ATOM     21  HN  UNL     1       9.807   3.816  -8.197  1.00  0.00     0.186 HD
HETATM   22  S   UNL     1      10.746   0.891  -6.428  1.00  0.00    -0.046 SA
ENDBRANCH   4  16
TORSDOF 4
