REMARK  5 active torsions:
REMARK  status: ('A' for Active; 'I' for Inactive)
REMARK    1  A    between atoms: N_6  and  C_7 
REMARK    2  A    between atoms: C_7  and  C_8 
REMARK    3  A    between atoms: C_8  and  N_9 
REMARK    4  A    between atoms: N_9  and  C_10 
REMARK    5  A    between atoms: C_10  and  C_11 
ROOT
HETATM    1  C   UNL     1       5.267  -3.069   0.078  1.00  0.00     0.291 C 
ENDROOT
BRANCH   1   2
HETATM    2  C   UNL     1       4.390  -3.166   1.329  1.00  0.00     0.178 C 
BRANCH   2   3
HETATM    3  N   UNL     1       3.238  -2.288   1.272  1.00  0.00    -0.302 N 
HETATM    4  N   UNL     1       3.409  -0.955   1.272  1.00  0.00    -0.310 N 
HETATM    5  C   UNL     1       2.160  -0.479   1.247  1.00  0.00     0.115 A 
ATOM      6  HN  UNL     1       4.284  -0.431   1.287  1.00  0.00     0.186 HD
HETATM    7  C   UNL     1       1.187  -1.506   1.252  1.00  0.00    -0.028 A 
HETATM    8  C   UNL     1      -0.286  -1.373   1.249  1.00  0.00     0.051 C 
HETATM    9  C   UNL     1       1.927  -2.668   1.271  1.00  0.00     0.118 A 
ENDBRANCH   2   3
ENDBRANCH   1   2
BRANCH   1  10
HETATM   10  N   UNL     1       6.431  -3.971   0.080  1.00  0.00     0.085 N 
HETATM   11  H   UNL     1       7.028  -3.771   0.883  1.00  0.00     0.315 HD
BRANCH  10  12
HETATM   12  C   UNL     1       6.051  -5.381   0.065  1.00  0.00     0.274 C 
BRANCH  12  13
HETATM   13  C   UNL     1       7.285  -6.282   0.042  1.00  0.00     0.014 C 
HETATM   14  C   UNL     1       8.170  -6.110  -1.196  1.00  0.00     0.006 C 
HETATM   15  C   UNL     1       8.763  -7.490  -1.483  1.00  0.00     0.000 C 
HETATM   16  C   UNL     1       8.197  -8.429  -0.422  1.00  0.00     0.000 C 
HETATM   17  C   UNL     1       6.908  -7.762   0.019  1.00  0.00     0.006 C 
ENDBRANCH  12  13
ENDBRANCH  10  12
ENDBRANCH   1  10
TORSDOF 5
