REMARK  9 active torsions:
REMARK  status: ('A' for Active; 'I' for Inactive)
REMARK    1  A    between atoms: N_2  and  C_16 
REMARK    2  A    between atoms: C_4  and  N_9 
REMARK    3  A    between atoms: S_7  and  C_10 
REMARK    4  A    between atoms: S_7  and  C_24 
REMARK    5  A    between atoms: N_9  and  C_15 
REMARK    6  A    between atoms: N_9  and  C_26 
REMARK    7  A    between atoms: C_10  and  C_15 
REMARK    8  A    between atoms: C_16  and  C_17 
REMARK    9  A    between atoms: C_17  and  O_23 
ROOT
HETATM    1  C   UNL     1      -1.455  -0.512   0.624  1.00  0.00     0.122 A 
HETATM    2  N   UNL     1      -2.081   1.542   1.057  1.00  0.00    -0.324 N 
HETATM    3  C   UNL     1      -1.293   0.800   0.217  1.00  0.00     0.140 A 
HETATM    4  C   UNL     1      -0.756  -1.525  -0.098  1.00  0.00     0.135 A 
HETATM    5  N   UNL     1      -2.326  -0.569   1.701  1.00  0.00    -0.346 N 
ATOM      6  HN  UNL     1      -2.637  -1.400   2.203  1.00  0.00     0.167 HD
HETATM    7  C   UNL     1      -2.663   0.676   1.935  1.00  0.00     0.185 A 
HETATM    8  N   UNL     1       0.016  -1.096  -1.143  1.00  0.00    -0.337 N 
ATOM      9  HN  UNL     1       0.550  -1.764  -1.698  1.00  0.00     0.168 HD
HETATM   10  N   UNL     1      -0.545   1.250  -0.803  1.00  0.00    -0.336 N 
ATOM     11  HN  UNL     1      -0.450   2.231  -1.066  1.00  0.00     0.168 HD
HETATM   12  C   UNL     1       0.063   0.224  -1.431  1.00  0.00     0.183 A 
ENDROOT
BRANCH   4  13
HETATM   13  N   UNL     1      -0.845  -2.896   0.193  1.00  0.00    -0.360 N 
BRANCH  13  14
HETATM   14  C   UNL     1       0.247  -3.820  -0.183  1.00  0.00     0.095 C 
HETATM   15  C   UNL     1       0.136  -5.184   0.528  1.00  0.00     0.033 C 
BRANCH  14  16
HETATM   16  C   UNL     1       1.675  -3.269   0.049  1.00  0.00     0.165 C 
BRANCH  16  17
HETATM   17  S   UNL     1       2.039  -2.846   1.756  1.00  0.00     0.146 S 
HETATM   18  O   UNL     1       1.138  -1.814   2.225  1.00  0.00    -0.228 OA
HETATM   19  O   UNL     1       2.217  -4.080   2.499  1.00  0.00    -0.228 OA
BRANCH  17  20
HETATM   20  C   UNL     1       3.650  -2.080   1.686  1.00  0.00     0.136 C 
HETATM   21  C   UNL     1       4.030  -1.569   3.067  1.00  0.00     0.021 C 
ENDBRANCH  17  20
ENDBRANCH  16  17
ENDBRANCH  14  16
ENDBRANCH  13  14
BRANCH  13  22
HETATM   22  C   UNL     1      -2.217  -3.368   0.442  1.00  0.00     0.120 C 
HETATM   23  C   UNL     1      -3.166  -3.134  -0.733  1.00  0.00     0.026 C 
ENDBRANCH  13  22
ENDBRANCH   4  13
BRANCH   2  24
HETATM   24  C   UNL     1      -2.389   2.950   0.940  1.00  0.00     0.171 C 
BRANCH  24  25
HETATM   25  C   UNL     1      -1.487   3.902   1.746  1.00  0.00     0.097 C 
HETATM   26  C   UNL     1      -1.402   3.640   3.238  1.00  0.00     0.068 C 
HETATM   27  C   UNL     1      -1.094   5.010   3.822  1.00  0.00     0.170 C 
HETATM   28  O   UNL     1      -1.579   5.996   2.904  1.00  0.00    -0.388 OA
HETATM   29  C   UNL     1      -2.065   5.323   1.733  1.00  0.00     0.207 C 
BRANCH  25  30
HETATM   30  O   UNL     1      -0.162   3.949   1.198  1.00  0.00    -0.386 OA
HETATM   31  H   UNL     1       0.106   3.054   0.921  1.00  0.00     0.210 HD
ENDBRANCH  25  30
ENDBRANCH  24  25
ENDBRANCH   2  24
TORSDOF 9
