REMARK  5 active torsions:
REMARK  status: ('A' for Active; 'I' for Inactive)
REMARK    1  A    between atoms: C_2  and  N_3 
REMARK    2  A    between atoms: C_2  and  C_16 
REMARK       I    between atoms: N_3  and  C_4 
REMARK       I    between atoms: C_4  and  N_6 
REMARK    3  A    between atoms: N_6  and  C_7 
REMARK    4  A    between atoms: C_7  and  C_8 
REMARK    5  A    between atoms: C_8  and  C_9 
ROOT
HETATM    1  N   UNL     1       3.091  -0.300  -1.420  1.00  0.00    -0.336 N 
HETATM    2  C   UNL     1       2.784  -1.450  -2.097  1.00  0.00     0.316 C 
HETATM    3  O   UNL     1       2.272  -2.434  -1.577  1.00  0.00    -0.247 OA
HETATM    4  N   UNL     1       3.137  -1.385  -3.423  1.00  0.00    -0.343 N 
HETATM    5  H   UNL     1       3.211   0.544  -1.964  1.00  0.00     0.164 HD
HETATM    6  H   UNL     1       3.872  -0.727  -3.641  1.00  0.00     0.164 HD
ENDROOT
BRANCH   1   7
HETATM    7  C   UNL     1       2.689  -0.112  -0.022  1.00  0.00     0.111 C 
HETATM    8  C   UNL     1       1.260   0.436   0.023  1.00  0.00     0.035 C 
BRANCH   7   9
HETATM    9  C   UNL     1       3.714   0.781   0.706  1.00  0.00     0.143 C 
HETATM   10  C   UNL     1       3.499   0.936   2.209  1.00  0.00     0.036 C 
HETATM   11  C   UNL     1       3.836   2.385   2.501  1.00  0.00     0.029 C 
HETATM   12  C   UNL     1       4.335   2.934   1.183  1.00  0.00     0.168 C 
HETATM   13  O   UNL     1       3.725   2.121   0.175  1.00  0.00    -0.384 OA
ENDBRANCH   7   9
ENDBRANCH   1   7
BRANCH   4  14
HETATM   14  C   UNL     1       3.062  -2.600  -4.218  1.00  0.00     0.129 C 
BRANCH  14  15
HETATM   15  C   UNL     1       3.552  -2.435  -5.657  1.00  0.00     0.061 C 
BRANCH  15  16
HETATM   16  C   UNL     1       5.016  -2.166  -5.772  1.00  0.00    -0.023 A 
HETATM   17  C   UNL     1       5.641  -1.038  -6.351  1.00  0.00     0.115 A 
HETATM   18  N   UNL     1       6.973  -1.104  -6.307  1.00  0.00    -0.310 N 
HETATM   19  N   UNL     1       7.212  -2.288  -5.718  1.00  0.00    -0.308 N 
ATOM     20  HN  UNL     1       7.650  -0.418  -6.641  1.00  0.00     0.186 HD
HETATM   21  C   UNL     1       8.569  -2.734  -5.513  1.00  0.00     0.177 C 
HETATM   22  C   UNL     1       6.076  -2.959  -5.375  1.00  0.00     0.118 A 
ENDBRANCH  15  16
ENDBRANCH  14  15
ENDBRANCH   4  14
TORSDOF 5
