REMARK  4 active torsions:
REMARK  status: ('A' for Active; 'I' for Inactive)
REMARK    1  A    between atoms: S_2  and  N_5 
REMARK       I    between atoms: N_8  and  C_11 
REMARK       I    between atoms: C_11  and  N_13 
REMARK    2  A    between atoms: N_13  and  C_14 
REMARK    3  A    between atoms: C_14  and  C_15 
REMARK    4  A    between atoms: C_15  and  C_16 
ROOT
HETATM    1  N   UNL     1       3.482  -0.563   1.211  1.00  0.00    -0.208 NA
HETATM    2  C   UNL     1       4.967  -0.469   1.378  1.00  0.00     0.127 C 
HETATM    3  C   UNL     1       5.727  -1.544   0.584  1.00  0.00     0.143 C 
HETATM    4  N   UNL     1       5.203  -2.890   0.847  1.00  0.00    -0.332 N 
HETATM    5  C   UNL     1       3.742  -3.018   0.738  1.00  0.00     0.143 C 
HETATM    6  C   UNL     1       3.014  -1.948   1.562  1.00  0.00     0.127 C 
HETATM    7  C   UNL     1       5.952  -4.014   1.134  1.00  0.00     0.318 C 
HETATM    8  O   UNL     1       5.450  -5.083   1.468  1.00  0.00    -0.247 OA
HETATM    9  N   UNL     1       7.312  -3.845   1.040  1.00  0.00    -0.343 N 
HETATM   10  H   UNL     1       7.582  -3.279   0.250  1.00  0.00     0.164 HD
ENDROOT
BRANCH   9  11
HETATM   11  C   UNL     1       8.191  -4.978   1.312  1.00  0.00     0.130 C 
BRANCH  11  12
HETATM   12  C   UNL     1       9.657  -4.559   1.310  1.00  0.00     0.076 C 
BRANCH  12  13
HETATM   13  C   UNL     1      10.585  -5.706   1.612  1.00  0.00     0.010 A 
HETATM   14  C   UNL     1      10.950  -5.998   2.925  1.00  0.00     0.025 A 
HETATM   15  C   UNL     1      11.846  -7.038   3.159  1.00  0.00     0.003 A 
HETATM   16  C   UNL     1      12.345  -7.763   2.085  1.00  0.00     0.017 A 
HETATM   17  C   UNL     1      11.917  -7.421   0.812  1.00  0.00     0.088 A 
HETATM   18  N   UNL     1      11.052  -6.413   0.555  1.00  0.00    -0.369 N 
ATOM     19  HN  UNL     1      10.763  -6.194  -0.398  1.00  0.00     0.165 HD
ENDBRANCH  12  13
ENDBRANCH  11  12
ENDBRANCH   9  11
BRANCH   1  20
HETATM   20  S   UNL     1       2.807   0.080  -0.207  1.00  0.00     0.207 S 
HETATM   21  C   UNL     1       3.096   1.830  -0.016  1.00  0.00     0.180 C 
HETATM   22  O   UNL     1       1.377  -0.135  -0.155  1.00  0.00    -0.212 OA
HETATM   23  O   UNL     1       3.585  -0.384  -1.334  1.00  0.00    -0.212 OA
ENDBRANCH   1  20
TORSDOF 4
