REMARK  4 active torsions:
REMARK  status: ('A' for Active; 'I' for Inactive)
REMARK    1  A    between atoms: N_2  and  C_4 
REMARK    2  A    between atoms: C_4  and  C_5 
REMARK    3  A    between atoms: C_5  and  N_6 
REMARK       I    between atoms: N_6  and  C_7 
REMARK       I    between atoms: C_7  and  N_9 
REMARK    4  A    between atoms: N_9  and  C_10 
ROOT
HETATM    1  N   UNL     1       5.162  -2.322   1.098  1.00  0.00    -0.340 N 
HETATM    2  C   UNL     1       5.913  -2.932   0.142  1.00  0.00     0.321 C 
HETATM    3  O   UNL     1       6.043  -2.548  -1.006  1.00  0.00    -0.247 OA
HETATM    4  N   UNL     1       6.580  -4.081   0.643  1.00  0.00    -0.293 N 
HETATM    5  H   UNL     1       4.925  -2.769   1.970  1.00  0.00     0.164 HD
HETATM    6  H   UNL     1       6.531  -4.279   1.631  1.00  0.00     0.172 HD
ENDROOT
BRANCH   1   7
HETATM    7  C   UNL     1       4.425  -1.112   0.756  1.00  0.00     0.166 C 
BRANCH   7   8
HETATM    8  C   UNL     1       2.885  -1.331   0.488  1.00  0.00     0.174 C 
HETATM    9  C   UNL     1       2.288   0.038   0.063  1.00  0.00     0.043 C 
HETATM   10  C   UNL     1       2.429   0.136  -1.461  1.00  0.00     0.003 C 
HETATM   11  C   UNL     1       2.951  -1.207  -1.952  1.00  0.00     0.003 C 
HETATM   12  C   UNL     1       2.687  -2.171  -0.804  1.00  0.00     0.043 C 
BRANCH   8  13
HETATM   13  N   UNL     1       2.252  -1.953   1.696  1.00  0.00     0.091 N 
HETATM   14  C   UNL     1       2.275  -1.078   2.881  1.00  0.00     0.310 C 
HETATM   15  C   UNL     1       0.856  -2.383   1.486  1.00  0.00     0.310 C 
ENDBRANCH   8  13
ENDBRANCH   7   8
ENDBRANCH   1   7
BRANCH   4  16
HETATM   16  C   UNL     1       7.330  -4.923  -0.179  1.00  0.00     0.127 A 
HETATM   17  C   UNL     1       7.453  -4.876  -1.549  1.00  0.00     0.076 A 
HETATM   18  C   UNL     1       8.283  -5.959  -1.905  1.00  0.00     0.025 A 
HETATM   19  C   UNL     1       8.698  -6.358  -3.272  1.00  0.00     0.070 C 
HETATM   20  N   UNL     1       8.678  -6.645  -0.828  1.00  0.00    -0.302 N 
HETATM   21  N   UNL     1       8.097  -6.000   0.203  1.00  0.00    -0.281 N 
ATOM     22  HN  UNL     1       9.280  -7.467  -0.794  1.00  0.00     0.186 HD
HETATM   23  C   UNL     1       8.337  -6.474   1.544  1.00  0.00     0.179 C 
ENDBRANCH   4  16
TORSDOF 4
