REMARK  6 active torsions:
REMARK  status: ('A' for Active; 'I' for Inactive)
REMARK    1  A    between atoms: C_2  and  C_3 
REMARK    2  A    between atoms: C_2  and  N_10 
REMARK    3  A    between atoms: C_3  and  N_4 
REMARK    4  A    between atoms: N_10  and  C_11 
REMARK    5  A    between atoms: C_11  and  C_12 
REMARK    6  A    between atoms: C_12  and  N_13 
ROOT
HETATM    1  N   UNL     1       2.942  -0.003  -1.301  1.00  0.00     0.090 N 
HETATM    2  H   UNL     1       2.556   0.754  -1.867  1.00  0.00     0.316 HD
ENDROOT
BRANCH   1   3
HETATM    3  C   UNL     1       2.423   0.109   0.082  1.00  0.00     0.236 C 
HETATM    4  C   UNL     1       2.785   1.459   0.716  1.00  0.00     0.044 C 
BRANCH   3   5
HETATM    5  C   UNL     1       0.895  -0.112   0.067  1.00  0.00     0.183 C 
BRANCH   5   6
HETATM    6  N   UNL     1       0.302  -0.097   1.394  1.00  0.00    -0.302 N 
HETATM    7  C   UNL     1       0.540  -0.982   2.407  1.00  0.00     0.111 A 
HETATM    8  C   UNL     1      -0.191  -0.534   3.483  1.00  0.00     0.037 A 
HETATM    9  C   UNL     1      -0.850   0.617   3.011  1.00  0.00     0.108 A 
HETATM   10  N   UNL     1      -0.556   0.885   1.737  1.00  0.00    -0.310 N 
ATOM     11  HN  UNL     1      -0.899   1.652   1.159  1.00  0.00     0.186 HD
ENDBRANCH   5   6
ENDBRANCH   3   5
ENDBRANCH   1   3
BRANCH   1  12
HETATM   12  C   UNL     1       4.409   0.037  -1.406  1.00  0.00     0.290 C 
BRANCH  12  13
HETATM   13  C   UNL     1       5.175  -1.043  -0.621  1.00  0.00     0.155 C 
BRANCH  13  14
HETATM   14  N   UNL     1       4.932  -2.410  -1.064  1.00  0.00    -0.350 N 
HETATM   15  C   UNL     1       5.242  -2.828  -2.406  1.00  0.00     0.126 C 
HETATM   16  C   UNL     1       5.123  -4.339  -2.391  1.00  0.00     0.029 C 
HETATM   17  C   UNL     1       5.195  -4.738  -0.925  1.00  0.00     0.104 C 
HETATM   18  C   UNL     1       4.907  -3.468  -0.169  1.00  0.00     0.219 C 
HETATM   19  O   UNL     1       4.761  -3.396   1.041  1.00  0.00    -0.273 OA
ENDBRANCH  13  14
ENDBRANCH  12  13
ENDBRANCH   1  12
TORSDOF 6
