REMARK  5 active torsions:
REMARK  status: ('A' for Active; 'I' for Inactive)
REMARK    1  A    between atoms: C_2  and  C_4 
REMARK    2  A    between atoms: C_7  and  N_8 
REMARK       I    between atoms: N_8  and  C_9 
REMARK    3  A    between atoms: C_9  and  C_11 
REMARK    4  A    between atoms: C_11  and  O_12 
REMARK    5  A    between atoms: O_12  and  C_13 
ROOT
HETATM    1  N   UNL     1       5.284   1.848  -4.793  1.00  0.00    -0.311 N 
HETATM    2  C   UNL     1       4.695   2.910  -5.471  1.00  0.00     0.246 C 
HETATM    3  O   UNL     1       3.836   3.666  -5.022  1.00  0.00    -0.271 OA
HETATM    4  H   UNL     1       5.962   1.276  -5.271  1.00  0.00     0.170 HD
ENDROOT
BRANCH   1   5
HETATM    5  C   UNL     1       5.035   1.571  -3.441  1.00  0.00     0.107 A 
HETATM    6  C   UNL     1       5.712   0.520  -2.831  1.00  0.00     0.049 A 
HETATM    7  C   UNL     1       5.518   0.296  -1.461  1.00  0.00     0.020 A 
HETATM    8  C   UNL     1       4.652   1.121  -0.739  1.00  0.00     0.025 A 
HETATM    9  C   UNL     1       3.998   2.117  -1.439  1.00  0.00     0.104 A 
HETATM   10  N   UNL     1       4.179   2.342  -2.756  1.00  0.00    -0.351 N 
ATOM     11  HN  UNL     1       3.670   3.091  -3.226  1.00  0.00     0.166 HD
BRANCH   8  12
HETATM   12  C   UNL     1       4.463   0.942   0.721  1.00  0.00     0.157 C 
HETATM   13  C   UNL     1       3.545   1.889   1.454  1.00  0.00     0.097 C 
HETATM   14  O   UNL     1       5.054   0.036   1.302  1.00  0.00    -0.293 OA
ENDBRANCH   8  12
ENDBRANCH   1   5
BRANCH   2  15
HETATM   15  C   UNL     1       5.204   3.075  -6.906  1.00  0.00     0.271 C 
BRANCH  15  16
HETATM   16  O   UNL     1       5.111   4.447  -7.263  1.00  0.00    -0.377 OA
BRANCH  16  17
HETATM   17  C   UNL     1       5.473   4.791  -8.597  1.00  0.00     0.122 C 
HETATM   18  C   UNL     1       5.379   6.323  -8.687  1.00  0.00     0.032 C 
HETATM   19  C   UNL     1       3.935   6.822  -8.556  1.00  0.00     0.002 C 
HETATM   20  C   UNL     1       3.000   6.136  -9.549  1.00  0.00     0.000 C 
HETATM   21  C   UNL     1       3.103   4.616  -9.466  1.00  0.00     0.002 C 
HETATM   22  C   UNL     1       4.549   4.157  -9.643  1.00  0.00     0.032 C 
ENDBRANCH  16  17
ENDBRANCH  15  16
ENDBRANCH   2  15
TORSDOF 5
