REMARK  2 active torsions:
REMARK  status: ('A' for Active; 'I' for Inactive)
REMARK    1  A    between atoms: C_2  and  N_8 
REMARK       I    between atoms: N_8  and  C_9 
REMARK       I    between atoms: C_9  and  N_11 
REMARK    2  A    between atoms: N_11  and  C_12 
ROOT
HETATM    1  N   UNL     1       3.132   0.339   1.435  1.00  0.00    -0.334 N 
HETATM    2  C   UNL     1       2.853  -0.382   2.572  1.00  0.00     0.321 C 
HETATM    3  O   UNL     1       2.028  -1.288   2.613  1.00  0.00    -0.247 OA
HETATM    4  N   UNL     1       3.657  -0.018   3.634  1.00  0.00    -0.308 N 
HETATM    5  H   UNL     1       3.402   1.299   1.605  1.00  0.00     0.165 HD
HETATM    6  H   UNL     1       4.598   0.220   3.355  1.00  0.00     0.170 HD
ENDROOT
BRANCH   1   7
HETATM    7  C   UNL     1       2.488   0.031   0.137  1.00  0.00     0.035 C 
HETATM    8  C   UNL     1       0.952   0.146   0.267  1.00  0.00     0.039 C 
HETATM    9  C   UNL     1       2.984   1.047  -0.916  1.00  0.00     0.057 C 
HETATM   10  C   UNL     1       2.588   0.647  -2.333  1.00  0.00     0.170 C 
HETATM   11  O   UNL     1       3.071  -0.659  -2.640  1.00  0.00    -0.391 OA
HETATM   12  C   UNL     1       2.529  -1.655  -1.777  1.00  0.00     0.170 C 
HETATM   13  C   UNL     1       2.911  -1.382  -0.329  1.00  0.00     0.057 C 
ENDBRANCH   1   7
BRANCH   4  14
HETATM   14  C   UNL     1       3.505  -0.681   4.873  1.00  0.00     0.051 A 
HETATM   15  C   UNL     1       4.626  -1.178   5.529  1.00  0.00     0.032 A 
HETATM   16  C   UNL     1       4.450  -1.961   6.670  1.00  0.00     0.019 A 
HETATM   17  C   UNL     1       3.163  -2.166   7.146  1.00  0.00     0.088 A 
HETATM   18  N   UNL     1       2.061  -1.639   6.577  1.00  0.00    -0.373 N 
HETATM   19  C   UNL     1       2.254  -0.924   5.442  1.00  0.00     0.117 A 
ATOM     20  HN  UNL     1       1.133  -1.771   6.978  1.00  0.00     0.164 HD
ENDBRANCH   4  14
TORSDOF 2
