REMARK  5 active torsions:
REMARK  status: ('A' for Active; 'I' for Inactive)
REMARK    1  A    between atoms: C_2  and  C_3 
REMARK    2  A    between atoms: C_2  and  N_10 
REMARK    3  A    between atoms: C_3  and  N_4 
REMARK    4  A    between atoms: N_10  and  S_11 
REMARK    5  A    between atoms: S_11  and  C_14 
ROOT
HETATM    1  N   UNL     1       3.277   1.420  -0.335  1.00  0.00    -0.214 NA
HETATM    2  H   UNL     1       2.948   2.063   0.391  1.00  0.00     0.140 HD
ENDROOT
BRANCH   1   3
HETATM    3  C   UNL     1       2.574   0.075  -0.129  1.00  0.00     0.087 C 
HETATM    4  C   UNL     1       1.066   0.352  -0.211  1.00  0.00     0.029 C 
BRANCH   3   5
HETATM    5  C   UNL     1       3.013  -0.992  -1.151  1.00  0.00     0.168 C 
BRANCH   5   6
HETATM    6  N   UNL     1       2.350  -2.281  -1.060  1.00  0.00    -0.302 N 
HETATM    7  C   UNL     1       2.168  -3.159  -2.093  1.00  0.00     0.111 A 
HETATM    8  C   UNL     1       1.633  -4.297  -1.538  1.00  0.00     0.037 A 
HETATM    9  C   UNL     1       1.539  -4.012  -0.165  1.00  0.00     0.108 A 
HETATM   10  N   UNL     1       1.982  -2.787   0.133  1.00  0.00    -0.310 N 
ATOM     11  HN  UNL     1       2.030  -2.340   1.049  1.00  0.00     0.186 HD
ENDBRANCH   5   6
ENDBRANCH   3   5
ENDBRANCH   1   3
BRANCH   1  12
HETATM   12  S   UNL     1       4.971   1.366  -0.285  1.00  0.00     0.214 S 
HETATM   13  O   UNL     1       5.315   0.983   1.064  1.00  0.00    -0.211 OA
HETATM   14  O   UNL     1       5.417   0.602  -1.429  1.00  0.00    -0.211 OA
BRANCH  12  15
HETATM   15  C   UNL     1       5.481   3.056  -0.561  1.00  0.00     0.124 C 
HETATM   16  C   UNL     1       7.011   3.164  -0.534  1.00  0.00     0.021 C 
HETATM   17  C   UNL     1       7.332   4.569  -0.033  1.00  0.00     0.001 C 
HETATM   18  C   UNL     1       5.987   5.228   0.247  1.00  0.00     0.001 C 
HETATM   19  C   UNL     1       5.033   4.063   0.487  1.00  0.00     0.021 C 
ENDBRANCH  12  15
ENDBRANCH   1  12
TORSDOF 5
