REMARK  9 active torsions:
REMARK  status: ('A' for Active; 'I' for Inactive)
REMARK    1  A    between atoms: C_4  and  N_11 
REMARK    2  A    between atoms: C_5  and  C_9 
REMARK       I    between atoms: C_9  and  N_12 
REMARK    3  A    between atoms: N_11  and  C_26 
REMARK    4  A    between atoms: N_12  and  C_24 
REMARK    5  A    between atoms: C_14  and  C_24 
REMARK    6  A    between atoms: C_19  and  O_30 
REMARK    7  A    between atoms: C_20  and  C_36 
REMARK    8  A    between atoms: C_25  and  C_26 
REMARK    9  A    between atoms: O_34  and  C_36 
ROOT
HETATM    1  N   UNL     1      -0.742   1.200   0.167  1.00  0.00    -0.176 N 
ATOM      2  HN  UNL     1      -1.260   2.074   0.262  1.00  0.00     0.186 HD
HETATM    3  C   UNL     1      -1.403   0.031   0.110  1.00  0.00     0.682 A 
HETATM    4  C   UNL     1       0.619   1.220   0.098  1.00  0.00     0.134 A 
HETATM    5  C   UNL     1       1.350   0.037   0.091  1.00  0.00     0.092 A 
HETATM    6  N   UNL     1      -2.755   0.039  -0.014  1.00  0.00    -0.211 N 
HETATM    7  N   UNL     1      -0.766  -1.143   0.083  1.00  0.00    -0.201 N 
ATOM      8  HN  UNL     1      -1.277  -2.025   0.055  1.00  0.00     0.183 HD
HETATM    9  C   UNL     1       0.585  -1.112   0.094  1.00  0.00     0.127 A 
HETATM   10  C   UNL     1      -3.650   1.040   0.555  1.00  0.00     0.125 C 
HETATM   11  C   UNL     1      -3.503  -1.064  -0.585  1.00  0.00     0.142 C 
HETATM   12  C   UNL     1      -4.745  -0.366  -1.133  1.00  0.00     0.022 C 
HETATM   13  C   UNL     1      -4.974   0.832  -0.213  1.00  0.00     0.029 C 
ENDROOT
BRANCH   5  14
HETATM   14  C   UNL     1       2.820  -0.094  -0.066  1.00  0.00     0.257 C 
HETATM   15  N   UNL     1       3.466  -1.109   0.623  1.00  0.00    -0.350 N 
HETATM   16  H   UNL     1       2.985  -1.838   1.136  1.00  0.00     0.163 HD
HETATM   17  O   UNL     1       3.443   0.668  -0.798  1.00  0.00    -0.267 OA
BRANCH  15  18
HETATM   18  C   UNL     1       4.922  -1.221   0.543  1.00  0.00     0.199 C 
BRANCH  18  19
HETATM   19  C   UNL     1       5.528  -2.347   1.362  1.00  0.00     0.099 A 
HETATM   20  N   UNL     1       4.838  -3.503   1.475  1.00  0.00    -0.354 N 
HETATM   21  C   UNL     1       5.449  -4.498   2.155  1.00  0.00     0.091 A 
ATOM     22  HN  UNL     1       3.909  -3.618   1.070  1.00  0.00     0.166 HD
HETATM   23  C   UNL     1       6.694  -4.385   2.728  1.00  0.00     0.034 A 
HETATM   24  C   UNL     1       7.310  -3.169   2.562  1.00  0.00     0.091 A 
HETATM   25  N   UNL     1       6.757  -2.143   1.886  1.00  0.00    -0.354 N 
ATOM     26  HN  UNL     1       7.243  -1.253   1.775  1.00  0.00     0.166 HD
ENDBRANCH  18  19
ENDBRANCH  15  18
ENDBRANCH   5  14
BRANCH   4  27
HETATM   27  N   UNL     1       1.085   2.507  -0.067  1.00  0.00    -0.371 N 
HETATM   28  H   UNL     1       0.289   3.138  -0.008  1.00  0.00     0.161 HD
BRANCH  27  29
HETATM   29  C   UNL     1       2.302   3.077   0.481  1.00  0.00     0.160 C 
BRANCH  29  30
HETATM   30  C   UNL     1       2.878   4.149  -0.435  1.00  0.00    -0.039 A 
HETATM   31  C   UNL     1       3.679   5.165   0.110  1.00  0.00     0.035 A 
HETATM   32  C   UNL     1       4.262   6.172  -0.687  1.00  0.00     0.068 A 
HETATM   33  C   UNL     1       4.049   6.184  -2.070  1.00  0.00     0.089 A 
HETATM   34 CL   UNL     1       5.239   7.304   0.184  1.00  0.00    -0.081 Cl
HETATM   35  C   UNL     1       3.281   5.143  -2.620  1.00  0.00     0.039 A 
HETATM   36  C   UNL     1       2.715   4.136  -1.823  1.00  0.00     0.011 A 
BRANCH  33  37
HETATM   37  O   UNL     1       4.484   7.051  -3.034  1.00  0.00    -0.354 OA
HETATM   38  C   UNL     1       5.170   8.241  -2.684  1.00  0.00     0.210 C 
ENDBRANCH  33  37
ENDBRANCH  29  30
ENDBRANCH  27  29
ENDBRANCH   4  27
BRANCH  10  39
HETATM   39  C   UNL     1      -3.857   0.807   2.072  1.00  0.00     0.190 C 
BRANCH  39  40
HETATM   40  O   UNL     1      -4.548  -0.418   2.342  1.00  0.00    -0.399 OA
HETATM   41  H   UNL     1      -4.596  -0.514   3.308  1.00  0.00     0.209 HD
ENDBRANCH  39  40
ENDBRANCH  10  39
TORSDOF 9
