REMARK  4 active torsions:
REMARK  status: ('A' for Active; 'I' for Inactive)
REMARK       I    between atoms: C_2  and  N_3 
REMARK       I    between atoms: C_2  and  N_10 
REMARK    1  A    between atoms: N_3  and  C_4 
REMARK    2  A    between atoms: C_4  and  C_5 
REMARK    3  A    between atoms: N_10  and  C_11 
REMARK    4  A    between atoms: C_17  and  N_18 
ROOT
HETATM    1  C   UNL     1       4.349   1.097   0.802  1.00  0.00     0.080 A 
HETATM    2  C   UNL     1       5.190   1.866  -0.009  1.00  0.00     0.035 A 
HETATM    3  C   UNL     1       6.556   1.866   0.229  1.00  0.00     0.019 A 
HETATM    4  C   UNL     1       7.034   1.073   1.255  1.00  0.00     0.090 A 
HETATM    5  N   UNL     1       6.256   0.280   2.025  1.00  0.00    -0.351 N 
ATOM      6  HN  UNL     1       6.666  -0.300   2.757  1.00  0.00     0.166 HD
HETATM    7  C   UNL     1       4.918   0.272   1.802  1.00  0.00     0.130 A 
ENDROOT
BRANCH   1   8
HETATM    8  N   UNL     1       2.953   1.224   0.571  1.00  0.00    -0.306 N 
HETATM    9  C   UNL     1       2.071   1.510   1.598  1.00  0.00     0.320 C 
HETATM   10  O   UNL     1       2.349   1.772   2.758  1.00  0.00    -0.247 OA
HETATM   11  N   UNL     1       0.783   1.604   1.101  1.00  0.00    -0.342 N 
HETATM   12  H   UNL     1       0.579   1.003   0.316  1.00  0.00     0.164 HD
HETATM   13  H   UNL     1       2.691   1.694  -0.281  1.00  0.00     0.171 HD
BRANCH  11  14
HETATM   14  C   UNL     1      -0.321   2.002   1.955  1.00  0.00     0.131 C 
BRANCH  14  15
HETATM   15  C   UNL     1      -0.646   3.493   1.884  1.00  0.00     0.029 C 
HETATM   16  C   UNL     1      -1.028   4.010   0.506  1.00  0.00     0.034 C 
HETATM   17  C   UNL     1      -0.542   5.450   0.496  1.00  0.00     0.168 C 
HETATM   18  O   UNL     1       0.079   5.704   1.761  1.00  0.00    -0.391 OA
HETATM   19  C   UNL     1       0.472   4.432   2.295  1.00  0.00     0.173 C 
ENDBRANCH  14  15
ENDBRANCH  11  14
ENDBRANCH   1   8
BRANCH   7  20
HETATM   20  N   UNL     1       4.133  -0.600   2.540  1.00  0.00    -0.365 N 
HETATM   21  C   UNL     1       4.636  -1.102   3.812  1.00  0.00     0.124 C 
HETATM   22  C   UNL     1       3.624  -2.197   4.187  1.00  0.00     0.021 C 
HETATM   23  C   UNL     1       2.716  -2.351   2.965  1.00  0.00     0.021 C 
HETATM   24  C   UNL     1       3.508  -1.706   1.837  1.00  0.00     0.124 C 
ENDBRANCH   7  20
TORSDOF 4
