REMARK  4 active torsions:
REMARK  status: ('A' for Active; 'I' for Inactive)
REMARK    1  A    between atoms: C_2  and  C_3 
REMARK    2  A    between atoms: C_2  and  N_10 
REMARK    3  A    between atoms: C_3  and  N_4 
REMARK       I    between atoms: N_10  and  C_11 
REMARK    4  A    between atoms: C_11  and  C_13 
ROOT
HETATM    1  C   UNL     1       0.919  -0.205   0.079  1.00  0.00     0.034 C 
HETATM    2  C   UNL     1       2.438  -0.072  -0.008  1.00  0.00     0.100 C 
ENDROOT
BRANCH   2   3
HETATM    3  C   UNL     1       2.943   1.349   0.296  1.00  0.00     0.172 C 
BRANCH   3   4
HETATM    4  N   UNL     1       2.422   2.364  -0.601  1.00  0.00    -0.302 N 
HETATM    5  C   UNL     1       2.976   2.793  -1.774  1.00  0.00     0.111 A 
HETATM    6  C   UNL     1       2.154   3.793  -2.242  1.00  0.00     0.037 A 
HETATM    7  C   UNL     1       1.137   3.899  -1.278  1.00  0.00     0.108 A 
HETATM    8  N   UNL     1       1.299   3.037  -0.271  1.00  0.00    -0.310 N 
ATOM      9  HN  UNL     1       0.712   2.915   0.554  1.00  0.00     0.186 HD
ENDBRANCH   3   4
ENDBRANCH   2   3
BRANCH   2  10
HETATM   10  N   UNL     1       3.041  -1.059   0.894  1.00  0.00    -0.353 N 
HETATM   11  C   UNL     1       4.287  -1.602   0.691  1.00  0.00     0.247 C 
HETATM   12  O   UNL     1       5.001  -1.305  -0.263  1.00  0.00    -0.271 OA
HETATM   13  H   UNL     1       2.592  -1.290   1.779  1.00  0.00     0.163 HD
BRANCH  11  14
HETATM   14  C   UNL     1       4.706  -2.628   1.756  1.00  0.00     0.213 C 
HETATM   15  C   UNL     1       4.939  -4.004   1.149  1.00  0.00     0.043 C 
HETATM   16  C   UNL     1       4.421  -4.983   2.182  1.00  0.00     0.029 C 
HETATM   17  C   UNL     1       3.991  -4.117   3.345  1.00  0.00     0.168 C 
HETATM   18  O   UNL     1       3.732  -2.821   2.794  1.00  0.00    -0.376 OA
ENDBRANCH  11  14
ENDBRANCH   2  10
TORSDOF 4
