REMARK  7 active torsions:
REMARK  status: ('A' for Active; 'I' for Inactive)
REMARK    1  A    between atoms: N_4  and  C_5 
REMARK    2  A    between atoms: C_5  and  C_6 
REMARK    3  A    between atoms: C_6  and  O_7 
REMARK    4  A    between atoms: C_6  and  C_8 
REMARK    5  A    between atoms: C_8  and  N_9 
REMARK    6  A    between atoms: C_10  and  C_11 
REMARK    7  A    between atoms: C_11  and  O_12 
ROOT
HETATM    1  N   UNL     1       2.672   5.350  -3.838  1.00  0.00    -0.330 N 
HETATM    2  C   UNL     1       1.405   5.847  -4.070  1.00  0.00     0.108 A 
HETATM    3  N   UNL     1       1.316   7.107  -3.687  1.00  0.00    -0.342 N 
ATOM      4  HN  UNL     1       0.508   7.722  -3.779  1.00  0.00     0.167 HD
HETATM    5  C   UNL     1       2.533   7.418  -3.140  1.00  0.00     0.060 A 
HETATM    6  C   UNL     1       2.959   8.604  -2.525  1.00  0.00     0.032 A 
HETATM    7  C   UNL     1       4.260   8.674  -2.017  1.00  0.00     0.002 A 
HETATM    8  C   UNL     1       5.133   7.593  -2.135  1.00  0.00     0.002 A 
HETATM    9  C   UNL     1       4.728   6.405  -2.757  1.00  0.00     0.032 A 
HETATM   10  C   UNL     1       3.415   6.346  -3.240  1.00  0.00     0.062 A 
ENDROOT
BRANCH   1  11
HETATM   11  C   UNL     1       3.158   4.003  -4.116  1.00  0.00     0.164 C 
BRANCH  11  12
HETATM   12  C   UNL     1       2.902   3.046  -2.942  1.00  0.00     0.164 C 
BRANCH  12  13
HETATM   13  C   UNL     1       3.418   1.606  -3.224  1.00  0.00     0.305 C 
BRANCH  13  14
HETATM   14  N   UNL     1       3.194   0.678  -2.089  1.00  0.00     0.096 N 
HETATM   15  C   UNL     1       3.740  -0.670  -2.371  1.00  0.00     0.303 C 
HETATM   16  C   UNL     1       3.441  -1.691  -1.243  1.00  0.00     0.146 C 
HETATM   17  C   UNL     1       4.244  -1.441   0.033  1.00  0.00     0.041 C 
HETATM   18  O   UNL     1       2.030  -1.757  -0.964  1.00  0.00    -0.378 OA
HETATM   19  C   UNL     1       1.479  -0.470  -0.652  1.00  0.00     0.146 C 
HETATM   20  C   UNL     1       1.752   0.537  -1.784  1.00  0.00     0.303 C 
HETATM   21  C   UNL     1      -0.024  -0.630  -0.452  1.00  0.00     0.041 C 
ENDBRANCH  13  14
ENDBRANCH  12  13
BRANCH  12  22
HETATM   22  O   UNL     1       3.511   3.552  -1.748  1.00  0.00    -0.392 OA
HETATM   23  H   UNL     1       4.393   3.153  -1.658  1.00  0.00     0.210 HD
ENDBRANCH  12  22
ENDBRANCH  11  12
ENDBRANCH   1  11
BRANCH   2  24
HETATM   24  C   UNL     1       0.289   5.084  -4.689  1.00  0.00     0.240 C 
BRANCH  24  25
HETATM   25  O   UNL     1       0.431   5.208  -6.099  1.00  0.00    -0.393 OA
HETATM   26  H   UNL     1       0.419   6.170  -6.270  1.00  0.00     0.209 HD
ENDBRANCH  24  25
ENDBRANCH   2  24
TORSDOF 7
