REMARK  5 active torsions:
REMARK  status: ('A' for Active; 'I' for Inactive)
REMARK    1  A    between atoms: C_7  and  N_8 
REMARK       I    between atoms: N_8  and  C_9 
REMARK       I    between atoms: C_9  and  N_11 
REMARK    2  A    between atoms: N_11  and  C_12 
REMARK    3  A    between atoms: C_12  and  C_13 
REMARK    4  A    between atoms: C_13  and  N_14 
REMARK    5  A    between atoms: C_13  and  C_20 
ROOT
HETATM    1  C   UNL     1      -1.680   2.105   2.833  1.00  0.00     0.165 C 
ENDROOT
BRANCH   1   2
HETATM    2  N   UNL     1      -0.399   1.421   2.764  1.00  0.00    -0.341 N 
HETATM    3  C   UNL     1       0.275   1.373   1.564  1.00  0.00     0.316 C 
HETATM    4  N   UNL     1       1.429   0.646   1.672  1.00  0.00    -0.338 N 
HETATM    5  O   UNL     1      -0.105   1.926   0.539  1.00  0.00    -0.247 OA
HETATM    6  H   UNL     1       1.832   0.612   2.594  1.00  0.00     0.164 HD
HETATM    7  H   UNL     1      -0.288   0.585   3.321  1.00  0.00     0.164 HD
BRANCH   4   8
HETATM    8  C   UNL     1       2.340   0.478   0.541  1.00  0.00     0.093 C 
HETATM    9  C   UNL     1       3.233  -0.776   0.702  1.00  0.00    -0.027 C 
HETATM   10  C   UNL     1       2.496  -1.969   1.326  1.00  0.00     0.017 C 
HETATM   11  C   UNL     1       3.794  -1.219  -0.664  1.00  0.00     0.017 C 
HETATM   12  C   UNL     1       4.373  -0.281   1.612  1.00  0.00     0.011 C 
HETATM   13  C   UNL     1       4.518   1.220   1.347  1.00  0.00     0.003 C 
HETATM   14  C   UNL     1       3.350   1.627   0.448  1.00  0.00     0.026 C 
ENDBRANCH   4   8
ENDBRANCH   1   2
BRANCH   1  15
HETATM   15  C   UNL     1      -2.082   2.627   4.252  1.00  0.00     0.275 C 
BRANCH  15  16
HETATM   16  N   UNL     1      -1.268   3.663   4.928  1.00  0.00     0.103 N 
HETATM   17  C   UNL     1      -1.142   4.966   4.260  1.00  0.00     0.299 C 
HETATM   18  C   UNL     1       0.014   5.045   3.254  1.00  0.00     0.198 C 
HETATM   19  O   UNL     1       1.262   4.769   3.902  1.00  0.00    -0.388 OA
HETATM   20  C   UNL     1       1.257   3.469   4.497  1.00  0.00     0.198 C 
HETATM   21  C   UNL     1       0.051   3.242   5.433  1.00  0.00     0.299 C 
ENDBRANCH  15  16
BRANCH  15  22
HETATM   22  C   UNL     1      -3.574   2.989   4.278  1.00  0.00    -0.008 A 
HETATM   23  C   UNL     1      -4.314   2.883   5.462  1.00  0.00     0.012 A 
HETATM   24  C   UNL     1      -5.693   3.090   5.448  1.00  0.00     0.018 A 
HETATM   25  C   UNL     1      -6.299   3.418   4.246  1.00  0.00     0.087 A 
HETATM   26  N   UNL     1      -5.622   3.582   3.095  1.00  0.00    -0.375 N 
HETATM   27  C   UNL     1      -4.284   3.379   3.140  1.00  0.00     0.097 A 
ATOM     28  HN  UNL     1      -6.094   3.846   2.230  1.00  0.00     0.164 HD
ENDBRANCH  15  22
ENDBRANCH   1  15
TORSDOF 5
