REMARK  4 active torsions:
REMARK  status: ('A' for Active; 'I' for Inactive)
REMARK    1  A    between atoms: N_2  and  C_3 
REMARK    2  A    between atoms: N_15  and  C_16 
REMARK    3  A    between atoms: C_16  and  C_17 
REMARK    4  A    between atoms: C_17  and  O_18 
ROOT
HETATM    1  C   UNL     1       3.291  -1.202   0.566  1.00  0.00     0.682 A 
HETATM    2  N   UNL     1       4.293  -1.126   1.419  1.00  0.00    -0.174 N 
ATOM      3  HN  UNL     1       4.743  -0.281   1.772  1.00  0.00     0.186 HD
HETATM    4  C   UNL     1       4.599  -2.412   1.728  1.00  0.00     0.160 A 
HETATM    5  N   UNL     1       5.631  -2.835   2.540  1.00  0.00    -0.287 N 
HETATM    6  C   UNL     1       6.560  -1.912   3.155  1.00  0.00     0.163 C 
HETATM    7  C   UNL     1       5.804  -4.196   2.750  1.00  0.00     0.330 A 
HETATM    8  O   UNL     1       6.698  -4.672   3.447  1.00  0.00    -0.246 OA
HETATM    9  N   UNL     1       4.914  -5.048   2.124  1.00  0.00    -0.273 N 
HETATM   10  C   UNL     1       3.899  -4.702   1.263  1.00  0.00     0.280 A 
HETATM   11  O   UNL     1       3.214  -5.550   0.703  1.00  0.00    -0.265 OA
HETATM   12  C   UNL     1       3.761  -3.294   1.107  1.00  0.00     0.164 A 
HETATM   13  N   UNL     1       2.888  -2.516   0.389  1.00  0.00    -0.172 N 
HETATM   14  H   UNL     1       5.065  -6.034   2.276  1.00  0.00     0.173 HD
ENDROOT
BRANCH  13  15
HETATM   15  C   UNL     1       1.781  -2.985  -0.421  1.00  0.00     0.174 C 
BRANCH  15  16
HETATM   16  C   UNL     1       0.671  -3.678   0.364  1.00  0.00     0.187 C 
BRANCH  16  17
HETATM   17  O   UNL     1      -0.394  -4.013  -0.532  1.00  0.00    -0.394 OA
HETATM   18  C   UNL     1      -1.398  -4.781   0.124  1.00  0.00     0.201 C 
ENDBRANCH  16  17
ENDBRANCH  15  16
ENDBRANCH  13  15
BRANCH   1  19
HETATM   19  N   UNL     1       2.708  -0.175  -0.093  1.00  0.00    -0.230 N 
HETATM   20  C   UNL     1       3.254   1.156   0.097  1.00  0.00     0.165 C 
HETATM   21  H   UNL     1       2.362  -0.333  -1.033  1.00  0.00     0.177 HD
ENDBRANCH   1  19
TORSDOF 4
