REMARK  8 active torsions:
REMARK  status: ('A' for Active; 'I' for Inactive)
REMARK    1  A    between atoms: N_2  and  C_17 
REMARK    2  A    between atoms: C_6  and  N_7 
REMARK    3  A    between atoms: N_10  and  C_26 
REMARK    4  A    between atoms: C_16  and  C_17 
REMARK    5  A    between atoms: C_16  and  C_25 
REMARK    6  A    between atoms: C_25  and  O_27 
REMARK    7  A    between atoms: C_26  and  C_29 
REMARK    8  A    between atoms: O_28  and  C_29 
ROOT
HETATM    1  C   UNL     1       0.390  -0.813   0.004  1.00  0.00     0.117 A 
HETATM    2  N   UNL     1       1.567   1.012   0.074  1.00  0.00    -0.326 N 
HETATM    3  C   UNL     1       0.276   0.566   0.018  1.00  0.00     0.140 A 
HETATM    4  N   UNL     1       1.716  -1.198   0.020  1.00  0.00    -0.346 N 
ATOM      5  HN  UNL     1       2.088  -2.147  -0.021  1.00  0.00     0.167 HD
HETATM    6  C   UNL     1      -0.806  -1.557  -0.012  1.00  0.00     0.115 A 
HETATM    7  C   UNL     1       2.392  -0.077   0.099  1.00  0.00     0.185 A 
HETATM    8  N   UNL     1      -0.850   1.303  -0.012  1.00  0.00    -0.336 N 
ATOM      9  HN  UNL     1      -0.881   2.322  -0.023  1.00  0.00     0.168 HD
HETATM   10  N   UNL     1      -1.976  -0.858  -0.017  1.00  0.00    -0.341 N 
ATOM     11  HN  UNL     1      -2.871  -1.348  -0.014  1.00  0.00     0.167 HD
HETATM   12  C   UNL     1      -1.935   0.493  -0.026  1.00  0.00     0.183 A 
ENDROOT
BRANCH   6  13
HETATM   13  N   UNL     1      -0.790  -2.957   0.019  1.00  0.00    -0.257 NA
HETATM   14  C   UNL     1      -2.004  -3.538   0.614  1.00  0.00     0.200 C 
HETATM   15  C   UNL     1      -1.993  -5.074   0.613  1.00  0.00     0.233 C 
HETATM   16  N   UNL     1      -1.422  -5.662  -0.514  1.00  0.00    -0.348 N 
HETATM   17  O   UNL     1      -2.610  -5.725   1.458  1.00  0.00    -0.272 OA
HETATM   18  C   UNL     1      -0.260  -5.034  -1.138  1.00  0.00     0.140 C 
HETATM   19  C   UNL     1      -0.448  -3.522  -1.294  1.00  0.00     0.117 C 
BRANCH  16  20
HETATM   20  C   UNL     1      -1.797  -7.022  -0.883  1.00  0.00     0.152 C 
BRANCH  20  21
HETATM   21  C   UNL     1      -3.296  -7.106  -1.223  1.00  0.00     0.186 C 
BRANCH  21  22
HETATM   22  O   UNL     1      -3.592  -6.218  -2.312  1.00  0.00    -0.394 OA
HETATM   23  C   UNL     1      -4.985  -6.193  -2.596  1.00  0.00     0.201 C 
ENDBRANCH  21  22
ENDBRANCH  20  21
ENDBRANCH  16  20
ENDBRANCH   6  13
BRANCH   2  24
HETATM   24  C   UNL     1       2.011   2.392   0.131  1.00  0.00     0.147 C 
BRANCH  24  25
HETATM   25  C   UNL     1       2.227   3.004  -1.248  1.00  0.00     0.040 C 
HETATM   26  C   UNL     1       3.318   2.365  -2.134  1.00  0.00     0.183 C 
HETATM   27  O   UNL     1       3.973   3.644  -2.303  1.00  0.00    -0.389 OA
HETATM   28  C   UNL     1       3.205   4.196  -1.204  1.00  0.00     0.183 C 
BRANCH  25  29
HETATM   29  C   UNL     1       0.951   3.266  -2.035  1.00  0.00     0.179 C 
BRANCH  29  30
HETATM   30  O   UNL     1       0.054   4.046  -1.254  1.00  0.00    -0.400 OA
HETATM   31  H   UNL     1      -0.509   3.418  -0.755  1.00  0.00     0.209 HD
ENDBRANCH  29  30
ENDBRANCH  25  29
ENDBRANCH  24  25
ENDBRANCH   2  24
TORSDOF 8
