REMARK  7 active torsions:
REMARK  status: ('A' for Active; 'I' for Inactive)
REMARK    1  A    between atoms: C_4  and  N_5 
REMARK    2  A    between atoms: C_8  and  S_9 
REMARK    3  A    between atoms: S_9  and  C_10 
REMARK    4  A    between atoms: C_10  and  C_11 
REMARK    5  A    between atoms: C_11  and  O_12 
REMARK    6  A    between atoms: C_11  and  C_13 
REMARK    7  A    between atoms: C_13  and  N_14 
ROOT
HETATM    1  C   UNL     1       7.808   3.875   0.133  1.00  0.00     0.146 C 
ENDROOT
BRANCH   1   2
HETATM    2  C   UNL     1       7.051   2.525   0.142  1.00  0.00     0.115 C 
BRANCH   2   3
HETATM    3  S   UNL     1       5.254   2.852   0.067  1.00  0.00    -0.091 SA
BRANCH   3   4
HETATM    4  C   UNL     1       4.534   1.231   0.172  1.00  0.00     0.145 A 
HETATM    5  N   UNL     1       5.307   0.134   0.240  1.00  0.00    -0.328 N 
HETATM    6  C   UNL     1       4.658  -1.041   0.309  1.00  0.00     0.081 A 
ATOM      7  HN  UNL     1       6.325   0.190   0.239  1.00  0.00     0.169 HD
HETATM    8  C   UNL     1       3.282  -1.145   0.335  1.00  0.00     0.066 A 
HETATM    9  C   UNL     1       2.574   0.031   0.251  1.00  0.00     0.010 A 
HETATM   10  C   UNL     1       1.076   0.047   0.272  1.00  0.00     0.068 C 
HETATM   11  N   UNL     1       3.190   1.223   0.167  1.00  0.00    -0.341 N 
ATOM     12  HN  UNL     1       2.657   2.090   0.102  1.00  0.00     0.167 HD
BRANCH   6  13
HETATM   13  N   UNL     1       5.432  -2.195   0.431  1.00  0.00    -0.289 NA
HETATM   14  H   UNL     1       5.151  -2.921  -0.219  1.00  0.00     0.125 HD
HETATM   15  H   UNL     1       6.411  -1.946   0.333  1.00  0.00     0.125 HD
ENDBRANCH   6  13
ENDBRANCH   3   4
ENDBRANCH   2   3
ENDBRANCH   1   2
BRANCH   1  16
HETATM   16  O   UNL     1       7.501   4.632   1.314  1.00  0.00    -0.393 OA
HETATM   17  H   UNL     1       7.512   4.045   2.089  1.00  0.00     0.210 HD
ENDBRANCH   1  16
BRANCH   1  18
HETATM   18  C   UNL     1       9.328   3.670   0.064  1.00  0.00     0.162 C 
BRANCH  18  19
HETATM   19  N   UNL     1      10.065   4.922  -0.029  1.00  0.00    -0.339 N 
HETATM   20  C   UNL     1      10.522   5.642   1.043  1.00  0.00     0.184 A 
HETATM   21  N   UNL     1      11.212   6.694   0.668  1.00  0.00    -0.350 N 
HETATM   22  C   UNL     1      11.181   6.670  -0.704  1.00  0.00     0.060 A 
ATOM     23  HN  UNL     1      11.672   7.380   1.266  1.00  0.00     0.166 HD
HETATM   24  C   UNL     1      11.749   7.565  -1.621  1.00  0.00     0.039 A 
HETATM   25  C   UNL     1      10.469   5.570  -1.172  1.00  0.00     0.062 A 
HETATM   26  C   UNL     1      11.595   7.345  -3.005  1.00  0.00    -0.054 A 
HETATM   27  C   UNL     1      12.222   8.329  -3.956  1.00  0.00     0.049 C 
HETATM   28  C   UNL     1      10.866   6.224  -3.458  1.00  0.00    -0.054 A 
HETATM   29  C   UNL     1      10.658   5.929  -4.922  1.00  0.00     0.049 C 
HETATM   30  C   UNL     1      10.292   5.321  -2.537  1.00  0.00     0.039 A 
ENDBRANCH  18  19
ENDBRANCH   1  18
TORSDOF 7
