REMARK  4 active torsions:
REMARK  status: ('A' for Active; 'I' for Inactive)
REMARK    1  A    between atoms: C_2  and  N_4 
REMARK    2  A    between atoms: N_4  and  C_13 
REMARK    3  A    between atoms: C_13  and  C_14 
REMARK    4  A    between atoms: C_15  and  O_18 
ROOT
HETATM    1  C   UNL     1      -0.013  -0.513  -0.019  1.00  0.00     0.053 A 
HETATM    2  C   UNL     1       0.946  -1.459  -0.476  1.00  0.00     0.118 A 
HETATM    3  C   UNL     1       0.344   0.833  -0.101  1.00  0.00     0.120 A 
HETATM    4  N   UNL     1       2.050  -0.931  -1.089  1.00  0.00    -0.338 N 
ATOM      5  HN  UNL     1       2.742  -1.554  -1.506  1.00  0.00     0.168 HD
HETATM    6  N   UNL     1       1.447   1.359  -0.638  1.00  0.00    -0.338 N 
ATOM      7  HN  UNL     1       1.662   2.356  -0.657  1.00  0.00     0.168 HD
HETATM    8  N   UNL     1      -0.627   1.584   0.503  1.00  0.00    -0.351 N 
HETATM    9  C   UNL     1      -1.321  -0.516   0.557  1.00  0.00     0.036 A 
HETATM   10  C   UNL     1       2.233   0.403  -1.148  1.00  0.00     0.183 A 
HETATM   11  C   UNL     1      -1.659   0.779   0.891  1.00  0.00     0.091 A 
HETATM   12  H   UNL     1      -0.563   2.585   0.618  1.00  0.00     0.166 HD
ENDROOT
BRANCH   2  13
HETATM   13  N   UNL     1       0.894  -2.852  -0.349  1.00  0.00    -0.370 N 
HETATM   14  C   UNL     1       2.194  -3.531  -0.378  1.00  0.00     0.151 C 
BRANCH  13  15
HETATM   15  C   UNL     1      -0.157  -3.542   0.397  1.00  0.00     0.128 C 
BRANCH  15  16
HETATM   16  C   UNL     1      -1.329  -3.944  -0.489  1.00  0.00     0.008 C 
HETATM   17  C   UNL     1      -2.487  -4.671   0.256  1.00  0.00     0.038 C 
HETATM   18  C   UNL     1      -2.743  -5.440  -1.062  1.00  0.00     0.119 C 
HETATM   19  C   UNL     1      -1.229  -5.242  -1.347  1.00  0.00     0.038 C 
BRANCH  18  20
HETATM   20  O   UNL     1      -3.196  -6.795  -0.915  1.00  0.00    -0.396 OA
HETATM   21  H   UNL     1      -4.076  -6.721  -0.507  1.00  0.00     0.210 HD
ENDBRANCH  18  20
ENDBRANCH  15  16
ENDBRANCH  13  15
ENDBRANCH   2  13
TORSDOF 4
