REMARK  1 active torsions:
REMARK  status: ('A' for Active; 'I' for Inactive)
REMARK    1  A    between atoms: C_6  and  C_9 
ROOT
HETATM    1  O   UNL     1       2.646   1.391   1.307  1.00  0.00    -0.268 OA
HETATM    2  C   UNL     1       3.059   0.598   0.468  1.00  0.00     0.247 C 
HETATM    3  C   UNL     1       2.600   0.751  -0.939  1.00  0.00     0.091 C 
HETATM    4  C   UNL     1       2.932  -0.204  -1.808  1.00  0.00     0.095 C 
HETATM    5  N   UNL     1       3.720  -1.251  -1.426  1.00  0.00    -0.355 N 
HETATM    6  C   UNL     1       4.281  -1.265  -0.169  1.00  0.00     0.088 C 
HETATM    7  N   UNL     1       3.970  -0.400   0.748  1.00  0.00    -0.313 N 
ATOM      8  HN  UNL     1       4.398  -0.458   1.672  1.00  0.00     0.170 HD
HETATM    9  H   UNL     1       4.045  -1.891  -2.144  1.00  0.00     0.166 HD
ENDROOT
BRANCH   6  10
HETATM   10  C   UNL     1       5.401  -2.281   0.115  1.00  0.00     0.057 C 
HETATM   11  C   UNL     1       4.968  -3.747  -0.026  1.00  0.00     0.038 C 
HETATM   12  C   UNL     1       4.422  -4.368   1.257  1.00  0.00     0.168 C 
HETATM   13  O   UNL     1       5.225  -4.057   2.390  1.00  0.00    -0.391 OA
HETATM   14  C   UNL     1       5.317  -2.648   2.599  1.00  0.00     0.168 C 
HETATM   15  C   UNL     1       6.105  -2.035   1.453  1.00  0.00     0.038 C 
ENDBRANCH   6  10
TORSDOF 1
