REMARK  4 active torsions:
REMARK  status: ('A' for Active; 'I' for Inactive)
REMARK    1  A    between atoms: C_6  and  N_7 
REMARK       I    between atoms: N_7  and  C_8 
REMARK       I    between atoms: C_8  and  N_10 
REMARK    2  A    between atoms: N_10  and  C_11 
REMARK    3  A    between atoms: C_11  and  C_12 
REMARK    4  A    between atoms: C_17  and  O_18 
ROOT
HETATM    1  N   UNL     1       5.869  -2.776   0.143  1.00  0.00    -0.295 N 
HETATM    2  C   UNL     1       5.274  -3.988   0.398  1.00  0.00     0.321 C 
HETATM    3  O   UNL     1       4.949  -4.291   1.542  1.00  0.00    -0.247 OA
HETATM    4  N   UNL     1       5.151  -4.820  -0.674  1.00  0.00    -0.342 N 
HETATM    5  H   UNL     1       6.079  -2.238   0.972  1.00  0.00     0.172 HD
HETATM    6  H   UNL     1       5.451  -4.417  -1.558  1.00  0.00     0.164 HD
ENDROOT
BRANCH   1   7
HETATM    7  C   UNL     1       6.256  -2.286  -1.111  1.00  0.00     0.109 A 
HETATM    8  C   UNL     1       7.115  -1.204  -1.195  1.00  0.00     0.049 A 
HETATM    9  C   UNL     1       7.537  -0.803  -2.467  1.00  0.00     0.006 A 
HETATM   10  C   UNL     1       7.056  -1.451  -3.602  1.00  0.00     0.025 A 
HETATM   11  C   UNL     1       6.166  -2.493  -3.433  1.00  0.00     0.007 A 
HETATM   12  C   UNL     1       5.513  -3.208  -4.579  1.00  0.00     0.068 C 
HETATM   13  N   UNL     1       5.789  -2.912  -2.212  1.00  0.00    -0.346 N 
ATOM     14  HN  UNL     1       5.151  -3.702  -2.118  1.00  0.00     0.167 HD
ENDBRANCH   1   7
BRANCH   4  15
HETATM   15  C   UNL     1       4.741  -6.200  -0.660  1.00  0.00     0.131 C 
BRANCH  15  16
HETATM   16  C   UNL     1       5.907  -7.152  -0.343  1.00  0.00     0.032 C 
HETATM   17  C   UNL     1       7.069  -7.071  -1.368  1.00  0.00     0.009 C 
HETATM   18  C   UNL     1       6.933  -7.967  -2.603  1.00  0.00     0.001 C 
HETATM   19  C   UNL     1       6.514  -9.387  -2.250  1.00  0.00     0.002 C 
HETATM   20  C   UNL     1       5.228  -9.369  -1.442  1.00  0.00     0.032 C 
HETATM   21  C   UNL     1       5.438  -8.608  -0.134  1.00  0.00     0.123 C 
BRANCH  21  22
HETATM   22  O   UNL     1       4.252  -8.684   0.648  1.00  0.00    -0.395 OA
HETATM   23  H   UNL     1       3.491  -8.444   0.094  1.00  0.00     0.210 HD
ENDBRANCH  21  22
ENDBRANCH  15  16
ENDBRANCH   4  15
TORSDOF 4
