REMARK  7 active torsions:
REMARK  status: ('A' for Active; 'I' for Inactive)
REMARK    1  A    between atoms: C_2  and  C_4 
REMARK    2  A    between atoms: C_7  and  O_8 
REMARK    3  A    between atoms: O_8  and  C_9 
REMARK    4  A    between atoms: C_9  and  C_10 
REMARK    5  A    between atoms: C_10  and  O_11 
REMARK    6  A    between atoms: C_10  and  C_12 
REMARK    7  A    between atoms: C_12  and  N_13 
ROOT
HETATM    1  C   UNL     1       5.368  -7.212  -1.820  1.00  0.00     0.160 C 
ENDROOT
BRANCH   1   2
HETATM    2  C   UNL     1       4.589  -6.070  -1.147  1.00  0.00     0.209 C 
BRANCH   2   3
HETATM    3  O   UNL     1       4.567  -6.333   0.262  1.00  0.00    -0.349 OA
BRANCH   3   4
HETATM    4  C   UNL     1       3.930  -5.422   1.054  1.00  0.00     0.068 A 
HETATM    5  C   UNL     1       3.458  -5.926   2.269  1.00  0.00     0.037 A 
HETATM    6  C   UNL     1       2.831  -5.085   3.191  1.00  0.00     0.018 A 
HETATM    7  C   UNL     1       2.705  -3.719   2.918  1.00  0.00     0.009 A 
HETATM    8  C   UNL     1       3.171  -3.214   1.699  1.00  0.00     0.018 A 
HETATM    9  C   UNL     1       3.779  -4.066   0.768  1.00  0.00     0.037 A 
BRANCH   7  10
HETATM   10  C   UNL     1       2.092  -2.842   3.952  1.00  0.00     0.155 C 
HETATM   11  C   UNL     1       2.517  -1.398   4.005  1.00  0.00     0.096 C 
HETATM   12  O   UNL     1       1.292  -3.313   4.756  1.00  0.00    -0.293 OA
ENDBRANCH   7  10
ENDBRANCH   3   4
ENDBRANCH   2   3
ENDBRANCH   1   2
BRANCH   1  13
HETATM   13  O   UNL     1       6.724  -7.164  -1.350  1.00  0.00    -0.392 OA
HETATM   14  H   UNL     1       6.694  -7.093  -0.377  1.00  0.00     0.210 HD
ENDBRANCH   1  13
BRANCH   1  15
HETATM   15  C   UNL     1       4.747  -8.577  -1.501  1.00  0.00     0.164 C 
BRANCH  15  16
HETATM   16  N   UNL     1       5.408  -9.672  -2.186  1.00  0.00    -0.339 N 
HETATM   17  C   UNL     1       6.430 -10.417  -1.662  1.00  0.00     0.184 A 
HETATM   18  N   UNL     1       6.796 -11.382  -2.473  1.00  0.00    -0.350 N 
HETATM   19  C   UNL     1       5.984 -11.251  -3.572  1.00  0.00     0.060 A 
ATOM     20  HN  UNL     1       7.526 -12.078  -2.320  1.00  0.00     0.166 HD
HETATM   21  C   UNL     1       5.948 -12.020  -4.745  1.00  0.00     0.032 A 
HETATM   22  C   UNL     1       5.097 -10.186  -3.422  1.00  0.00     0.062 A 
HETATM   23  C   UNL     1       5.015 -11.693  -5.736  1.00  0.00     0.002 A 
HETATM   24  C   UNL     1       4.134 -10.622  -5.563  1.00  0.00     0.002 A 
HETATM   25  C   UNL     1       4.157  -9.843  -4.401  1.00  0.00     0.032 A 
ENDBRANCH  15  16
ENDBRANCH   1  15
TORSDOF 7
