REMARK  6 active torsions:
REMARK  status: ('A' for Active; 'I' for Inactive)
REMARK       I    between atoms: N_2  and  C_3 
REMARK    1  A    between atoms: C_3  and  C_5 
REMARK    2  A    between atoms: C_9  and  N_10 
REMARK    3  A    between atoms: N_10  and  C_11 
REMARK    4  A    between atoms: C_11  and  C_12 
REMARK    5  A    between atoms: N_14  and  C_15 
REMARK    6  A    between atoms: C_15  and  C_16 
ROOT
HETATM    1  N   UNL     1       7.254  -1.193  -0.129  1.00  0.00    -0.374 N 
HETATM    2  H   UNL     1       7.816  -1.276   0.719  1.00  0.00     0.161 HD
ENDROOT
BRANCH   1   3
HETATM    3  C   UNL     1       6.477  -0.046  -0.112  1.00  0.00     0.101 A 
HETATM    4  C   UNL     1       7.125   1.125   0.305  1.00  0.00     0.048 A 
HETATM    5  C   UNL     1       6.469   2.349   0.278  1.00  0.00     0.006 A 
HETATM    6  C   UNL     1       5.165   2.386  -0.176  1.00  0.00     0.035 A 
HETATM    7  C   UNL     1       4.581   1.189  -0.573  1.00  0.00     0.102 A 
HETATM    8  N   UNL     1       5.207  -0.031  -0.560  1.00  0.00    -0.338 N 
ATOM      9  HN  UNL     1       4.737  -0.880  -0.872  1.00  0.00     0.167 HD
BRANCH   7  10
HETATM   10  C   UNL     1       3.160   1.229  -1.043  1.00  0.00     0.267 C 
HETATM   11  N   UNL     1       2.620   0.006  -1.376  1.00  0.00    -0.360 N 
HETATM   12  C   UNL     1       1.250  -0.119  -1.795  1.00  0.00     0.149 C 
HETATM   13  H   UNL     1       3.224  -0.806  -1.274  1.00  0.00     0.162 HD
HETATM   14  O   UNL     1       2.532   2.280  -1.106  1.00  0.00    -0.266 OA
ENDBRANCH   7  10
ENDBRANCH   1   3
BRANCH   1  15
HETATM   15  C   UNL     1       6.752  -2.511  -0.520  1.00  0.00     0.155 C 
BRANCH  15  16
HETATM   16  C   UNL     1       7.980  -3.455  -0.410  1.00  0.00     0.167 C 
HETATM   17  C   UNL     1       7.777  -4.943  -0.788  1.00  0.00     0.305 C 
HETATM   18  N   UNL     1       7.349  -5.887   0.283  1.00  0.00     0.093 N 
HETATM   19  C   UNL     1       8.026  -5.553   1.553  1.00  0.00     0.298 C 
HETATM   20  C   UNL     1       7.915  -4.067   1.885  1.00  0.00     0.198 C 
HETATM   21  O   UNL     1       8.599  -3.301   0.892  1.00  0.00    -0.381 OA
BRANCH  18  22
HETATM   22  C   UNL     1       7.697  -7.269  -0.140  1.00  0.00     0.276 C 
BRANCH  22  23
HETATM   23  C   UNL     1       7.351  -8.418   0.836  1.00  0.00     0.006 C 
HETATM   24  C   UNL     1       5.854  -8.507   1.128  1.00  0.00     0.011 C 
HETATM   25  C   UNL     1       7.849  -9.748   0.257  1.00  0.00     0.011 C 
ENDBRANCH  22  23
ENDBRANCH  18  22
ENDBRANCH  15  16
ENDBRANCH   1  15
TORSDOF 6
