REMARK  4 active torsions:
REMARK  status: ('A' for Active; 'I' for Inactive)
REMARK    1  A    between atoms: N_1  and  C_7 
REMARK    2  A    between atoms: N_2  and  C_8 
REMARK    3  A    between atoms: C_7  and  C_9 
REMARK    4  A    between atoms: C_9  and  C_12 
ROOT
HETATM    1  N   UNL     1      -0.600   1.004  -0.162  1.00  0.00    -0.256 N 
HETATM    2  N   UNL     1      -0.363  -1.343  -0.098  1.00  0.00    -0.279 N 
HETATM    3  C   UNL     1      -1.162  -0.247  -0.404  1.00  0.00     0.334 C 
HETATM    4  C   UNL     1       0.740   1.213   0.131  1.00  0.00     0.292 C 
HETATM    5  C   UNL     1       1.552  -0.012   0.284  1.00  0.00     0.200 C 
HETATM    6  C   UNL     1       0.981  -1.211   0.191  1.00  0.00     0.146 C 
HETATM    7  O   UNL     1      -2.295  -0.380  -0.870  1.00  0.00    -0.246 OA
HETATM    8  O   UNL     1       1.254   2.325   0.228  1.00  0.00    -0.264 OA
HETATM    9  F   UNL     1       2.861   0.142   0.560  1.00  0.00    -0.199 F 
ENDROOT
BRANCH   1  10
HETATM   10  C   UNL     1      -1.455   2.174  -0.312  1.00  0.00     0.221 C 
BRANCH  10  11
HETATM   11  C   UNL     1      -2.068   2.686   0.996  1.00  0.00     0.177 C 
HETATM   12  O   UNL     1      -1.967   2.097   2.072  1.00  0.00    -0.291 OA
BRANCH  11  13
HETATM   13  C   UNL     1      -2.822   3.989   0.931  1.00  0.00     0.011 A 
HETATM   14  C   UNL     1      -3.117   4.593  -0.301  1.00  0.00     0.016 A 
HETATM   15  C   UNL     1      -3.701   5.863  -0.356  1.00  0.00     0.020 A 
HETATM   16  C   UNL     1      -4.011   6.531   0.821  1.00  0.00     0.011 A 
HETATM   17  C   UNL     1      -3.794   5.919   2.056  1.00  0.00     0.020 A 
HETATM   18 BR   UNL     1      -4.694   8.292   0.734  1.00  0.00    -0.051 Br
HETATM   19  C   UNL     1      -3.205   4.650   2.114  1.00  0.00     0.016 A 
ENDBRANCH  11  13
ENDBRANCH  10  11
ENDBRANCH   1  10
BRANCH   2  20
HETATM   20  C   UNL     1      -1.049  -2.609   0.062  1.00  0.00     0.232 C 
HETATM   21  O   UNL     1      -0.454  -3.387   1.110  1.00  0.00    -0.366 OA
HETATM   22  C   UNL     1      -0.858  -4.749   0.903  1.00  0.00     0.170 C 
HETATM   23  C   UNL     1      -1.571  -4.807  -0.439  1.00  0.00     0.031 C 
HETATM   24  C   UNL     1      -1.089  -3.546  -1.133  1.00  0.00     0.056 C 
ENDBRANCH   2  20
TORSDOF 4
