REMARK  3 active torsions:
REMARK  status: ('A' for Active; 'I' for Inactive)
REMARK       I    between atoms: N_2  and  C_3 
REMARK    1  A    between atoms: C_3  and  C_5 
REMARK    2  A    between atoms: C_5  and  C_6 
REMARK    3  A    between atoms: C_10  and  C_11 
ROOT
HETATM    1  C   UNL     1       5.223  -0.545  -3.003  1.00  0.00     0.113 A 
HETATM    2  N   UNL     1       5.296  -1.827  -3.367  1.00  0.00    -0.246 N 
ATOM      3  HN  UNL     1       5.045  -2.654  -2.826  1.00  0.00     0.196 HD
HETATM    4  O   UNL     1       5.797  -1.762  -4.664  1.00  0.00    -0.218 OA
HETATM    5  C   UNL     1       5.975  -0.429  -4.983  1.00  0.00     0.171 A 
HETATM    6  N   UNL     1       5.639   0.344  -3.960  1.00  0.00    -0.323 N 
ATOM      7  HN  UNL     1       5.680   1.361  -3.899  1.00  0.00     0.169 HD
ENDROOT
BRANCH   1   8
HETATM    8  C   UNL     1       4.703  -0.103  -1.693  1.00  0.00     0.181 C 
BRANCH   8   9
HETATM    9  C   UNL     1       5.821   0.105  -0.696  1.00  0.00     0.224 C 
HETATM   10  N   UNL     1       6.716   1.107  -1.021  1.00  0.00    -0.365 N 
HETATM   11  C   UNL     1       7.850   1.378  -0.175  1.00  0.00     0.149 C 
HETATM   12  H   UNL     1       6.725   1.454  -1.976  1.00  0.00     0.161 HD
HETATM   13  O   UNL     1       5.882  -0.523   0.359  1.00  0.00    -0.273 OA
ENDBRANCH   8   9
ENDBRANCH   1   8
BRANCH   5  14
HETATM   14  C   UNL     1       6.456  -0.023  -6.258  1.00  0.00     0.061 C 
HETATM   15  C   UNL     1       6.594   1.249  -6.657  1.00  0.00    -0.076 C 
HETATM   16  C   UNL     1       7.079   1.880  -7.948  1.00  0.00     0.034 C 
HETATM   17  C   UNL     1       6.332   2.595  -6.006  1.00  0.00     0.034 C 
HETATM   18  C   UNL     1       6.282   3.108  -7.461  1.00  0.00     0.009 C 
ENDBRANCH   5  14
TORSDOF 3
