REMARK  5 active torsions:
REMARK  status: ('A' for Active; 'I' for Inactive)
REMARK    1  A    between atoms: O_2  and  C_3 
REMARK    2  A    between atoms: C_3  and  C_4 
REMARK    3  A    between atoms: C_4  and  O_5 
REMARK    4  A    between atoms: O_5  and  C_6 
REMARK    5  A    between atoms: C_9  and  N_10 
REMARK       I    between atoms: N_10  and  C_11 
REMARK       I    between atoms: C_11  and  N_13 
ROOT
HETATM    1  C   UNL     1       6.554  -1.702  -1.663  1.00  0.00     0.141 A 
HETATM    2  C   UNL     1       7.076  -2.973  -1.511  1.00  0.00     0.058 A 
HETATM    3  C   UNL     1       8.316  -3.254  -2.080  1.00  0.00     0.035 A 
HETATM    4  C   UNL     1       9.009  -2.270  -2.785  1.00  0.00     0.051 A 
HETATM    5  C   UNL     1       8.399  -1.017  -2.856  1.00  0.00     0.119 A 
HETATM    6  N   UNL     1       7.188  -0.707  -2.317  1.00  0.00    -0.345 N 
ATOM      7  HN  UNL     1       6.783   0.225  -2.403  1.00  0.00     0.167 HD
ENDROOT
BRANCH   4   8
HETATM    8  N   UNL     1      10.280  -2.482  -3.391  1.00  0.00    -0.307 N 
HETATM    9  C   UNL     1      10.793  -3.721  -3.704  1.00  0.00     0.323 C 
HETATM   10  O   UNL     1      10.110  -4.737  -3.599  1.00  0.00    -0.247 OA
HETATM   11  N   UNL     1      12.111  -3.778  -4.136  1.00  0.00    -0.326 N 
HETATM   12  C   UNL     1      13.010  -2.630  -4.349  1.00  0.00     0.158 C 
HETATM   13  C   UNL     1      12.788  -5.079  -4.415  1.00  0.00     0.113 C 
HETATM   14  C   UNL     1      13.654  -2.666  -5.756  1.00  0.00     0.291 C 
HETATM   15  N   UNL     1      14.296  -3.942  -6.128  1.00  0.00     0.087 N 
HETATM   16  C   UNL     1      15.580  -4.132  -5.457  1.00  0.00     0.310 C 
HETATM   17  C   UNL     1      13.370  -5.062  -5.855  1.00  0.00     0.296 C 
HETATM   18  C   UNL     1      12.010  -6.387  -4.224  1.00  0.00     0.034 C 
HETATM   19  H   UNL     1      10.697  -1.677  -3.824  1.00  0.00     0.170 HD
ENDBRANCH   4   8
BRANCH   1  20
HETATM   20  O   UNL     1       5.372  -1.460  -0.998  1.00  0.00    -0.334 OA
BRANCH  20  21
HETATM   21  C   UNL     1       4.599  -0.402  -1.561  1.00  0.00     0.203 C 
BRANCH  21  22
HETATM   22  C   UNL     1       3.445  -0.116  -0.603  1.00  0.00     0.193 C 
BRANCH  22  23
HETATM   23  O   UNL     1       2.577   0.868  -1.163  1.00  0.00    -0.394 OA
HETATM   24  C   UNL     1       1.500   1.172  -0.285  1.00  0.00     0.201 C 
ENDBRANCH  22  23
ENDBRANCH  21  22
ENDBRANCH  20  21
ENDBRANCH   1  20
TORSDOF 5
