REMARK  3 active torsions:
REMARK  status: ('A' for Active; 'I' for Inactive)
REMARK    1  A    between atoms: C_2  and  C_4 
REMARK    2  A    between atoms: C_9  and  N_10 
REMARK       I    between atoms: N_10  and  C_11 
REMARK       I    between atoms: C_11  and  N_13 
REMARK    3  A    between atoms: N_13  and  C_14 
ROOT
HETATM    1  N   UNL     1       4.102  -1.965   4.930  1.00  0.00    -0.288 N 
HETATM    2  C   UNL     1       4.312  -3.272   5.284  1.00  0.00     0.322 C 
HETATM    3  O   UNL     1       4.279  -4.154   4.431  1.00  0.00    -0.247 OA
HETATM    4  N   UNL     1       4.454  -3.520   6.618  1.00  0.00    -0.338 N 
HETATM    5  H   UNL     1       3.832  -1.793   3.974  1.00  0.00     0.172 HD
HETATM    6  H   UNL     1       4.702  -2.726   7.202  1.00  0.00     0.164 HD
ENDROOT
BRANCH   1   7
HETATM    7  C   UNL     1       4.164  -0.923   5.812  1.00  0.00     0.169 A 
HETATM    8  N   UNL     1       4.621  -0.951   7.043  1.00  0.00    -0.279 N 
HETATM    9  N   UNL     1       4.462   0.248   7.681  1.00  0.00    -0.296 N 
ATOM     10  HN  UNL     1       5.046  -1.772   7.474  1.00  0.00     0.189 HD
HETATM   11  C   UNL     1       3.872   1.141   6.912  1.00  0.00     0.073 A 
ATOM     12  HN  UNL     1       4.764   0.430   8.638  1.00  0.00     0.187 HD
HETATM   13  S   UNL     1       3.556   0.583   5.308  1.00  0.00    -0.037 SA
BRANCH  11  14
HETATM   14  C   UNL     1       3.494   2.514   7.383  1.00  0.00     0.036 C 
HETATM   15  C   UNL     1       2.651   2.410   8.659  1.00  0.00     0.016 C 
HETATM   16  C   UNL     1       4.752   3.341   7.649  1.00  0.00     0.016 C 
ENDBRANCH  11  14
ENDBRANCH   1   7
BRANCH   4  17
HETATM   17  C   UNL     1       4.593  -4.824   7.221  1.00  0.00     0.086 C 
HETATM   18  C   UNL     1       3.999  -4.837   8.635  1.00  0.00     0.025 C 
HETATM   19  C   UNL     1       4.966  -5.634   9.507  1.00  0.00     0.002 C 
HETATM   20  C   UNL     1       6.012  -6.202   8.561  1.00  0.00     0.002 C 
HETATM   21  C   UNL     1       6.055  -5.213   7.409  1.00  0.00     0.025 C 
ENDBRANCH   4  17
TORSDOF 3
