REMARK  3 active torsions:
REMARK  status: ('A' for Active; 'I' for Inactive)
REMARK    1  A    between atoms: S_2  and  C_3 
REMARK    2  A    between atoms: C_5  and  N_6 
REMARK       I    between atoms: N_6  and  C_7 
REMARK       I    between atoms: C_7  and  N_9 
REMARK    3  A    between atoms: N_9  and  C_10 
ROOT
HETATM    1  N   UNL     1       3.646  -1.667  -5.177  1.00  0.00    -0.309 N 
HETATM    2  C   UNL     1       3.878  -0.314  -5.319  1.00  0.00     0.321 C 
HETATM    3  O   UNL     1       3.540   0.560  -4.533  1.00  0.00    -0.247 OA
HETATM    4  N   UNL     1       4.513  -0.015  -6.509  1.00  0.00    -0.338 N 
HETATM    5  H   UNL     1       3.688  -2.209  -6.028  1.00  0.00     0.170 HD
HETATM    6  H   UNL     1       5.112  -0.726  -6.903  1.00  0.00     0.164 HD
ENDROOT
BRANCH   1   7
HETATM    7  C   UNL     1       3.044  -2.276  -4.046  1.00  0.00     0.040 A 
HETATM    8  C   UNL     1       2.928  -1.630  -2.813  1.00  0.00     0.066 A 
HETATM    9  C   UNL     1       2.291  -2.272  -1.759  1.00  0.00     0.071 A 
HETATM   10  N   UNL     1       1.792  -3.521  -1.862  1.00  0.00    -0.360 N 
HETATM   11  C   UNL     1       1.933  -4.142  -3.053  1.00  0.00     0.091 A 
ATOM     12  HN  UNL     1       1.329  -3.976  -1.075  1.00  0.00     0.165 HD
HETATM   13  C   UNL     1       2.548  -3.573  -4.159  1.00  0.00     0.046 A 
BRANCH   9  14
HETATM   14  S   UNL     1       2.129  -1.392  -0.212  1.00  0.00    -0.117 SA
HETATM   15  C   UNL     1       1.156  -2.576   0.746  1.00  0.00     0.097 C 
ENDBRANCH   9  14
ENDBRANCH   1   7
BRANCH   4  16
HETATM   16  C   UNL     1       4.788   1.388  -6.844  1.00  0.00     0.089 C 
HETATM   17  C   UNL     1       4.865   1.605  -8.354  1.00  0.00     0.055 C 
HETATM   18  C   UNL     1       6.208   1.171  -8.936  1.00  0.00     0.274 C 
HETATM   19  N   UNL     1       7.373   1.763  -8.274  1.00  0.00     0.084 N 
HETATM   20  C   UNL     1       7.576   3.163  -8.641  1.00  0.00     0.309 C 
HETATM   21  C   UNL     1       7.342   1.555  -6.823  1.00  0.00     0.274 C 
HETATM   22  C   UNL     1       6.031   1.950  -6.141  1.00  0.00     0.055 C 
ENDBRANCH   4  16
TORSDOF 3
