REMARK  2 active torsions:
REMARK  status: ('A' for Active; 'I' for Inactive)
REMARK    1  A    between atoms: C_5  and  N_6 
REMARK       I    between atoms: N_6  and  C_7 
REMARK       I    between atoms: C_7  and  N_9 
REMARK    2  A    between atoms: N_9  and  C_10 
ROOT
HETATM    1  N   UNL     1       6.825   0.307  -0.977  1.00  0.00    -0.295 N 
HETATM    2  C   UNL     1       7.649   1.369  -0.730  1.00  0.00     0.322 C 
HETATM    3  O   UNL     1       7.177   2.416  -0.289  1.00  0.00    -0.247 OA
HETATM    4  N   UNL     1       8.968   1.201  -1.025  1.00  0.00    -0.338 N 
HETATM    5  H   UNL     1       5.858   0.492  -0.740  1.00  0.00     0.172 HD
HETATM    6  H   UNL     1       9.219   0.274  -1.366  1.00  0.00     0.164 HD
ENDROOT
BRANCH   1   7
HETATM    7  C   UNL     1       7.140  -0.901  -1.610  1.00  0.00     0.108 A 
HETATM    8  C   UNL     1       6.120  -1.807  -1.863  1.00  0.00     0.049 A 
HETATM    9  C   UNL     1       6.423  -2.978  -2.562  1.00  0.00     0.012 A 
HETATM   10  C   UNL     1       7.728  -3.207  -2.996  1.00  0.00    -0.046 A 
HETATM   11  C   UNL     1       8.117  -4.414  -3.785  1.00  0.00     0.049 C 
HETATM   12  C   UNL     1       8.683  -2.257  -2.673  1.00  0.00     0.096 A 
HETATM   13  N   UNL     1       8.417  -1.125  -1.994  1.00  0.00    -0.352 N 
ATOM     14  HN  UNL     1       9.156  -0.457  -1.776  1.00  0.00     0.166 HD
ENDBRANCH   1   7
BRANCH   4  15
HETATM   15  C   UNL     1       9.948   2.268  -1.054  1.00  0.00     0.086 C 
HETATM   16  C   UNL     1      10.977   2.016  -2.169  1.00  0.00     0.025 C 
HETATM   17  C   UNL     1      12.126   1.095  -1.766  1.00  0.00     0.002 C 
HETATM   18  C   UNL     1      12.787   1.589  -0.488  1.00  0.00     0.000 C 
HETATM   19  C   UNL     1      11.776   1.613   0.650  1.00  0.00     0.002 C 
HETATM   20  C   UNL     1      10.573   2.501   0.330  1.00  0.00     0.025 C 
ENDBRANCH   4  15
TORSDOF 2
