REMARK  4 active torsions:
REMARK  status: ('A' for Active; 'I' for Inactive)
REMARK    1  A    between atoms: C_2  and  N_5 
REMARK       I    between atoms: N_5  and  C_6 
REMARK    2  A    between atoms: C_6  and  C_8 
REMARK    3  A    between atoms: C_8  and  C_9 
REMARK    4  A    between atoms: C_12  and  N_15 
ROOT
HETATM    1  C   UNL     1       6.512   1.118   3.169  1.00  0.00     0.026 A 
HETATM    2  C   UNL     1       7.364   0.383   3.973  1.00  0.00     0.078 A 
HETATM    3  S   UNL     1       8.931   1.080   3.944  1.00  0.00    -0.064 SA
HETATM    4  C   UNL     1       8.373   2.300   2.874  1.00  0.00     0.155 A 
HETATM    5  N   UNL     1       7.115   2.179   2.517  1.00  0.00    -0.339 N 
ATOM      6  HN  UNL     1       6.644   2.787   1.847  1.00  0.00     0.168 HD
ENDROOT
BRANCH   1   7
HETATM    7  C   UNL     1       5.048   0.918   2.977  1.00  0.00     0.160 C 
BRANCH   7   8
HETATM    8  C   UNL     1       4.661   0.471   1.578  1.00  0.00     0.223 C 
HETATM    9  N   UNL     1       5.387   1.019   0.545  1.00  0.00    -0.353 N 
HETATM   10  H   UNL     1       6.111   1.700   0.794  1.00  0.00     0.163 HD
HETATM   11  O   UNL     1       3.704  -0.285   1.412  1.00  0.00    -0.273 OA
BRANCH   9  12
HETATM   12  C   UNL     1       5.170   0.752  -0.882  1.00  0.00     0.022 C 
HETATM   13  C   UNL     1       3.796   1.276  -1.329  1.00  0.00     0.037 C 
HETATM   14  C   UNL     1       5.288  -0.751  -1.182  1.00  0.00     0.037 C 
HETATM   15  C   UNL     1       6.257   1.488  -1.687  1.00  0.00     0.037 C 
ENDBRANCH   9  12
ENDBRANCH   7   8
ENDBRANCH   1   7
BRANCH   4  16
HETATM   16  N   UNL     1       9.226   3.340   2.513  1.00  0.00    -0.280 N 
HETATM   17  C   UNL     1      10.397   3.745   3.279  1.00  0.00     0.137 C 
HETATM   18  C   UNL     1      10.429   5.254   3.429  1.00  0.00     0.040 C 
HETATM   19  C   UNL     1      10.486   5.846   2.041  1.00  0.00     0.126 C 
HETATM   20  N   UNL     1       9.504   5.245   1.175  1.00  0.00    -0.343 N 
HETATM   21  C   UNL     1       8.886   4.036   1.356  1.00  0.00     0.324 C 
HETATM   22  H   UNL     1       9.254   5.701   0.306  1.00  0.00     0.164 HD
HETATM   23  O   UNL     1       8.099   3.674   0.481  1.00  0.00    -0.247 OA
ENDBRANCH   4  16
TORSDOF 4
