REMARK  5 active torsions:
REMARK  status: ('A' for Active; 'I' for Inactive)
REMARK    1  A    between atoms: C_4  and  N_5 
REMARK       I    between atoms: N_5  and  C_6 
REMARK       I    between atoms: C_6  and  N_8 
REMARK    2  A    between atoms: N_8  and  C_9 
REMARK    3  A    between atoms: C_9  and  C_14 
REMARK       I    between atoms: C_14  and  N_16 
REMARK    4  A    between atoms: N_16  and  C_17 
REMARK    5  A    between atoms: C_17  and  C_18 
ROOT
HETATM    1  N   UNL     1       5.185   2.731  -0.015  1.00  0.00    -0.314 N 
HETATM    2  C   UNL     1       4.424   3.873   0.081  1.00  0.00     0.299 C 
HETATM    3  O   UNL     1       3.286   3.925   0.538  1.00  0.00    -0.254 OA
HETATM    4  N   UNL     1       5.085   4.998  -0.385  1.00  0.00    -0.226 NA
HETATM    5  H   UNL     1       6.185   2.869   0.014  1.00  0.00     0.170 HD
HETATM    6  H   UNL     1       5.598   4.796  -1.236  1.00  0.00     0.133 HD
ENDROOT
BRANCH   4   7
HETATM    7  C   UNL     1       4.301   6.256  -0.451  1.00  0.00     0.100 C 
HETATM    8  C   UNL     1       5.190   7.457  -0.822  1.00  0.00     0.035 C 
HETATM    9  C   UNL     1       4.629   8.674  -0.080  1.00  0.00     0.002 C 
HETATM   10  C   UNL     1       3.650   8.160   0.962  1.00  0.00     0.002 C 
HETATM   11  C   UNL     1       3.779   6.647   0.944  1.00  0.00     0.035 C 
BRANCH   7  12
HETATM   12  C   UNL     1       3.261   6.041  -1.606  1.00  0.00     0.241 C 
HETATM   13  O   UNL     1       3.500   5.259  -2.532  1.00  0.00    -0.271 OA
HETATM   14  N   UNL     1       2.150   6.850  -1.631  1.00  0.00    -0.359 N 
HETATM   15  H   UNL     1       1.926   7.429  -0.839  1.00  0.00     0.162 HD
BRANCH  14  16
HETATM   16  C   UNL     1       1.118   6.642  -2.620  1.00  0.00     0.127 C 
BRANCH  16  17
HETATM   17  C   UNL     1      -0.045   7.533  -2.321  1.00  0.00     0.003 A 
HETATM   18  C   UNL     1      -0.930   7.265  -1.129  1.00  0.00     0.007 A 
HETATM   19  C   UNL     1      -1.459   7.044  -2.518  1.00  0.00     0.007 A 
ENDBRANCH  16  17
ENDBRANCH  14  16
ENDBRANCH   7  12
ENDBRANCH   4   7
BRANCH   1  20
HETATM   20  C   UNL     1       4.682   1.431   0.240  1.00  0.00     0.039 A 
HETATM   21  C   UNL     1       3.324   1.124   0.135  1.00  0.00     0.054 A 
HETATM   22  C   UNL     1       2.884  -0.162   0.433  1.00  0.00     0.007 A 
HETATM   23  C   UNL     1       1.428  -0.507   0.326  1.00  0.00     0.068 C 
HETATM   24  N   UNL     1       3.731  -1.148   0.804  1.00  0.00    -0.369 N 
HETATM   25  C   UNL     1       5.044  -0.838   0.873  1.00  0.00     0.090 A 
ATOM     26  HN  UNL     1       3.393  -2.085   1.022  1.00  0.00     0.165 HD
HETATM   27  C   UNL     1       5.566   0.418   0.592  1.00  0.00     0.046 A 
ENDBRANCH   1  20
TORSDOF 5
