REMARK  5 active torsions:
REMARK  status: ('A' for Active; 'I' for Inactive)
REMARK       I    between atoms: N_1  and  C_2 
REMARK    1  A    between atoms: C_2  and  C_4 
REMARK    2  A    between atoms: C_4  and  N_10 
REMARK    3  A    between atoms: N_10  and  C_11 
REMARK    4  A    between atoms: C_11  and  C_12 
REMARK    5  A    between atoms: C_12  and  N_13 
ROOT
HETATM    1  C   UNL     1       3.202  -1.000  -0.892  1.00  0.00     0.236 C 
HETATM    2  C   UNL     1       2.222  -1.944  -1.640  1.00  0.00     0.052 C 
HETATM    3  C   UNL     1       1.534  -2.962  -0.734  1.00  0.00     0.003 C 
HETATM    4  C   UNL     1       2.547  -3.750   0.088  1.00  0.00     0.000 C 
HETATM    5  C   UNL     1       3.435  -2.823   0.907  1.00  0.00     0.003 C 
HETATM    6  C   UNL     1       4.164  -1.811   0.014  1.00  0.00     0.052 C 
ENDROOT
BRANCH   1   7
HETATM    7  C   UNL     1       2.397  -0.004   0.025  1.00  0.00     0.254 C 
HETATM    8  N   UNL     1       1.448   0.753  -0.605  1.00  0.00    -0.368 N 
HETATM    9  H   UNL     1       1.039   1.490  -0.042  1.00  0.00     0.159 HD
HETATM   10  H   UNL     1       1.569   0.927  -1.595  1.00  0.00     0.159 HD
HETATM   11  O   UNL     1       2.598   0.167   1.225  1.00  0.00    -0.271 OA
ENDBRANCH   1   7
BRANCH   1  12
HETATM   12  N   UNL     1       3.947  -0.121  -1.862  1.00  0.00     0.104 N 
HETATM   13  H   UNL     1       4.579   0.466  -1.308  1.00  0.00     0.317 HD
BRANCH  12  14
HETATM   14  C   UNL     1       4.746  -0.848  -2.867  1.00  0.00     0.292 C 
BRANCH  14  15
HETATM   15  C   UNL     1       5.509   0.072  -3.826  1.00  0.00     0.178 C 
BRANCH  15  16
HETATM   16  N   UNL     1       6.264  -0.719  -4.787  1.00  0.00    -0.302 N 
HETATM   17  C   UNL     1       5.824  -1.182  -5.996  1.00  0.00     0.111 A 
HETATM   18  C   UNL     1       6.850  -1.940  -6.509  1.00  0.00     0.037 A 
HETATM   19  C   UNL     1       7.864  -1.873  -5.536  1.00  0.00     0.108 A 
HETATM   20  N   UNL     1       7.509  -1.134  -4.482  1.00  0.00    -0.310 N 
ATOM     21  HN  UNL     1       8.053  -0.931  -3.643  1.00  0.00     0.186 HD
ENDBRANCH  15  16
ENDBRANCH  14  15
ENDBRANCH  12  14
ENDBRANCH   1  12
TORSDOF 5
