REMARK  5 active torsions:
REMARK  status: ('A' for Active; 'I' for Inactive)
REMARK    1  A    between atoms: CA_2  and  C_3 
REMARK    2  A    between atoms: CA_2  and  N_5 
REMARK    3  A    between atoms: C_3  and  O_4 
REMARK       I    between atoms: N_5  and  C_8 
REMARK       I    between atoms: C_8  and  N_10 
REMARK    4  A    between atoms: N_10  and  C_11 
REMARK    5  A    between atoms: C_17  and  N_18 
ROOT
HETATM    1  C   UNK A   0       6.204   1.425   2.928  1.00  0.00     0.060 A 
HETATM    2  C   UNK A   0       6.866   2.657   3.034  1.00  0.00     0.029 A 
HETATM    3  C   UNK A   0       8.190   2.694   3.445  1.00  0.00     0.019 A 
HETATM    4  C   UNK A   0       8.789   1.496   3.768  1.00  0.00     0.090 A 
HETATM    5  N   UNK A   0       8.159   0.300   3.728  1.00  0.00    -0.351 N 
ATOM      6  HN  UNK A   0       8.649  -0.547   4.015  1.00  0.00     0.166 HD
HETATM    7  C   UNK A   0       6.869   0.232   3.303  1.00  0.00     0.125 A 
ENDROOT
BRANCH   1   8
HETATM    8  N   UNK A   0       4.845   1.465   2.517  1.00  0.00    -0.207 NA
HETATM    9  C   UNK A   0       4.576   1.315   1.169  1.00  0.00     0.299 C 
ATOM     10  N   ALA A   1       3.220   1.381   0.935  1.00  0.00    -0.341 N 
HETATM   11  O   UNK A   0       5.403   1.154   0.281  1.00  0.00    -0.254 OA
ATOM     12  H   ALA A   1       2.625   1.112   1.708  1.00  0.00     0.164 HD
HETATM   13  H   UNK A   0       4.343   2.277   2.848  1.00  0.00     0.138 HD
BRANCH  10  14
ATOM     14  CA  ALA A   1       2.676   1.165  -0.406  1.00  0.00     0.105 C 
ATOM     15  CB  ALA A   1       2.588  -0.334  -0.707  1.00  0.00     0.034 C 
BRANCH  14  16
ATOM     16  C   ALA A   1       1.315   1.857  -0.538  1.00  0.00     0.189 C 
BRANCH  16  17
ATOM     17  O   ALA A   1       0.344   1.279   0.335  1.00  0.00    -0.399 OA
ATOM     18  H   ALA A   1       0.009   0.474  -0.098  1.00  0.00     0.209 HD
ENDBRANCH  16  17
ENDBRANCH  14  16
ENDBRANCH  10  14
ENDBRANCH   1   8
BRANCH   7  19
HETATM   19  N   UNK A   0       6.244  -1.005   3.383  1.00  0.00    -0.366 N 
HETATM   20  C   UNK A   0       5.344  -1.476   2.338  1.00  0.00     0.124 C 
HETATM   21  C   UNK A   0       5.250  -2.983   2.557  1.00  0.00     0.021 C 
HETATM   22  C   UNK A   0       6.592  -3.341   3.161  1.00  0.00     0.021 C 
HETATM   23  C   UNK A   0       6.946  -2.125   4.013  1.00  0.00     0.124 C 
ENDBRANCH   7  19
TORSDOF 5
