REMARK  3 active torsions:
REMARK  status: ('A' for Active; 'I' for Inactive)
REMARK    1  A    between atoms: O_1  and  C_2 
REMARK    2  A    between atoms: C_2  and  CA_4 
REMARK    3  A    between atoms: C_10  and  N_11 
ROOT
HETATM    1  CA  UNL     1       2.678  -0.036   1.673  1.00  0.00     0.130 A 
HETATM    2  N   UNL     1       3.161  -1.281   1.961  1.00  0.00    -0.357 N 
ATOM      3  HN  UNL     1       2.761  -2.125   1.551  1.00  0.00     0.165 HD
HETATM    4  C   UNL     1       4.197  -1.325   2.819  1.00  0.00     0.115 A 
HETATM    5  C   UNL     1       4.733  -0.212   3.466  1.00  0.00     0.077 A 
HETATM    6 CL   UNL     1       5.944  -0.568   4.654  1.00  0.00    -0.080 Cl
HETATM    7  C   UNL     1       4.226   1.090   3.201  1.00  0.00     0.078 A 
HETATM    8  C   UNL     1       3.165   1.154   2.239  1.00  0.00     0.095 A 
HETATM    9 CL   UNL     1       2.511   2.675   1.716  1.00  0.00    -0.079 Cl
ENDROOT
BRANCH   7  10
HETATM   10  N   UNL     1       4.745   2.226   3.820  1.00  0.00    -0.374 N 
HETATM   11  C   UNL     1       3.926   3.309   4.403  1.00  0.00     0.149 C 
HETATM   12  C   UNL     1       4.399   4.661   3.829  1.00  0.00     0.187 C 
HETATM   13  O   UNL     1       5.793   4.874   4.117  1.00  0.00    -0.388 OA
HETATM   14  C   UNL     1       6.589   3.834   3.526  1.00  0.00     0.187 C 
HETATM   15  C   UNL     1       6.188   2.440   4.037  1.00  0.00     0.149 C 
ENDBRANCH   7  10
BRANCH   1  16
HETATM   16  C   UNL     1       1.533  -0.094   0.695  1.00  0.00     0.195 C 
HETATM   17  OXT UNL     1       1.100   0.809   0.001  1.00  0.00    -0.645 OA
BRANCH  16  18
HETATM   18  O   UNL     1       1.009  -1.348   0.679  1.00  0.00    -0.772 OA
HETATM   19  H   UNL     1       1.556  -1.939   1.248  1.00  0.00     0.167 HD
ENDBRANCH  16  18
ENDBRANCH   1  16
TORSDOF 3
