REMARK  6 active torsions:
REMARK  status: ('A' for Active; 'I' for Inactive)
REMARK    1  A    between atoms: N_2  and  C_4 
REMARK    2  A    between atoms: C_10  and  N_11 
REMARK       I    between atoms: N_11  and  C_12 
REMARK    3  A    between atoms: C_12  and  C_14 
REMARK    4  A    between atoms: C_14  and  O_15 
REMARK    5  A    between atoms: O_15  and  C_16 
REMARK    6  A    between atoms: C_16  and  C_17 
ROOT
HETATM    1  C   UNL     1       3.753  -3.171   0.187  1.00  0.00     0.129 A 
HETATM    2  N   UNL     1       4.295  -3.161   1.430  1.00  0.00    -0.351 N 
ATOM      3  HN  UNL     1       4.872  -3.938   1.752  1.00  0.00     0.166 HD
HETATM    4  C   UNL     1       4.055  -2.097   2.236  1.00  0.00     0.090 A 
HETATM    5  C   UNL     1       3.281  -1.008   1.877  1.00  0.00     0.019 A 
HETATM    6  C   UNL     1       2.696  -1.016   0.625  1.00  0.00     0.035 A 
HETATM    7  C   UNL     1       2.900  -2.115  -0.219  1.00  0.00     0.079 A 
ENDROOT
BRANCH   7   8
HETATM    8  N   UNL     1       2.187  -2.210  -1.423  1.00  0.00    -0.322 N 
HETATM    9  C   UNL     1       2.207  -1.216  -2.382  1.00  0.00     0.245 C 
HETATM   10  O   UNL     1       2.810  -0.150  -2.290  1.00  0.00    -0.271 OA
HETATM   11  H   UNL     1       2.011  -3.160  -1.740  1.00  0.00     0.169 HD
BRANCH   9  12
HETATM   12  C   UNL     1       1.382  -1.576  -3.614  1.00  0.00     0.270 C 
BRANCH  12  13
HETATM   13  O   UNL     1      -0.000  -1.717  -3.306  1.00  0.00    -0.382 OA
BRANCH  13  14
HETATM   14  C   UNL     1      -0.553  -0.480  -2.850  1.00  0.00     0.172 C 
BRANCH  14  15
HETATM   15  C   UNL     1      -1.999  -0.686  -2.548  1.00  0.00     0.009 A 
HETATM   16  C   UNL     1      -2.783   0.431  -1.911  1.00  0.00     0.007 A 
HETATM   17  C   UNL     1      -2.480  -0.814  -1.124  1.00  0.00     0.007 A 
ENDBRANCH  14  15
ENDBRANCH  13  14
ENDBRANCH  12  13
ENDBRANCH   9  12
ENDBRANCH   7   8
BRANCH   1  18
HETATM   18  N   UNL     1       4.081  -4.220  -0.708  1.00  0.00    -0.374 N 
HETATM   19  C   UNL     1       4.845  -5.308  -0.096  1.00  0.00     0.150 C 
HETATM   20  C   UNL     1       4.549  -3.795  -2.032  1.00  0.00     0.150 C 
ENDBRANCH   1  18
TORSDOF 6
