REMARK  7 active torsions:
REMARK  status: ('A' for Active; 'I' for Inactive)
REMARK    1  A    between atoms: C_2  and  C_3 
REMARK    2  A    between atoms: C_3  and  C_4 
REMARK    3  A    between atoms: C_4  and  O_5 
REMARK    4  A    between atoms: O_5  and  C_6 
REMARK    5  A    between atoms: C_6  and  C_7 
REMARK       I    between atoms: C_7  and  N_9 
REMARK    6  A    between atoms: N_9  and  C_10 
REMARK    7  A    between atoms: C_13  and  C_18 
ROOT
HETATM    1  C   UNL     1       8.547  -4.150  -4.315  1.00  0.00     0.122 A 
HETATM    2  C   UNL     1       9.780  -3.896  -4.889  1.00  0.00     0.052 A 
HETATM    3  C   UNL     1      10.268  -4.773  -5.862  1.00  0.00     0.030 A 
HETATM    4  C   UNL     1       9.522  -5.887  -6.232  1.00  0.00     0.030 A 
HETATM    5  N   UNL     1       8.363  -6.137  -5.591  1.00  0.00    -0.303 N 
ATOM      6  HN  UNL     1       7.839  -6.983  -5.814  1.00  0.00     0.186 HD
HETATM    7  N   UNL     1       7.874  -5.265  -4.637  1.00  0.00    -0.285 N 
ATOM      8  HN  UNL     1       6.990  -5.472  -4.172  1.00  0.00     0.188 HD
ENDROOT
BRANCH   1   9
HETATM    9  N   UNL     1       8.018  -3.205  -3.427  1.00  0.00    -0.310 N 
HETATM   10  C   UNL     1       6.726  -3.240  -2.937  1.00  0.00     0.246 C 
HETATM   11  O   UNL     1       5.875  -4.096  -3.155  1.00  0.00    -0.271 OA
HETATM   12  H   UNL     1       8.545  -2.361  -3.244  1.00  0.00     0.170 HD
BRANCH  10  13
HETATM   13  C   UNL     1       6.429  -2.073  -1.997  1.00  0.00     0.270 C 
BRANCH  13  14
HETATM   14  O   UNL     1       6.949  -0.846  -2.507  1.00  0.00    -0.382 OA
BRANCH  14  15
HETATM   15  C   UNL     1       6.512   0.264  -1.717  1.00  0.00     0.168 C 
BRANCH  15  16
HETATM   16  C   UNL     1       6.944   1.550  -2.412  1.00  0.00     0.026 C 
BRANCH  16  17
HETATM   17  C   UNL     1       6.617   2.785  -1.578  1.00  0.00    -0.002 C 
HETATM   18  C   UNL     1       7.065   4.059  -2.273  1.00  0.00     0.005 C 
ENDBRANCH  16  17
ENDBRANCH  15  16
ENDBRANCH  14  15
ENDBRANCH  13  14
ENDBRANCH  10  13
ENDBRANCH   1   9
BRANCH   4  19
HETATM   19  C   UNL     1       9.954  -6.801  -7.351  1.00  0.00     0.037 A 
HETATM   20  C   UNL     1      10.038  -6.269  -8.766  1.00  0.00     0.011 A 
HETATM   21  C   UNL     1       8.942  -7.223  -8.396  1.00  0.00     0.011 A 
ENDBRANCH   4  19
TORSDOF 7
