REMARK  10 active torsions:
REMARK  status: ('A' for Active; 'I' for Inactive)
REMARK    1  A    between atoms: N_2  and  C_13 
REMARK    2  A    between atoms: C_6  and  N_7 
REMARK    3  A    between atoms: C_13  and  C_14 
REMARK    4  A    between atoms: C_14  and  C_18 
REMARK    5  A    between atoms: C_14  and  C_21 
REMARK    6  A    between atoms: C_20  and  O_24 
REMARK    7  A    between atoms: C_21  and  O_23 
REMARK    8  A    between atoms: O_24  and  C_31 
REMARK    9  A    between atoms: O_25  and  C_30 
REMARK   10  A    between atoms: C_30  and  C_31 
ROOT
HETATM    1  C   UNL     1       0.355  -0.826  -0.375  1.00  0.00     0.117 A 
HETATM    2  N   UNL     1       1.491   1.045  -0.397  1.00  0.00    -0.327 N 
HETATM    3  C   UNL     1       0.216   0.547  -0.503  1.00  0.00     0.140 A 
HETATM    4  N   UNL     1       1.695  -1.167  -0.290  1.00  0.00    -0.346 N 
ATOM      5  HN  UNL     1       2.094  -2.104  -0.243  1.00  0.00     0.167 HD
HETATM    6  C   UNL     1      -0.837  -1.595  -0.317  1.00  0.00     0.114 A 
HETATM    7  C   UNL     1       2.342  -0.020  -0.283  1.00  0.00     0.185 A 
HETATM    8  N   UNL     1      -0.927   1.240  -0.633  1.00  0.00    -0.336 N 
ATOM      9  HN  UNL     1      -0.982   2.253  -0.740  1.00  0.00     0.168 HD
HETATM   10  N   UNL     1      -2.017  -0.928  -0.435  1.00  0.00    -0.341 N 
ATOM     11  HN  UNL     1      -2.904  -1.430  -0.397  1.00  0.00     0.167 HD
HETATM   12  C   UNL     1      -1.992   0.414  -0.603  1.00  0.00     0.183 A 
ENDROOT
BRANCH   6  13
HETATM   13  N   UNL     1      -0.806  -2.986  -0.139  1.00  0.00    -0.265 NA
HETATM   14  C   UNL     1      -1.956  -3.574   0.568  1.00  0.00     0.129 C 
HETATM   15  C   UNL     1      -1.633  -5.051   0.929  1.00  0.00     0.135 C 
HETATM   16  C   UNL     1      -1.204  -5.814  -0.337  1.00  0.00     0.034 C 
HETATM   17  C   UNL     1      -0.106  -5.093  -1.109  1.00  0.00     0.017 C 
HETATM   18  C   UNL     1      -0.495  -3.650  -1.406  1.00  0.00     0.097 C 
BRANCH  15  19
HETATM   19  O   UNL     1      -2.778  -5.678   1.541  1.00  0.00    -0.383 OA
BRANCH  19  20
HETATM   20  C   UNL     1      -2.488  -6.991   2.035  1.00  0.00     0.194 C 
BRANCH  20  21
HETATM   21  C   UNL     1      -3.705  -7.609   2.711  1.00  0.00     0.190 C 
BRANCH  21  22
HETATM   22  O   UNL     1      -3.395  -8.942   3.110  1.00  0.00    -0.399 OA
HETATM   23  H   UNL     1      -4.203  -9.320   3.497  1.00  0.00     0.209 HD
ENDBRANCH  21  22
ENDBRANCH  20  21
ENDBRANCH  19  20
ENDBRANCH  15  19
ENDBRANCH   6  13
BRANCH   2  24
HETATM   24  C   UNL     1       1.833   2.426  -0.128  1.00  0.00     0.138 C 
BRANCH  24  25
HETATM   25  C   UNL     1       2.826   3.120  -1.091  1.00  0.00     0.034 C 
BRANCH  25  26
HETATM   26  C   UNL     1       2.283   3.195  -2.547  1.00  0.00     0.019 C 
HETATM   27  C   UNL     1       3.237   3.808  -3.575  1.00  0.00     0.172 C 
HETATM   28  O   UNL     1       2.662   5.045  -3.996  1.00  0.00    -0.391 OA
HETATM   29  C   UNL     1       1.247   4.895  -3.903  1.00  0.00     0.168 C 
HETATM   30  C   UNL     1       1.000   4.003  -2.705  1.00  0.00     0.033 C 
ENDBRANCH  25  26
BRANCH  25  31
HETATM   31  C   UNL     1       3.174   4.480  -0.442  1.00  0.00     0.170 C 
BRANCH  31  32
HETATM   32  O   UNL     1       4.133   5.223  -1.166  1.00  0.00    -0.400 OA
HETATM   33  H   UNL     1       4.962   4.718  -1.203  1.00  0.00     0.209 HD
ENDBRANCH  31  32
ENDBRANCH  25  31
ENDBRANCH  24  25
ENDBRANCH   2  24
TORSDOF 10
