REMARK  4 active torsions:
REMARK  status: ('A' for Active; 'I' for Inactive)
REMARK    1  A    between atoms: N_5  and  C_6 
REMARK    2  A    between atoms: C_6  and  C_7 
REMARK    3  A    between atoms: C_7  and  N_8 
REMARK       I    between atoms: N_8  and  C_9 
REMARK       I    between atoms: C_9  and  N_11 
REMARK    4  A    between atoms: N_11  and  C_12 
ROOT
HETATM    1  N   UNL     1       6.685   0.185  -4.080  1.00  0.00    -0.341 N 
HETATM    2  C   UNL     1       7.247   1.004  -5.047  1.00  0.00     0.322 C 
HETATM    3  O   UNL     1       6.555   1.729  -5.755  1.00  0.00    -0.247 OA
HETATM    4  N   UNL     1       8.606   0.848  -5.110  1.00  0.00    -0.289 N 
HETATM    5  H   UNL     1       7.224   0.139  -3.226  1.00  0.00     0.164 HD
HETATM    6  H   UNL     1       9.006  -0.013  -4.778  1.00  0.00     0.172 HD
ENDROOT
BRANCH   1   7
HETATM    7  C   UNL     1       5.240   0.270  -3.934  1.00  0.00     0.154 C 
BRANCH   7   8
HETATM    8  C   UNL     1       4.671  -0.685  -2.878  1.00  0.00     0.292 C 
BRANCH   8   9
HETATM    9  N   UNL     1       3.199  -0.658  -2.794  1.00  0.00     0.090 N 
HETATM   10  C   UNL     1       2.633   0.659  -2.469  1.00  0.00     0.273 C 
HETATM   11  C   UNL     1       2.912   1.103  -1.031  1.00  0.00     0.034 C 
HETATM   12  C   UNL     1       2.434   0.066  -0.005  1.00  0.00    -0.015 C 
HETATM   13  C   UNL     1       0.910   0.094   0.143  1.00  0.00     0.010 C 
HETATM   14  C   UNL     1       2.936  -1.335  -0.385  1.00  0.00     0.034 C 
HETATM   15  C   UNL     1       2.689  -1.674  -1.860  1.00  0.00     0.273 C 
ENDBRANCH   8   9
ENDBRANCH   7   8
ENDBRANCH   1   7
BRANCH   4  16
HETATM   16  C   UNL     1       9.330   1.564  -6.024  1.00  0.00     0.152 A 
HETATM   17  N   UNL     1       9.006   2.672  -6.639  1.00  0.00    -0.346 N 
HETATM   18  C   UNL     1       9.974   2.981  -7.567  1.00  0.00     0.097 A 
ATOM     19  HN  UNL     1       8.166   3.222  -6.459  1.00  0.00     0.167 HD
HETATM   20  C   UNL     1      11.049   2.119  -7.609  1.00  0.00     0.070 A 
HETATM   21  S   UNL     1      10.851   0.896  -6.417  1.00  0.00    -0.064 SA
ENDBRANCH   4  16
TORSDOF 4
