REMARK  3 active torsions:
REMARK  status: ('A' for Active; 'I' for Inactive)
REMARK    1  A    between atoms: C_4  and  N_5 
REMARK       I    between atoms: N_5  and  C_6 
REMARK       I    between atoms: C_6  and  N_8 
REMARK    2  A    between atoms: N_8  and  C_9 
REMARK    3  A    between atoms: C_9  and  C_10 
ROOT
HETATM    1  N   UNL     1       5.763   1.598  -0.151  1.00  0.00    -0.293 N 
HETATM    2  C   UNL     1       5.639   2.949   0.010  1.00  0.00     0.321 C 
HETATM    3  O   UNL     1       4.532   3.449   0.192  1.00  0.00    -0.247 OA
HETATM    4  N   UNL     1       6.786   3.676  -0.059  1.00  0.00    -0.342 N 
HETATM    5  H   UNL     1       4.887   1.094  -0.120  1.00  0.00     0.172 HD
HETATM    6  H   UNL     1       7.650   3.142  -0.066  1.00  0.00     0.164 HD
ENDROOT
BRANCH   1   7
HETATM    7  C   UNL     1       6.921   0.878  -0.372  1.00  0.00     0.132 A 
HETATM    8  C   UNL     1       6.984  -0.519  -0.580  1.00  0.00     0.084 A 
HETATM    9  C   UNL     1       8.318  -0.779  -0.776  1.00  0.00     0.076 A 
HETATM   10  C   UNL     1       9.119  -1.978  -1.064  1.00  0.00     0.079 C 
HETATM   11  O   UNL     1       9.016   0.379  -0.674  1.00  0.00    -0.241 OA
HETATM   12  N   UNL     1       8.149   1.413  -0.415  1.00  0.00    -0.245 N 
ATOM     13  HN  UNL     1       8.392   2.395  -0.282  1.00  0.00     0.196 HD
ENDBRANCH   1   7
BRANCH   4  14
HETATM   14  C   UNL     1       6.849   5.102   0.143  1.00  0.00     0.131 C 
BRANCH  14  15
HETATM   15  C   UNL     1       8.275   5.624   0.021  1.00  0.00     0.029 C 
HETATM   16  C   UNL     1       9.247   5.067   1.049  1.00  0.00     0.034 C 
HETATM   17  C   UNL     1      10.203   6.213   1.325  1.00  0.00     0.168 C 
HETATM   18  O   UNL     1       9.714   7.369   0.635  1.00  0.00    -0.391 OA
HETATM   19  C   UNL     1       8.356   7.115   0.267  1.00  0.00     0.173 C 
ENDBRANCH  14  15
ENDBRANCH   4  14
TORSDOF 3
