REMARK  5 active torsions:
REMARK  status: ('A' for Active; 'I' for Inactive)
REMARK    1  A    between atoms: C_2  and  O_4 
REMARK    2  A    between atoms: C_2  and  C_5 
REMARK    3  A    between atoms: C_5  and  N_6 
REMARK       I    between atoms: N_6  and  C_7 
REMARK       I    between atoms: C_7  and  N_9 
REMARK    4  A    between atoms: N_9  and  C_10 
REMARK    5  A    between atoms: C_15  and  N_16 
ROOT
HETATM    1  C   UNL     1       7.266  -2.045  -3.202  1.00  0.00     0.111 C 
HETATM    2  C   UNL     1       6.531  -2.724  -4.372  1.00  0.00     0.027 C 
HETATM    3  C   UNL     1       5.739  -3.947  -3.911  1.00  0.00     0.002 C 
HETATM    4  C   UNL     1       6.620  -4.955  -3.177  1.00  0.00     0.002 C 
HETATM    5  C   UNL     1       7.443  -4.315  -2.058  1.00  0.00     0.029 C 
HETATM    6  C   UNL     1       8.220  -3.087  -2.562  1.00  0.00     0.130 C 
ENDROOT
BRANCH   1   7
HETATM    7  N   UNL     1       6.331  -1.506  -2.209  1.00  0.00    -0.336 N 
HETATM    8  C   UNL     1       5.449  -0.497  -2.483  1.00  0.00     0.316 C 
HETATM    9  N   UNL     1       4.747  -0.151  -1.361  1.00  0.00    -0.340 N 
HETATM   10  O   UNL     1       5.302   0.020  -3.582  1.00  0.00    -0.247 OA
HETATM   11  H   UNL     1       4.677  -0.865  -0.649  1.00  0.00     0.164 HD
HETATM   12  H   UNL     1       6.718  -1.442  -1.267  1.00  0.00     0.164 HD
BRANCH   9  13
HETATM   13  C   UNL     1       3.640   0.783  -1.427  1.00  0.00     0.161 C 
BRANCH  13  14
HETATM   14  C   UNL     1       3.401   1.508  -0.087  1.00  0.00     0.066 C 
HETATM   15  C   UNL     1       2.224   2.475  -0.235  1.00  0.00     0.047 C 
HETATM   16  C   UNL     1       4.651   2.260   0.379  1.00  0.00     0.047 C 
BRANCH  14  17
HETATM   17  O   UNL     1       3.058   0.535   0.912  1.00  0.00    -0.389 OA
HETATM   18  H   UNL     1       2.903   1.013   1.746  1.00  0.00     0.210 HD
ENDBRANCH  14  17
ENDBRANCH  13  14
ENDBRANCH   9  13
ENDBRANCH   1   7
BRANCH   6  19
HETATM   19  N   UNL     1       9.056  -2.500  -1.519  1.00  0.00    -0.297 N 
HETATM   20  C   UNL     1      10.417  -2.374  -1.537  1.00  0.00     0.112 A 
HETATM   21  C   UNL     1      10.757  -1.732  -0.370  1.00  0.00     0.037 A 
HETATM   22  C   UNL     1       9.535  -1.517   0.290  1.00  0.00     0.108 A 
HETATM   23  N   UNL     1       8.493  -1.983  -0.403  1.00  0.00    -0.310 N 
ATOM     24  HN  UNL     1       7.505  -1.956  -0.150  1.00  0.00     0.186 HD
ENDBRANCH   6  19
TORSDOF 5
