REMARK  4 active torsions:
REMARK  status: ('A' for Active; 'I' for Inactive)
REMARK    1  A    between atoms: C_2  and  C_5 
REMARK    2  A    between atoms: C_10  and  N_11 
REMARK       I    between atoms: N_11  and  C_12 
REMARK       I    between atoms: C_12  and  N_14 
REMARK    3  A    between atoms: N_14  and  C_15 
REMARK    4  A    between atoms: C_15  and  C_16 
ROOT
HETATM    1  N   UNL     1       2.746  -4.103  -2.859  1.00  0.00    -0.304 N 
HETATM    2  C   UNL     1       2.290  -4.866  -1.823  1.00  0.00     0.320 C 
HETATM    3  O   UNL     1       2.266  -4.405  -0.685  1.00  0.00    -0.247 OA
HETATM    4  N   UNL     1       1.971  -6.166  -2.111  1.00  0.00    -0.340 N 
HETATM    5  H   UNL     1       3.328  -3.336  -2.526  1.00  0.00     0.171 HD
HETATM    6  H   UNL     1       2.383  -6.549  -2.948  1.00  0.00     0.164 HD
ENDROOT
BRANCH   1   7
HETATM    7  C   UNL     1       2.861  -4.406  -4.192  1.00  0.00     0.105 A 
HETATM    8  C   UNL     1       4.132  -3.968  -4.871  1.00  0.00     0.272 A 
HETATM    9  N   UNL     1       4.278  -4.369  -6.178  1.00  0.00    -0.331 N 
HETATM   10  O   UNL     1       4.997  -3.337  -4.272  1.00  0.00    -0.266 OA
HETATM   11  C   UNL     1       3.330  -5.076  -6.876  1.00  0.00     0.107 A 
HETATM   12  H   UNL     1       5.156  -4.114  -6.615  1.00  0.00     0.168 HD
HETATM   13  C   UNL     1       2.161  -5.425  -6.304  1.00  0.00     0.065 A 
HETATM   14  C   UNL     1       1.935  -5.056  -4.915  1.00  0.00     0.052 A 
BRANCH  13  15
HETATM   15  C   UNL     1       1.111  -6.210  -7.037  1.00  0.00     0.418 C 
HETATM   16  F   UNL     1       0.009  -6.452  -6.284  1.00  0.00    -0.166 F 
HETATM   17  F   UNL     1       1.587  -7.416  -7.436  1.00  0.00    -0.166 F 
HETATM   18  F   UNL     1       0.691  -5.563  -8.153  1.00  0.00    -0.166 F 
ENDBRANCH  13  15
ENDBRANCH   1   7
BRANCH   4  19
HETATM   19  C   UNL     1       1.835  -7.129  -1.030  1.00  0.00     0.158 C 
BRANCH  19  20
HETATM   20  C   UNL     1       1.040  -8.371  -1.463  1.00  0.00     0.163 C 
HETATM   21  C   UNL     1       0.759  -9.282  -0.262  1.00  0.00     0.201 C 
HETATM   22  O   UNL     1       1.961  -9.915   0.195  1.00  0.00    -0.386 OA
HETATM   23  C   UNL     1       2.509 -10.717  -0.857  1.00  0.00     0.193 C 
HETATM   24  C   UNL     1       2.831  -9.854  -2.078  1.00  0.00     0.194 C 
HETATM   25  O   UNL     1       1.693  -9.102  -2.526  1.00  0.00    -0.380 OA
ENDBRANCH  19  20
ENDBRANCH   4  19
TORSDOF 4
