REMARK  6 active torsions:
REMARK  status: ('A' for Active; 'I' for Inactive)
REMARK    1  A    between atoms: N_7  and  C_8 
REMARK    2  A    between atoms: C_8  and  C_9 
REMARK    3  A    between atoms: C_9  and  O_10 
REMARK    4  A    between atoms: C_9  and  C_11 
REMARK    5  A    between atoms: C_11  and  O_12 
REMARK    6  A    between atoms: O_12  and  C_13 
ROOT
HETATM    1  C   UNL     1       4.242  -3.480  -0.240  1.00  0.00     0.162 C 
ENDROOT
BRANCH   1   2
HETATM    2  C   UNL     1       5.168  -2.269  -0.060  1.00  0.00     0.186 C 
BRANCH   2   3
HETATM    3  N   UNL     1       6.003  -2.310   1.135  1.00  0.00    -0.255 N 
HETATM    4  C   UNL     1       7.385  -2.384   1.018  1.00  0.00     0.262 A 
HETATM    5  C   UNL     1       8.149  -2.252   2.276  1.00  0.00     0.078 A 
HETATM    6  O   UNL     1       7.995  -2.536  -0.037  1.00  0.00    -0.267 OA
HETATM    7  C   UNL     1       7.521  -2.133   3.448  1.00  0.00     0.031 A 
HETATM    8  C   UNL     1       6.045  -2.161   3.418  1.00  0.00     0.022 A 
HETATM    9  C   UNL     1       5.318  -2.112   4.737  1.00  0.00     0.069 C 
HETATM   10  N   UNL     1       5.336  -2.234   2.337  1.00  0.00    -0.300 N 
ATOM     11  HN  UNL     1       4.317  -2.235   2.375  1.00  0.00     0.187 HD
ENDBRANCH   2   3
ENDBRANCH   1   2
BRANCH   1  12
HETATM   12  O   UNL     1       3.430  -3.250  -1.408  1.00  0.00    -0.392 OA
HETATM   13  H   UNL     1       3.995  -3.362  -2.192  1.00  0.00     0.210 HD
ENDBRANCH   1  12
BRANCH   1  14
HETATM   14  C   UNL     1       5.049  -4.779  -0.387  1.00  0.00     0.209 C 
BRANCH  14  15
HETATM   15  O   UNL     1       4.168  -5.890  -0.534  1.00  0.00    -0.348 OA
BRANCH  15  16
HETATM   16  C   UNL     1       4.765  -7.142  -0.684  1.00  0.00     0.081 A 
HETATM   17  C   UNL     1       3.822  -8.178  -0.819  1.00  0.00     0.038 A 
HETATM   18  C   UNL     1       4.215  -9.504  -0.972  1.00  0.00     0.005 A 
HETATM   19  C   UNL     1       5.566  -9.844  -1.000  1.00  0.00     0.030 A 
HETATM   20  C   UNL     1       6.504  -8.812  -0.875  1.00  0.00     0.045 A 
HETATM   21  N   UNL     1       7.879  -8.889  -0.887  1.00  0.00    -0.365 N 
HETATM   22  C   UNL     1       6.151  -7.463  -0.717  1.00  0.00     0.025 A 
HETATM   23  C   UNL     1       8.426  -7.649  -0.744  1.00  0.00     0.089 A 
HETATM   24  H   UNL     1       8.401  -9.749  -0.989  1.00  0.00     0.165 HD
HETATM   25  C   UNL     1       7.390  -6.751  -0.631  1.00  0.00     0.033 A 
ENDBRANCH  15  16
ENDBRANCH  14  15
ENDBRANCH   1  14
TORSDOF 6
