REMARK  7 active torsions:
REMARK  status: ('A' for Active; 'I' for Inactive)
REMARK    1  A    between atoms: C_2  and  C_3 
REMARK    2  A    between atoms: C_2  and  N_11 
REMARK    3  A    between atoms: C_3  and  N_4 
REMARK    4  A    between atoms: N_11  and  C_12 
REMARK    5  A    between atoms: C_12  and  C_13 
REMARK    6  A    between atoms: C_13  and  C_14 
REMARK       I    between atoms: C_14  and  N_16 
REMARK    7  A    between atoms: N_16  and  C_17 
ROOT
HETATM    1  N   UNL     1       3.078   0.765  -1.247  1.00  0.00     0.089 N 
HETATM    2  H   UNL     1       2.706   1.717  -1.233  1.00  0.00     0.316 HD
ENDROOT
BRANCH   1   3
HETATM    3  C   UNL     1       2.555   0.041  -0.054  1.00  0.00     0.236 C 
HETATM    4  C   UNL     1       1.024   0.096  -0.130  1.00  0.00     0.044 C 
BRANCH   3   5
HETATM    5  C   UNL     1       3.059  -1.417   0.026  1.00  0.00     0.183 C 
BRANCH   5   6
HETATM    6  N   UNL     1       2.556  -2.181   1.151  1.00  0.00    -0.301 N 
HETATM    7  C   UNL     1       1.860  -3.353   1.082  1.00  0.00     0.118 A 
HETATM    8  C   UNL     1       1.747  -3.816   2.375  1.00  0.00    -0.028 A 
HETATM    9  C   UNL     1       1.105  -5.062   2.845  1.00  0.00     0.051 C 
HETATM   10  C   UNL     1       2.404  -2.833   3.148  1.00  0.00     0.115 A 
HETATM   11  N   UNL     1       2.891  -1.835   2.408  1.00  0.00    -0.310 N 
ATOM     12  HN  UNL     1       3.397  -1.006   2.721  1.00  0.00     0.186 HD
ENDBRANCH   5   6
ENDBRANCH   3   5
ENDBRANCH   1   3
BRANCH   1  13
HETATM   13  C   UNL     1       4.546   0.829  -1.239  1.00  0.00     0.279 C 
BRANCH  13  14
HETATM   14  C   UNL     1       5.112   1.593  -2.435  1.00  0.00     0.132 C 
BRANCH  14  15
HETATM   15  C   UNL     1       6.626   1.576  -2.354  1.00  0.00     0.219 C 
HETATM   16  O   UNL     1       7.244   1.013  -1.456  1.00  0.00    -0.274 OA
HETATM   17  N   UNL     1       7.249   2.268  -3.370  1.00  0.00    -0.356 N 
HETATM   18  H   UNL     1       6.720   2.443  -4.216  1.00  0.00     0.162 HD
BRANCH  17  19
HETATM   19  C   UNL     1       8.697   2.330  -3.432  1.00  0.00     0.084 C 
HETATM   20  C   UNL     1       9.325   2.999  -2.200  1.00  0.00     0.025 C 
HETATM   21  C   UNL     1      10.495   3.838  -2.706  1.00  0.00     0.002 C 
HETATM   22  C   UNL     1      10.603   3.552  -4.196  1.00  0.00     0.002 C 
HETATM   23  C   UNL     1       9.191   3.168  -4.606  1.00  0.00     0.025 C 
ENDBRANCH  17  19
ENDBRANCH  14  15
ENDBRANCH  13  14
ENDBRANCH   1  13
TORSDOF 7
