REMARK  5 active torsions:
REMARK  status: ('A' for Active; 'I' for Inactive)
REMARK    1  A    between atoms: C_8  and  C_9 
REMARK    2  A    between atoms: C_9  and  C_10 
REMARK       I    between atoms: C_10  and  N_12 
REMARK    3  A    between atoms: N_12  and  C_13 
REMARK    4  A    between atoms: C_13  and  C_14 
REMARK    5  A    between atoms: C_14  and  N_15 
ROOT
HETATM    1  C   UNL     1       1.708   2.994  -0.154  1.00  0.00     0.222 C 
HETATM    2  O   UNL     1       0.883   2.086  -0.254  1.00  0.00    -0.273 OA
HETATM    3  N   UNL     1       1.341   4.322  -0.137  1.00  0.00    -0.359 N 
HETATM    4  H   UNL     1       2.043   5.063  -0.096  1.00  0.00     0.162 HD
ENDROOT
BRANCH   3   5
HETATM    5  C   UNL     1      -0.065   4.697  -0.140  1.00  0.00     0.142 C 
BRANCH   5   6
HETATM    6  C   UNL     1      -0.356   6.214  -0.139  1.00  0.00     0.145 C 
BRANCH   6   7
HETATM    7  N   UNL     1       0.031   6.861   1.123  1.00  0.00    -0.351 N 
HETATM    8  C   UNL     1      -1.007   7.520   1.921  1.00  0.00     0.126 C 
HETATM    9  C   UNL     1      -1.181   6.882   3.289  1.00  0.00     0.020 C 
HETATM   10  C   UNL     1      -0.213   7.421   4.341  1.00  0.00     0.002 C 
HETATM   11  C   UNL     1       1.159   7.850   3.827  1.00  0.00     0.009 C 
HETATM   12  C   UNL     1       1.790   6.859   2.872  1.00  0.00     0.103 C 
HETATM   13  C   UNL     1       1.381   6.938   1.414  1.00  0.00     0.219 C 
HETATM   14  O   UNL     1       2.242   6.827   0.537  1.00  0.00    -0.273 OA
ENDBRANCH   6   7
ENDBRANCH   5   6
ENDBRANCH   3   5
BRANCH   1  15
HETATM   15  C   UNL     1       3.189   2.703   0.022  1.00  0.00     0.146 C 
BRANCH  15  16
HETATM   16  C   UNL     1       3.941   2.543  -1.249  1.00  0.00     0.006 A 
HETATM   17  C   UNL     1       3.730   1.638  -2.338  1.00  0.00     0.038 A 
HETATM   18  C   UNL     1       2.688   0.597  -2.524  1.00  0.00     0.071 C 
HETATM   19  N   UNL     1       4.665   1.788  -3.285  1.00  0.00    -0.265 N 
HETATM   20  O   UNL     1       5.511   2.774  -2.832  1.00  0.00    -0.242 OA
ATOM     21  HN  UNL     1       4.736   1.275  -4.164  1.00  0.00     0.194 HD
HETATM   22  C   UNL     1       5.088   3.214  -1.622  1.00  0.00     0.081 A 
HETATM   23  C   UNL     1       5.924   4.245  -0.978  1.00  0.00     0.079 C 
ENDBRANCH  15  16
ENDBRANCH   1  15
TORSDOF 5
