REMARK  7 active torsions:
REMARK  status: ('A' for Active; 'I' for Inactive)
REMARK    1  A    between atoms: N_1  and  C_9 
REMARK    2  A    between atoms: C_6  and  N_7 
REMARK    3  A    between atoms: C_14  and  O_23 
REMARK    4  A    between atoms: C_16  and  C_24 
REMARK    5  A    between atoms: C_16  and  C_25 
REMARK    6  A    between atoms: C_24  and  O_28 
REMARK    7  A    between atoms: C_25  and  O_27 
ROOT
HETATM    1  N   UNL     1       1.584   1.125  -0.058  1.00  0.00    -0.322 N 
HETATM    2  C   UNL     1       0.349  -0.676  -0.031  1.00  0.00     0.117 A 
HETATM    3  C   UNL     1       0.271   0.717  -0.053  1.00  0.00     0.140 A 
HETATM    4  N   UNL     1       1.667  -1.094  -0.069  1.00  0.00    -0.346 N 
ATOM      5  HN  UNL     1       2.013  -2.053  -0.089  1.00  0.00     0.167 HD
HETATM    6  C   UNL     1      -0.857  -1.424   0.034  1.00  0.00     0.114 A 
HETATM    7  C   UNL     1       2.373   0.005  -0.074  1.00  0.00     0.185 A 
HETATM    8  N   UNL     1      -0.855   1.450  -0.053  1.00  0.00    -0.336 N 
ATOM      9  HN  UNL     1      -0.884   2.470  -0.054  1.00  0.00     0.168 HD
HETATM   10  N   UNL     1      -2.015  -0.703  -0.012  1.00  0.00    -0.341 N 
ATOM     11  HN  UNL     1      -2.919  -1.175  -0.017  1.00  0.00     0.167 HD
HETATM   12  C   UNL     1      -1.945   0.649  -0.051  1.00  0.00     0.183 A 
ENDROOT
BRANCH   6  13
HETATM   13  N   UNL     1      -0.871  -2.834   0.117  1.00  0.00    -0.267 NA
HETATM   14  C   UNL     1      -2.185  -3.491   0.040  1.00  0.00     0.104 C 
HETATM   15  C   UNL     1      -1.967  -5.009  -0.169  1.00  0.00     0.034 C 
HETATM   16  C   UNL     1      -1.077  -5.605   0.945  1.00  0.00     0.064 C 
HETATM   17  C   UNL     1      -3.284  -5.789  -0.298  1.00  0.00     0.009 C 
HETATM   18  C   UNL     1      -0.809  -7.097   0.685  1.00  0.00     0.038 C 
HETATM   19  C   UNL     1       0.240  -4.832   1.013  1.00  0.00     0.053 C 
HETATM   20  C   UNL     1      -2.099  -7.899   0.513  1.00  0.00     0.003 C 
HETATM   21  C   UNL     1      -3.021  -7.281  -0.536  1.00  0.00     0.001 C 
HETATM   22  C   UNL     1      -0.020  -3.341   1.210  1.00  0.00     0.100 C 
BRANCH  16  23
HETATM   23  O   UNL     1      -1.700  -5.473   2.231  1.00  0.00    -0.389 OA
HETATM   24  H   UNL     1      -2.519  -5.995   2.247  1.00  0.00     0.210 HD
ENDBRANCH  16  23
ENDBRANCH   6  13
BRANCH   1  25
HETATM   25  C   UNL     1       2.203   2.420  -0.012  1.00  0.00     0.094 C 
HETATM   26  C   UNL     1       1.742   3.360   1.139  1.00  0.00     0.039 C 
HETATM   27  C   UNL     1       2.074   4.551   0.169  1.00  0.00     0.006 C 
HETATM   28  C   UNL     1       1.667   3.523  -0.959  1.00  0.00     0.039 C 
BRANCH  27  29
HETATM   29  C   UNL     1       1.154   5.762   0.330  1.00  0.00     0.175 C 
BRANCH  29  30
HETATM   30  O   UNL     1       1.243   6.601  -0.817  1.00  0.00    -0.400 OA
HETATM   31  H   UNL     1       2.191   6.812  -0.946  1.00  0.00     0.209 HD
ENDBRANCH  29  30
ENDBRANCH  27  29
BRANCH  27  32
HETATM   32  C   UNL     1       3.551   4.982   0.226  1.00  0.00     0.175 C 
BRANCH  32  33
HETATM   33  O   UNL     1       3.890   5.702  -0.960  1.00  0.00    -0.400 OA
HETATM   34  H   UNL     1       4.055   5.042  -1.660  1.00  0.00     0.209 HD
ENDBRANCH  32  33
ENDBRANCH  27  32
ENDBRANCH   1  25
TORSDOF 7
