REMARK  4 active torsions:
REMARK  status: ('A' for Active; 'I' for Inactive)
REMARK       I    between atoms: C_2  and  N_4 
REMARK    1  A    between atoms: N_7  and  C_8 
REMARK    2  A    between atoms: C_8  and  C_9 
REMARK    3  A    between atoms: C_9  and  N_10 
REMARK       I    between atoms: N_10  and  C_11 
REMARK       I    between atoms: C_11  and  N_13 
REMARK    4  A    between atoms: N_13  and  C_14 
ROOT
HETATM    1  N   UNL     1       5.869  -1.683   6.132  1.00  0.00    -0.341 N 
HETATM    2  C   UNL     1       6.951  -1.414   6.940  1.00  0.00     0.321 C 
HETATM    3  O   UNL     1       8.105  -1.419   6.517  1.00  0.00    -0.247 OA
HETATM    4  N   UNL     1       6.571  -1.106   8.220  1.00  0.00    -0.295 N 
HETATM    5  H   UNL     1       5.172  -2.267   6.578  1.00  0.00     0.164 HD
HETATM    6  H   UNL     1       5.744  -0.529   8.283  1.00  0.00     0.172 HD
ENDROOT
BRANCH   1   7
HETATM    7  C   UNL     1       6.130  -1.894   4.718  1.00  0.00     0.154 C 
BRANCH   7   8
HETATM    8  C   UNL     1       4.868  -2.240   3.918  1.00  0.00     0.292 C 
BRANCH   8   9
HETATM    9  N   UNL     1       5.100  -2.403   2.470  1.00  0.00     0.093 N 
HETATM   10  C   UNL     1       5.575  -1.166   1.803  1.00  0.00     0.292 C 
HETATM   11  C   UNL     1       4.524  -0.045   1.716  1.00  0.00     0.156 C 
HETATM   12  N   UNL     1       3.277  -0.527   1.114  1.00  0.00    -0.349 N 
HETATM   13  C   UNL     1       2.618   0.280   0.206  1.00  0.00     0.215 C 
HETATM   14  C   UNL     1       2.760  -1.781   1.674  1.00  0.00     0.156 C 
HETATM   15  C   UNL     1       1.269  -0.182  -0.280  1.00  0.00     0.117 C 
HETATM   16  O   UNL     1       3.084   1.347  -0.199  1.00  0.00    -0.274 OA
HETATM   17  C   UNL     1       3.868  -2.853   1.782  1.00  0.00     0.292 C 
ENDBRANCH   8   9
ENDBRANCH   7   8
ENDBRANCH   1   7
BRANCH   4  18
HETATM   18  C   UNL     1       7.517  -0.784   9.199  1.00  0.00     0.108 A 
HETATM   19  C   UNL     1       8.679  -1.532   9.355  1.00  0.00     0.049 A 
HETATM   20  C   UNL     1       9.612  -1.129  10.304  1.00  0.00     0.005 A 
HETATM   21  C   UNL     1       9.362   0.013  11.052  1.00  0.00     0.017 A 
HETATM   22  C   UNL     1       8.164   0.679  10.847  1.00  0.00     0.089 A 
HETATM   23  N   UNL     1       7.218   0.285   9.964  1.00  0.00    -0.352 N 
ATOM     24  HN  UNL     1       6.325   0.771   9.881  1.00  0.00     0.166 HD
ENDBRANCH   4  18
TORSDOF 4
