REMARK  5 active torsions:
REMARK  status: ('A' for Active; 'I' for Inactive)
REMARK    1  A    between atoms: C_2  and  C_3 
REMARK    2  A    between atoms: C_2  and  N_16 
REMARK    3  A    between atoms: C_3  and  N_4 
REMARK       I    between atoms: N_4  and  C_5 
REMARK    4  A    between atoms: C_5  and  C_7 
REMARK    5  A    between atoms: C_7  and  N_9 
ROOT
HETATM    1  N   UNL     1       4.527  -1.475  -0.274  1.00  0.00    -0.357 N 
HETATM    2  C   UNL     1       5.348  -2.518   0.087  1.00  0.00     0.242 C 
HETATM    3  O   UNL     1       4.925  -3.544   0.620  1.00  0.00    -0.271 OA
HETATM    4  H   UNL     1       4.858  -0.736  -0.891  1.00  0.00     0.162 HD
ENDROOT
BRANCH   1   5
HETATM    5  C   UNL     1       3.093  -1.550  -0.079  1.00  0.00     0.158 C 
BRANCH   5   6
HETATM    6  C   UNL     1       2.460  -0.141   0.019  1.00  0.00     0.236 C 
HETATM    7  C   UNL     1       0.990  -0.304   0.418  1.00  0.00     0.044 C 
BRANCH   6   8
HETATM    8  N   UNL     1       2.809   0.725  -1.135  1.00  0.00     0.099 N 
HETATM    9  C   UNL     1       2.370   2.130  -1.004  1.00  0.00     0.304 C 
HETATM   10  C   UNL     1       0.912   2.381  -1.457  1.00  0.00     0.146 C 
HETATM   11  C   UNL     1       0.550   3.855  -1.353  1.00  0.00     0.041 C 
HETATM   12  O   UNL     1       0.714   1.937  -2.810  1.00  0.00    -0.378 OA
HETATM   13  C   UNL     1       1.010   0.533  -2.921  1.00  0.00     0.146 C 
HETATM   14  C   UNL     1       0.767   0.091  -4.358  1.00  0.00     0.041 C 
HETATM   15  C   UNL     1       2.464   0.247  -2.489  1.00  0.00     0.304 C 
ENDBRANCH   6   8
ENDBRANCH   5   6
ENDBRANCH   1   5
BRANCH   2  16
HETATM   16  C   UNL     1       6.814  -2.319  -0.246  1.00  0.00     0.196 C 
HETATM   17  C   UNL     1       7.701  -3.001   0.793  1.00  0.00     0.044 C 
BRANCH  16  18
HETATM   18  N   UNL     1       7.072  -2.806  -1.586  1.00  0.00    -0.273 N 
HETATM   19  C   UNL     1       6.881  -4.058  -2.085  1.00  0.00     0.202 A 
HETATM   20  N   UNL     1       7.226  -4.081  -3.352  1.00  0.00    -0.346 N 
HETATM   21  C   UNL     1       7.619  -2.796  -3.588  1.00  0.00     0.198 A 
ATOM     22  HN  UNL     1       7.205  -4.868  -4.001  1.00  0.00     0.167 HD
HETATM   23  N   UNL     1       7.539  -1.974  -2.538  1.00  0.00    -0.292 N 
ATOM     24  HN  UNL     1       7.770  -0.982  -2.474  1.00  0.00     0.188 HD
ENDBRANCH  16  18
ENDBRANCH   2  16
TORSDOF 5
