REMARK  6 active torsions:
REMARK  status: ('A' for Active; 'I' for Inactive)
REMARK    1  A    between atoms: C_2  and  C_3 
REMARK    2  A    between atoms: C_2  and  N_15 
REMARK       I    between atoms: C_3  and  N_5 
REMARK    3  A    between atoms: N_5  and  C_6 
REMARK    4  A    between atoms: C_6  and  C_7 
REMARK    5  A    between atoms: C_7  and  C_8 
REMARK    6  A    between atoms: C_8  and  N_9 
ROOT
HETATM    1  C   UNL     1       3.702   0.608   1.133  1.00  0.00     0.242 C 
HETATM    2  O   UNL     1       4.764   0.165   1.569  1.00  0.00    -0.271 OA
HETATM    3  N   UNL     1       2.989   1.582   1.796  1.00  0.00    -0.359 N 
HETATM    4  H   UNL     1       2.059   1.810   1.447  1.00  0.00     0.162 HD
ENDROOT
BRANCH   3   5
HETATM    5  C   UNL     1       3.504   2.347   2.922  1.00  0.00     0.124 C 
BRANCH   5   6
HETATM    6  C   UNL     1       3.168   3.819   2.702  1.00  0.00     0.050 C 
BRANCH   6   7
HETATM    7  C   UNL     1       3.545   4.741   3.867  1.00  0.00     0.274 C 
BRANCH   7   8
HETATM    8  N   UNL     1       3.365   6.166   3.529  1.00  0.00     0.092 N 
HETATM    9  C   UNL     1       3.786   7.055   4.637  1.00  0.00     0.298 C 
HETATM   10  C   UNL     1       2.776   7.121   5.799  1.00  0.00     0.198 C 
HETATM   11  O   UNL     1       1.493   7.567   5.327  1.00  0.00    -0.388 OA
HETATM   12  C   UNL     1       1.001   6.690   4.308  1.00  0.00     0.198 C 
HETATM   13  C   UNL     1       1.990   6.553   3.137  1.00  0.00     0.298 C 
ENDBRANCH   7   8
ENDBRANCH   6   7
ENDBRANCH   5   6
ENDBRANCH   3   5
BRANCH   1  14
HETATM   14  C   UNL     1       3.047   0.064  -0.143  1.00  0.00     0.195 C 
HETATM   15  C   UNL     1       4.057  -0.685  -1.015  1.00  0.00     0.044 C 
BRANCH  14  16
HETATM   16  N   UNL     1       2.359   1.115  -0.892  1.00  0.00    -0.290 N 
HETATM   17  C   UNL     1       2.875   1.973  -1.823  1.00  0.00     0.112 A 
HETATM   18  C   UNL     1       1.822   2.729  -2.280  1.00  0.00     0.037 A 
HETATM   19  C   UNL     1       0.716   2.288  -1.534  1.00  0.00     0.108 A 
HETATM   20  N   UNL     1       1.042   1.335  -0.657  1.00  0.00    -0.309 N 
ATOM     21  HN  UNL     1       0.441   0.879   0.029  1.00  0.00     0.186 HD
ENDBRANCH  14  16
ENDBRANCH   1  14
TORSDOF 6
