REMARK  3 active torsions:
REMARK  status: ('A' for Active; 'I' for Inactive)
REMARK    1  A    between atoms: S_2  and  C_3 
REMARK    2  A    between atoms: C_7  and  N_9 
REMARK       I    between atoms: N_9  and  C_10 
REMARK       I    between atoms: C_10  and  N_12 
REMARK    3  A    between atoms: N_12  and  C_13 
ROOT
HETATM    1  N   UNL     1       2.393  -3.790  -2.085  1.00  0.00    -0.338 N 
HETATM    2  C   UNL     1       1.419  -4.621  -1.572  1.00  0.00     0.321 C 
HETATM    3  O   UNL     1       0.454  -4.170  -0.958  1.00  0.00    -0.247 OA
HETATM    4  N   UNL     1       1.661  -5.957  -1.791  1.00  0.00    -0.306 N 
HETATM    5  H   UNL     1       2.930  -4.127  -2.867  1.00  0.00     0.164 HD
HETATM    6  H   UNL     1       2.599  -6.220  -2.060  1.00  0.00     0.171 HD
ENDROOT
BRANCH   1   7
HETATM    7  C   UNL     1       2.212  -2.347  -1.925  1.00  0.00     0.087 C 
HETATM    8  C   UNL     1       1.300  -1.764  -3.013  1.00  0.00     0.025 C 
HETATM    9  C   UNL     1       1.063  -0.269  -2.797  1.00  0.00     0.003 C 
HETATM   10  C   UNL     1       2.363   0.519  -2.625  1.00  0.00     0.015 C 
HETATM   11  C   UNL     1       3.348  -0.090  -1.615  1.00  0.00     0.049 C 
HETATM   12  C   UNL     1       3.545  -1.594  -1.889  1.00  0.00     0.040 C 
BRANCH  11  13
HETATM   13  S   UNL     1       2.819   0.153   0.136  1.00  0.00    -0.169 SA
HETATM   14  C   UNL     1       3.065   1.935   0.319  1.00  0.00     0.090 C 
ENDBRANCH  11  13
ENDBRANCH   1   7
BRANCH   4  15
HETATM   15  C   UNL     1       0.802  -7.008  -1.370  1.00  0.00     0.077 A 
HETATM   16  C   UNL     1      -0.517  -6.801  -0.963  1.00  0.00     0.050 A 
HETATM   17  C   UNL     1      -1.267  -7.881  -0.521  1.00  0.00     0.090 A 
HETATM   18  N   UNL     1      -0.806  -9.148  -0.478  1.00  0.00    -0.372 N 
HETATM   19  C   UNL     1       0.468  -9.334  -0.898  1.00  0.00     0.132 A 
ATOM     20  HN  UNL     1      -1.384  -9.921  -0.148  1.00  0.00     0.164 HD
HETATM   21  C   UNL     1       1.291  -8.310  -1.349  1.00  0.00     0.158 A 
HETATM   22  F   UNL     1       2.546  -8.580  -1.738  1.00  0.00    -0.202 F 
ENDBRANCH   4  15
TORSDOF 3
