REMARK  4 active torsions:
REMARK  status: ('A' for Active; 'I' for Inactive)
REMARK    1  A    between atoms: C_5  and  N_6 
REMARK    2  A    between atoms: C_7  and  C_8 
REMARK    3  A    between atoms: C_8  and  C_9 
REMARK    4  A    between atoms: C_9  and  O_11 
ROOT
HETATM    1  C   UNL     1       0.979  -0.005  -0.017  1.00  0.00     0.089 C 
HETATM    2  C   UNL     1       2.476  -0.120  -0.029  1.00  0.00     0.081 A 
HETATM    3  N   UNL     1       3.057  -1.266  -0.113  1.00  0.00    -0.337 N 
ATOM      4  HN  UNL     1       2.505  -2.122  -0.160  1.00  0.00     0.168 HD
HETATM    5  C   UNL     1       4.428  -1.321  -0.139  1.00  0.00     0.091 A 
HETATM    6  C   UNL     1       5.209  -0.223  -0.033  1.00  0.00     0.058 A 
HETATM    7  C   UNL     1       4.507   1.089   0.039  1.00  0.00     0.256 A 
HETATM    8  O   UNL     1       5.111   2.157   0.062  1.00  0.00    -0.267 OA
HETATM    9  N   UNL     1       3.153   1.053   0.049  1.00  0.00    -0.313 N 
HETATM   10  H   UNL     1       2.676   1.942   0.078  1.00  0.00     0.170 HD
ENDROOT
BRANCH   6  11
HETATM   11  C   UNL     1       6.710  -0.090  -0.068  1.00  0.00     0.157 C 
BRANCH  11  12
HETATM   12  C   UNL     1       7.586  -1.178   0.532  1.00  0.00     0.144 C 
HETATM   13  O   UNL     1       7.207  -2.220   1.045  1.00  0.00    -0.650 OA
BRANCH  12  14
HETATM   14  O   UNL     1       8.906  -0.865   0.461  1.00  0.00    -0.776 OA
HETATM   15  H   UNL     1       9.091   0.005   0.058  1.00  0.00     0.167 HD
ENDBRANCH  12  14
ENDBRANCH  11  12
ENDBRANCH   6  11
BRANCH   5  16
HETATM   16  N   UNL     1       4.954  -2.585  -0.301  1.00  0.00    -0.288 NA
HETATM   17  H   UNL     1       4.234  -3.260  -0.052  1.00  0.00     0.125 HD
HETATM   18  H   UNL     1       5.787  -2.749   0.273  1.00  0.00     0.125 HD
ENDBRANCH   5  16
TORSDOF 4
