REMARK  3 active torsions:
REMARK  status: ('A' for Active; 'I' for Inactive)
REMARK    1  A    between atoms: O_2  and  C_3 
REMARK    2  A    between atoms: C_7  and  N_8 
REMARK       I    between atoms: N_8  and  C_9 
REMARK       I    between atoms: C_9  and  N_11 
REMARK    3  A    between atoms: N_11  and  C_12 
ROOT
HETATM    1  N   UNL     1       4.612  -1.269   1.281  1.00  0.00    -0.336 N 
HETATM    2  C   UNL     1       5.554  -0.447   1.817  1.00  0.00     0.323 C 
HETATM    3  O   UNL     1       6.370   0.179   1.143  1.00  0.00    -0.247 OA
HETATM    4  N   UNL     1       5.610  -0.374   3.176  1.00  0.00    -0.274 N 
HETATM    5  H   UNL     1       3.855  -1.548   1.901  1.00  0.00     0.164 HD
HETATM    6  H   UNL     1       6.372   0.142   3.576  1.00  0.00     0.174 HD
ENDROOT
BRANCH   1   7
HETATM    7  C   UNL     1       4.397  -1.442  -0.145  1.00  0.00     0.115 C 
HETATM    8  C   UNL     1       2.946  -1.124  -0.559  1.00  0.00     0.143 C 
HETATM    9  C   UNL     1       2.175  -2.422  -0.295  1.00  0.00     0.034 C 
HETATM   10  C   UNL     1       3.200  -3.552  -0.298  1.00  0.00     0.005 C 
HETATM   11  C   UNL     1       4.561  -2.907  -0.541  1.00  0.00     0.028 C 
BRANCH   8  12
HETATM   12  O   UNL     1       2.332  -0.070   0.182  1.00  0.00    -0.389 OA
HETATM   13  C   UNL     1       2.901   1.207  -0.070  1.00  0.00     0.202 C 
ENDBRANCH   8  12
ENDBRANCH   1   7
BRANCH   4  14
HETATM   14  C   UNL     1       4.746  -1.001   4.016  1.00  0.00     0.231 A 
HETATM   15  N   UNL     1       3.633  -1.648   3.733  1.00  0.00    -0.330 N 
HETATM   16  C   UNL     1       3.194  -2.096   4.947  1.00  0.00     0.116 A 
ATOM     17  HN  UNL     1       3.200  -1.783   2.819  1.00  0.00     0.168 HD
HETATM   18  C   UNL     1       4.079  -1.723   5.925  1.00  0.00     0.162 A 
HETATM   19  O   UNL     1       5.069  -0.988   5.343  1.00  0.00    -0.290 OA
ENDBRANCH   4  14
TORSDOF 3
