REMARK  3 active torsions:
REMARK  status: ('A' for Active; 'I' for Inactive)
REMARK    1  A    between atoms: C_2  and  C_5 
REMARK    2  A    between atoms: C_5  and  N_6 
REMARK    3  A    between atoms: C_9  and  N_12 
ROOT
HETATM    1  N   UNL     1       4.440  -1.471   0.323  1.00  0.00    -0.342 N 
HETATM    2  C   UNL     1       5.196  -2.678   0.089  1.00  0.00     0.129 C 
HETATM    3  C   UNL     1       6.585  -2.202  -0.308  1.00  0.00     0.055 C 
HETATM    4  C   UNL     1       6.409  -0.753  -0.780  1.00  0.00     0.187 C 
HETATM    5  C   UNL     1       5.090  -0.329  -0.135  1.00  0.00     0.243 C 
HETATM    6  O   UNL     1       4.604   0.790  -0.150  1.00  0.00    -0.271 OA
ENDROOT
BRANCH   4   7
HETATM    7  N   UNL     1       6.275  -0.521  -2.230  1.00  0.00    -0.294 N 
HETATM    8  C   UNL     1       5.555  -1.383  -3.043  1.00  0.00     0.126 A 
HETATM    9  C   UNL     1       5.283  -1.119  -4.323  1.00  0.00     0.117 A 
HETATM   10 CL   UNL     1       4.378  -2.202  -5.299  1.00  0.00    -0.077 Cl
HETATM   11  C   UNL     1       5.768   0.152  -4.902  1.00  0.00     0.272 A 
HETATM   12  O   UNL     1       5.632   0.448  -6.084  1.00  0.00    -0.266 OA
HETATM   13  N   UNL     1       6.403   0.985  -4.021  1.00  0.00    -0.274 N 
HETATM   14  C   UNL     1       6.711   0.716  -2.711  1.00  0.00     0.330 A 
HETATM   15  H   UNL     1       6.731   1.867  -4.384  1.00  0.00     0.173 HD
HETATM   16  O   UNL     1       7.352   1.528  -2.050  1.00  0.00    -0.246 OA
ENDBRANCH   4   7
BRANCH   1  17
HETATM   17  C   UNL     1       2.981  -1.489   0.500  1.00  0.00     0.243 C 
BRANCH  17  18
HETATM   18  C   UNL     1       2.160  -1.875  -0.744  1.00  0.00     0.403 C 
HETATM   19  F   UNL     1       2.937  -2.280  -1.776  1.00  0.00    -0.169 F 
HETATM   20  F   UNL     1       1.403  -0.850  -1.186  1.00  0.00    -0.169 F 
HETATM   21  F   UNL     1       1.325  -2.903  -0.457  1.00  0.00    -0.169 F 
ENDBRANCH  17  18
ENDBRANCH   1  17
TORSDOF 3
