REMARK  7 active torsions:
REMARK  status: ('A' for Active; 'I' for Inactive)
REMARK    1  A    between atoms: C_5  and  O_6 
REMARK    2  A    between atoms: O_6  and  C_7 
REMARK    3  A    between atoms: C_7  and  C_8 
REMARK    4  A    between atoms: C_8  and  N_9 
REMARK    5  A    between atoms: C_10  and  C_11 
REMARK    6  A    between atoms: C_11  and  C_12 
REMARK    7  A    between atoms: C_12  and  O_13 
ROOT
HETATM    1  N   UNL     1       9.387  -2.191  -1.055  1.00  0.00    -0.333 N 
HETATM    2  C   UNL     1      10.472  -2.367  -1.904  1.00  0.00     0.086 A 
HETATM    3  N   UNL     1      10.940  -3.594  -1.814  1.00  0.00    -0.344 N 
ATOM      4  HN  UNL     1      11.714  -3.993  -2.345  1.00  0.00     0.167 HD
HETATM    5  C   UNL     1      10.183  -4.226  -0.869  1.00  0.00     0.060 A 
HETATM    6  C   UNL     1      10.299  -5.536  -0.375  1.00  0.00     0.032 A 
HETATM    7  C   UNL     1       9.400  -5.979   0.596  1.00  0.00     0.002 A 
HETATM    8  C   UNL     1       8.404  -5.133   1.074  1.00  0.00     0.002 A 
HETATM    9  C   UNL     1       8.291  -3.820   0.609  1.00  0.00     0.032 A 
HETATM   10  C   UNL     1       9.190  -3.381  -0.374  1.00  0.00     0.062 A 
ENDROOT
BRANCH   1  11
HETATM   11  C   UNL     1       8.667  -0.945  -0.844  1.00  0.00     0.157 C 
BRANCH  11  12
HETATM   12  C   UNL     1       7.157  -1.063  -0.651  1.00  0.00     0.196 C 
BRANCH  12  13
HETATM   13  O   UNL     1       6.525   0.221  -0.666  1.00  0.00    -0.350 OA
BRANCH  13  14
HETATM   14  C   UNL     1       5.960   0.603  -1.849  1.00  0.00     0.068 A 
HETATM   15  C   UNL     1       4.851   1.443  -1.742  1.00  0.00     0.037 A 
HETATM   16  C   UNL     1       4.249   1.961  -2.888  1.00  0.00     0.009 A 
HETATM   17  C   UNL     1       4.765   1.658  -4.153  1.00  0.00    -0.062 A 
HETATM   18  C   UNL     1       4.190   2.262  -5.398  1.00  0.00     0.048 C 
HETATM   19  C   UNL     1       5.870   0.806  -4.252  1.00  0.00     0.009 A 
HETATM   20  C   UNL     1       6.459   0.273  -3.107  1.00  0.00     0.037 A 
ENDBRANCH  13  14
ENDBRANCH  12  13
ENDBRANCH  11  12
ENDBRANCH   1  11
BRANCH   2  21
HETATM   21  C   UNL     1      11.088  -1.314  -2.787  1.00  0.00     0.102 C 
BRANCH  21  22
HETATM   22  C   UNL     1      11.162  -1.762  -4.247  1.00  0.00     0.171 C 
BRANCH  22  23
HETATM   23  O   UNL     1       9.855  -1.926  -4.795  1.00  0.00    -0.400 OA
HETATM   24  H   UNL     1       9.574  -2.826  -4.541  1.00  0.00     0.209 HD
ENDBRANCH  22  23
ENDBRANCH  21  22
ENDBRANCH   2  21
TORSDOF 7
