REMARK  5 active torsions:
REMARK  status: ('A' for Active; 'I' for Inactive)
REMARK    1  A    between atoms: O_1  and  C_2 
REMARK    2  A    between atoms: C_2  and  C_3 
REMARK    3  A    between atoms: C_2  and  C_10 
REMARK    4  A    between atoms: C_3  and  N_4 
REMARK    5  A    between atoms: C_10  and  N_11 
ROOT
HETATM    1  N   UNL     1       3.216   2.146   1.537  1.00  0.00    -0.271 N 
HETATM    2  N   UNL     1       4.221   2.001   2.423  1.00  0.00    -0.019 NA
HETATM    3  N   UNL     1       3.837   2.576   3.555  1.00  0.00    -0.282 N 
ATOM      4  HN  UNL     1       4.382   2.625   4.416  1.00  0.00     0.184 HD
HETATM    5  C   UNL     1       2.584   3.092   3.368  1.00  0.00     0.075 A 
HETATM    6  C   UNL     1       1.719   3.742   4.257  1.00  0.00     0.058 A 
HETATM    7  C   UNL     1       0.458   4.143   3.789  1.00  0.00     0.058 A 
HETATM    8 CL   UNL     1      -0.609   4.879   4.936  1.00  0.00    -0.082 Cl
HETATM    9  C   UNL     1       0.082   3.931   2.453  1.00  0.00     0.058 A 
HETATM   10 CL   UNL     1      -1.465   4.414   1.844  1.00  0.00    -0.082 Cl
HETATM   11  C   UNL     1       0.947   3.294   1.553  1.00  0.00     0.058 A 
HETATM   12  C   UNL     1       2.182   2.871   2.058  1.00  0.00     0.078 A 
ENDROOT
BRANCH   1  13
HETATM   13  C   UNL     1       3.271   1.448   0.269  1.00  0.00     0.180 C 
BRANCH  13  14
HETATM   14  C   UNL     1       2.625   0.063   0.384  1.00  0.00     0.166 C 
BRANCH  14  15
HETATM   15  O   UNL     1       1.200   0.196   0.472  1.00  0.00    -0.392 OA
HETATM   16  H   UNL     1       0.847  -0.705   0.314  1.00  0.00     0.210 HD
ENDBRANCH  14  15
BRANCH  14  17
HETATM   17  C   UNL     1       2.955  -0.787  -0.858  1.00  0.00     0.305 C 
BRANCH  17  18
HETATM   18  N   UNL     1       2.297  -2.114  -0.851  1.00  0.00     0.095 N 
HETATM   19  C   UNL     1       2.793  -3.019   0.215  1.00  0.00     0.298 C 
HETATM   20  C   UNL     1       4.228  -3.528  -0.003  1.00  0.00     0.198 C 
HETATM   21  O   UNL     1       4.370  -4.169  -1.276  1.00  0.00    -0.388 OA
HETATM   22  C   UNL     1       3.971  -3.299  -2.342  1.00  0.00     0.198 C 
HETATM   23  C   UNL     1       2.524  -2.807  -2.148  1.00  0.00     0.298 C 
ENDBRANCH  17  18
ENDBRANCH  14  17
ENDBRANCH  13  14
ENDBRANCH   1  13
TORSDOF 5
