REMARK  4 active torsions:
REMARK  status: ('A' for Active; 'I' for Inactive)
REMARK    1  A    between atoms: C_2  and  C_5 
REMARK    2  A    between atoms: C_10  and  N_11 
REMARK       I    between atoms: N_11  and  C_12 
REMARK       I    between atoms: C_12  and  N_14 
REMARK    3  A    between atoms: N_14  and  C_15 
REMARK    4  A    between atoms: C_15  and  C_16 
ROOT
HETATM    1  N   UNL     1       1.368  -4.769   0.430  1.00  0.00    -0.304 N 
HETATM    2  C   UNL     1       0.388  -4.534   1.359  1.00  0.00     0.320 C 
HETATM    3  O   UNL     1       0.167  -3.400   1.767  1.00  0.00    -0.247 OA
HETATM    4  N   UNL     1      -0.268  -5.642   1.816  1.00  0.00    -0.340 N 
HETATM    5  H   UNL     1       2.026  -3.999   0.334  1.00  0.00     0.171 HD
HETATM    6  H   UNL     1       0.254  -6.503   1.781  1.00  0.00     0.164 HD
ENDROOT
BRANCH   1   7
HETATM    7  C   UNL     1       1.666  -5.908  -0.286  1.00  0.00     0.105 C 
HETATM    8  C   UNL     1       3.077  -6.049  -0.798  1.00  0.00     0.272 C 
HETATM    9  N   UNL     1       3.379  -7.252  -1.395  1.00  0.00    -0.331 N 
HETATM   10  O   UNL     1       3.905  -5.156  -0.662  1.00  0.00    -0.266 OA
HETATM   11  C   UNL     1       2.486  -8.283  -1.555  1.00  0.00     0.107 C 
HETATM   12  H   UNL     1       4.341  -7.357  -1.699  1.00  0.00     0.168 HD
HETATM   13  C   UNL     1       1.205  -8.149  -1.170  1.00  0.00     0.065 C 
HETATM   14  C   UNL     1       0.794  -6.890  -0.574  1.00  0.00     0.052 C 
BRANCH  13  15
HETATM   15  C   UNL     1       0.204  -9.269  -1.238  1.00  0.00     0.418 C 
HETATM   16  F   UNL     1      -0.995  -8.946  -0.686  1.00  0.00    -0.166 F 
HETATM   17  F   UNL     1       0.648 -10.366  -0.569  1.00  0.00    -0.166 F 
HETATM   18  F   UNL     1      -0.040  -9.656  -2.513  1.00  0.00    -0.166 F 
ENDBRANCH  13  15
ENDBRANCH   1   7
BRANCH   4  19
HETATM   19  C   UNL     1      -1.355  -5.592   2.769  1.00  0.00     0.156 C 
BRANCH  19  20
HETATM   20  C   UNL     1      -0.913  -5.772   4.237  1.00  0.00     0.139 C 
HETATM   21  C   UNL     1      -0.258  -7.123   4.552  1.00  0.00     0.034 C 
HETATM   22  C   UNL     1      -1.261  -8.274   4.591  1.00  0.00     0.005 C 
HETATM   23  C   UNL     1      -2.467  -7.916   5.452  1.00  0.00     0.026 C 
HETATM   24  C   UNL     1      -3.029  -6.554   5.074  1.00  0.00     0.168 C 
HETATM   25  O   UNL     1      -2.017  -5.549   5.129  1.00  0.00    -0.384 OA
ENDBRANCH  19  20
ENDBRANCH   4  19
TORSDOF 4
