REMARK  4 active torsions:
REMARK  status: ('A' for Active; 'I' for Inactive)
REMARK    1  A    between atoms: O_2  and  C_3 
REMARK    2  A    between atoms: C_3  and  C_4 
REMARK       I    between atoms: C_4  and  N_6 
REMARK    3  A    between atoms: N_6  and  C_7 
REMARK    4  A    between atoms: C_10  and  N_14 
ROOT
HETATM    1  C   UNL     1       6.616  -2.403  -0.656  1.00  0.00     0.050 A 
HETATM    2  C   UNL     1       7.384  -1.253  -0.706  1.00  0.00     0.035 A 
HETATM    3  C   UNL     1       8.767  -1.347  -0.856  1.00  0.00     0.051 A 
HETATM    4  C   UNL     1       9.399  -2.583  -0.981  1.00  0.00     0.103 A 
HETATM    5  N   UNL     1       8.659  -3.713  -0.950  1.00  0.00    -0.350 N 
ATOM      6  HN  UNL     1       9.100  -4.628  -1.039  1.00  0.00     0.166 HD
HETATM    7  C   UNL     1       7.307  -3.602  -0.797  1.00  0.00     0.119 A 
ENDROOT
BRANCH   4   8
HETATM    8  N   UNL     1      10.772  -2.659  -1.086  1.00  0.00    -0.362 N 
HETATM    9  C   UNL     1      11.562  -1.632  -1.776  1.00  0.00     0.156 C 
HETATM   10  C   UNL     1      12.188  -2.214  -3.059  1.00  0.00     0.136 C 
HETATM   11  C   UNL     1      13.099  -1.187  -3.720  1.00  0.00     0.041 C 
HETATM   12  O   UNL     1      12.978  -3.377  -2.757  1.00  0.00    -0.378 OA
HETATM   13  C   UNL     1      12.155  -4.411  -2.174  1.00  0.00     0.136 C 
HETATM   14  C   UNL     1      13.070  -5.598  -1.899  1.00  0.00     0.041 C 
HETATM   15  C   UNL     1      11.476  -3.929  -0.873  1.00  0.00     0.156 C 
ENDBRANCH   4   8
BRANCH   1  16
HETATM   16  N   UNL     1       5.220  -2.391  -0.455  1.00  0.00    -0.324 N 
HETATM   17  C   UNL     1       4.457  -1.288  -0.093  1.00  0.00     0.245 C 
HETATM   18  O   UNL     1       4.862  -0.147   0.113  1.00  0.00    -0.271 OA
HETATM   19  H   UNL     1       4.733  -3.283  -0.457  1.00  0.00     0.169 HD
BRANCH  17  20
HETATM   20  C   UNL     1       2.974  -1.622   0.068  1.00  0.00     0.270 C 
BRANCH  20  21
HETATM   21  O   UNL     1       2.733  -2.763   0.885  1.00  0.00    -0.387 OA
HETATM   22  C   UNL     1       3.079  -2.521   2.247  1.00  0.00     0.202 C 
ENDBRANCH  20  21
ENDBRANCH  17  20
ENDBRANCH   1  16
TORSDOF 4
