REMARK  6 active torsions:
REMARK  status: ('A' for Active; 'I' for Inactive)
REMARK    1  A    between atoms: N_1  and  C_12 
REMARK    2  A    between atoms: N_2  and  C_11 
REMARK    3  A    between atoms: C_7  and  C_10 
REMARK    4  A    between atoms: C_8  and  C_9 
REMARK    5  A    between atoms: C_12  and  C_13 
REMARK       I    between atoms: C_13  and  N_17 
REMARK    6  A    between atoms: C_15  and  N_17 
ROOT
HETATM    1  C   UNL     1      -2.924   1.888  -0.120  1.00  0.00     0.240 C 
HETATM    2  N   UNL     1      -4.026   2.029   0.720  1.00  0.00    -0.326 N 
HETATM    3  O   UNL     1      -2.941   1.410  -1.254  1.00  0.00    -0.271 OA
HETATM    4  H   UNL     1      -3.825   2.222   1.699  1.00  0.00     0.169 HD
ENDROOT
BRANCH   1   5
HETATM    5  C   UNL     1      -1.600   2.340   0.507  1.00  0.00     0.240 C 
BRANCH   5   6
HETATM    6  N   UNL     1      -0.810   1.182   0.888  1.00  0.00    -0.255 N 
HETATM    7  C   UNL     1      -1.303   0.413   1.941  1.00  0.00     0.334 C 
HETATM    8  N   UNL     1      -0.640  -0.784   2.180  1.00  0.00    -0.279 N 
HETATM    9  O   UNL     1      -2.284   0.773   2.594  1.00  0.00    -0.246 OA
HETATM   10  C   UNL     1       0.595  -1.051   1.616  1.00  0.00     0.146 C 
HETATM   11  C   UNL     1       1.152  -0.227   0.735  1.00  0.00     0.200 C 
HETATM   12  C   UNL     1       0.424   0.983   0.286  1.00  0.00     0.292 C 
HETATM   13  F   UNL     1       2.371  -0.449   0.210  1.00  0.00    -0.199 F 
HETATM   14  O   UNL     1       0.934   1.750  -0.526  1.00  0.00    -0.264 OA
BRANCH   8  15
HETATM   15  C   UNL     1      -1.277  -1.724   3.102  1.00  0.00     0.232 C 
HETATM   16  O   UNL     1      -0.514  -2.932   3.239  1.00  0.00    -0.366 OA
HETATM   17  C   UNL     1      -1.416  -4.022   3.465  1.00  0.00     0.170 C 
HETATM   18  C   UNL     1      -2.829  -3.520   3.266  1.00  0.00     0.031 C 
HETATM   19  C   UNL     1      -2.650  -2.175   2.616  1.00  0.00     0.056 C 
ENDBRANCH   8  15
ENDBRANCH   5   6
ENDBRANCH   1   5
BRANCH   2  20
HETATM   20  C   UNL     1      -5.389   1.889   0.368  1.00  0.00     0.036 A 
HETATM   21  C   UNL     1      -5.800   1.491  -0.904  1.00  0.00     0.045 A 
HETATM   22  C   UNL     1      -7.155   1.473  -1.269  1.00  0.00     0.050 A 
HETATM   23  C   UNL     1      -8.119   1.856  -0.330  1.00  0.00     0.032 A 
HETATM   24  C   UNL     1      -7.735   2.280   0.952  1.00  0.00     0.050 A 
HETATM   25  C   UNL     1      -6.368   2.251   1.305  1.00  0.00     0.045 A 
BRANCH  22  26
HETATM   26  C   UNL     1      -7.517   1.116  -2.690  1.00  0.00     0.417 C 
HETATM   27  F   UNL     1      -8.849   1.221  -2.952  1.00  0.00    -0.166 F 
HETATM   28  F   UNL     1      -6.897   1.925  -3.593  1.00  0.00    -0.166 F 
HETATM   29  F   UNL     1      -7.167  -0.156  -3.018  1.00  0.00    -0.166 F 
ENDBRANCH  22  26
BRANCH  24  30
HETATM   30  C   UNL     1      -8.762   2.861   1.900  1.00  0.00     0.417 C 
HETATM   31  F   UNL     1     -10.010   2.948   1.358  1.00  0.00    -0.166 F 
HETATM   32  F   UNL     1      -8.899   2.145   3.047  1.00  0.00    -0.166 F 
HETATM   33  F   UNL     1      -8.440   4.129   2.283  1.00  0.00    -0.166 F 
ENDBRANCH  24  30
ENDBRANCH   2  20
TORSDOF 6
