REMARK  4 active torsions:
REMARK  status: ('A' for Active; 'I' for Inactive)
REMARK    1  A    between atoms: C_2  and  C_4 
REMARK    2  A    between atoms: C_8  and  C_9 
REMARK    3  A    between atoms: C_9  and  C_10 
REMARK    4  A    between atoms: C_10  and  N_11 
REMARK       I    between atoms: N_11  and  C_12 
REMARK       I    between atoms: C_12  and  N_14 
ROOT
HETATM    1  C   UNL     1       4.474  -1.253  -5.984  1.00  0.00     0.132 C 
ENDROOT
BRANCH   1   2
HETATM    2  C   UNL     1       4.253  -0.046  -5.070  1.00  0.00     0.106 C 
BRANCH   2   3
HETATM    3  C   UNL     1       3.715  -0.418  -3.736  1.00  0.00     0.149 A 
HETATM    4  O   UNL     1       4.093   0.391  -2.702  1.00  0.00    -0.223 OA
HETATM    5  N   UNL     1       3.455  -0.089  -1.561  1.00  0.00    -0.247 N 
HETATM    6  C   UNL     1       2.756  -1.137  -2.014  1.00  0.00     0.107 A 
ATOM      7  HN  UNL     1       3.508   0.272  -0.608  1.00  0.00     0.196 HD
HETATM    8  N   UNL     1       2.887  -1.375  -3.366  1.00  0.00    -0.327 N 
ATOM      9  HN  UNL     1       2.455  -2.104  -3.934  1.00  0.00     0.169 HD
BRANCH   6  10
HETATM   10  C   UNL     1       1.900  -1.958  -1.103  1.00  0.00     0.047 C 
HETATM   11  C   UNL     1       0.428  -1.915  -1.507  1.00  0.00     0.017 C 
HETATM   12  C   UNL     1       2.391  -3.403  -1.016  1.00  0.00     0.017 C 
ENDBRANCH   6  10
ENDBRANCH   2   3
ENDBRANCH   1   2
BRANCH   1  13
HETATM   13  N   UNL     1       5.026  -0.912  -7.300  1.00  0.00    -0.343 N 
HETATM   14  C   UNL     1       6.297  -0.411  -7.411  1.00  0.00     0.318 C 
HETATM   15  O   UNL     1       6.965  -0.149  -6.412  1.00  0.00    -0.247 OA
HETATM   16  N   UNL     1       6.770  -0.196  -8.685  1.00  0.00    -0.330 N 
HETATM   17  C   UNL     1       6.106  -0.460  -9.966  1.00  0.00     0.153 C 
HETATM   18  C   UNL     1       8.094   0.419  -8.851  1.00  0.00     0.159 C 
HETATM   19  C   UNL     1       7.036  -1.272 -10.882  1.00  0.00     0.188 C 
HETATM   20  O   UNL     1       8.305  -0.621 -11.054  1.00  0.00    -0.383 OA
HETATM   21  C   UNL     1       8.966  -0.434  -9.787  1.00  0.00     0.135 C 
HETATM   22  C   UNL     1      10.309   0.233 -10.053  1.00  0.00     0.041 C 
HETATM   23  H   UNL     1       4.731  -1.515  -8.050  1.00  0.00     0.164 HD
ENDBRANCH   1  13
TORSDOF 4
