REMARK  5 active torsions:
REMARK  status: ('A' for Active; 'I' for Inactive)
REMARK    1  A    between atoms: C_5  and  C_6 
REMARK    2  A    between atoms: C_6  and  C_7 
REMARK    3  A    between atoms: C_7  and  N_8 
REMARK       I    between atoms: N_8  and  C_9 
REMARK    4  A    between atoms: C_9  and  C_11 
REMARK    5  A    between atoms: C_11  and  N_12 
ROOT
HETATM    1  N   UNL     1       8.281   1.765   0.136  1.00  0.00    -0.359 N 
HETATM    2  C   UNL     1       9.464   1.110   0.409  1.00  0.00     0.235 C 
HETATM    3  O   UNL     1       9.513  -0.111   0.553  1.00  0.00    -0.272 OA
HETATM    4  H   UNL     1       8.235   2.775   0.215  1.00  0.00     0.162 HD
ENDROOT
BRANCH   1   5
HETATM    5  C   UNL     1       7.023   1.040   0.048  1.00  0.00     0.128 C 
BRANCH   5   6
HETATM    6  C   UNL     1       6.421   0.681   1.408  1.00  0.00     0.077 C 
BRANCH   6   7
HETATM    7  C   UNL     1       5.946   1.877   2.170  1.00  0.00     0.018 A 
HETATM    8  N   UNL     1       5.023   2.725   1.575  1.00  0.00    -0.357 N 
HETATM    9  C   UNL     1       4.710   3.703   2.397  1.00  0.00     0.046 A 
ATOM     10  HN  UNL     1       4.642   2.607   0.636  1.00  0.00     0.166 HD
HETATM   11  C   UNL     1       3.751   4.795   2.080  1.00  0.00     0.076 C 
HETATM   12  S   UNL     1       5.501   3.668   3.922  1.00  0.00    -0.087 SA
HETATM   13  C   UNL     1       6.318   2.239   3.451  1.00  0.00     0.076 A 
ENDBRANCH   6   7
ENDBRANCH   5   6
ENDBRANCH   1   5
BRANCH   2  14
HETATM   14  C   UNL     1      10.708   2.005   0.399  1.00  0.00     0.229 C 
BRANCH  14  15
HETATM   15  N   UNL     1      11.840   1.478   1.152  1.00  0.00    -0.334 N 
HETATM   16  C   UNL     1      12.506   0.270   0.730  1.00  0.00     0.200 C 
HETATM   17  S   UNL     1      13.845  -0.046   1.888  1.00  0.00    -0.140 SA
HETATM   18  C   UNL     1      13.546   1.454   2.844  1.00  0.00     0.178 C 
HETATM   19  C   UNL     1      12.264   2.064   2.327  1.00  0.00     0.230 C 
HETATM   20  O   UNL     1      11.711   3.018   2.862  1.00  0.00    -0.273 OA
ENDBRANCH  14  15
ENDBRANCH   2  14
TORSDOF 5
