REMARK  5 active torsions:
REMARK  status: ('A' for Active; 'I' for Inactive)
REMARK    1  A    between atoms: C_2  and  C_3 
REMARK    2  A    between atoms: C_7  and  C_8 
REMARK    3  A    between atoms: C_8  and  C_9 
REMARK    4  A    between atoms: C_9  and  N_10 
REMARK       I    between atoms: N_10  and  C_11 
REMARK    5  A    between atoms: C_11  and  C_13 
ROOT
HETATM    1  C   UNL     1       4.098  -3.031   4.146  1.00  0.00     0.129 C 
ENDROOT
BRANCH   1   2
HETATM    2  C   UNL     1       4.177  -1.536   4.463  1.00  0.00     0.084 C 
BRANCH   2   3
HETATM    3  C   UNL     1       3.759  -0.682   3.306  1.00  0.00     0.052 A 
HETATM    4  N   UNL     1       3.284  -1.125   2.161  1.00  0.00    -0.363 N 
HETATM    5  C   UNL     1       3.064  -0.061   1.308  1.00  0.00     0.103 A 
ATOM      6  HN  UNL     1       3.106  -2.104   1.938  1.00  0.00     0.165 HD
HETATM    7  C   UNL     1       3.351   1.188   1.818  1.00  0.00    -0.001 A 
HETATM    8  S   UNL     1       3.912   1.029   3.429  1.00  0.00    -0.080 SA
BRANCH   7   9
HETATM    9  C   UNL     1       3.243   2.525   1.162  1.00  0.00     0.043 C 
HETATM   10  C   UNL     1       1.865   3.139   1.351  1.00  0.00     0.010 C 
ENDBRANCH   7   9
ENDBRANCH   2   3
ENDBRANCH   1   2
BRANCH   1  11
HETATM   11  N   UNL     1       4.547  -3.866   5.250  1.00  0.00    -0.358 N 
HETATM   12  C   UNL     1       5.873  -3.890   5.634  1.00  0.00     0.246 C 
HETATM   13  O   UNL     1       6.718  -3.121   5.191  1.00  0.00    -0.271 OA
HETATM   14  H   UNL     1       4.023  -4.711   5.471  1.00  0.00     0.162 HD
BRANCH  12  15
HETATM   15  C   UNL     1       6.167  -4.901   6.747  1.00  0.00     0.213 C 
HETATM   16  C   UNL     1       7.622  -5.347   6.751  1.00  0.00     0.043 C 
HETATM   17  C   UNL     1       7.575  -6.830   7.038  1.00  0.00     0.029 C 
HETATM   18  C   UNL     1       6.115  -7.127   7.294  1.00  0.00     0.168 C 
HETATM   19  O   UNL     1       5.374  -6.090   6.646  1.00  0.00    -0.376 OA
ENDBRANCH  12  15
ENDBRANCH   1  11
TORSDOF 5
