REMARK  5 active torsions:
REMARK  status: ('A' for Active; 'I' for Inactive)
REMARK       I    between atoms: C_2  and  N_3 
REMARK       I    between atoms: C_2  and  N_18 
REMARK    1  A    between atoms: N_3  and  C_4 
REMARK    2  A    between atoms: C_4  and  C_5 
REMARK    3  A    between atoms: C_5  and  N_6 
REMARK       I    between atoms: N_9  and  C_12 
REMARK    4  A    between atoms: C_12  and  C_14 
REMARK    5  A    between atoms: N_18  and  C_19 
ROOT
HETATM    1  C   UNL     1       3.888   3.575  -2.437  1.00  0.00     0.154 C 
ENDROOT
BRANCH   1   2
HETATM    2  N   UNL     1       4.884   2.511  -2.433  1.00  0.00    -0.341 N 
HETATM    3  C   UNL     1       5.987   2.601  -1.618  1.00  0.00     0.320 C 
HETATM    4  O   UNL     1       6.193   3.568  -0.891  1.00  0.00    -0.247 OA
HETATM    5  N   UNL     1       6.815   1.511  -1.744  1.00  0.00    -0.309 N 
HETATM    6  H   UNL     1       6.787   1.048  -2.642  1.00  0.00     0.170 HD
HETATM    7  H   UNL     1       4.590   1.587  -2.722  1.00  0.00     0.164 HD
BRANCH   5   8
HETATM    8  C   UNL     1       7.916   1.229  -0.904  1.00  0.00     0.038 A 
HETATM    9  C   UNL     1       8.023   1.739   0.389  1.00  0.00     0.046 A 
HETATM   10  C   UNL     1       9.129   1.394   1.148  1.00  0.00     0.090 A 
HETATM   11  N   UNL     1      10.116   0.586   0.710  1.00  0.00    -0.375 N 
HETATM   12  C   UNL     1       9.989   0.102  -0.543  1.00  0.00     0.090 A 
ATOM     13  HN  UNL     1      10.918   0.353   1.296  1.00  0.00     0.164 HD
HETATM   14  C   UNL     1       8.915   0.381  -1.375  1.00  0.00     0.046 A 
ENDBRANCH   5   8
ENDBRANCH   1   2
BRANCH   1  15
HETATM   15  C   UNL     1       3.152   3.736  -1.088  1.00  0.00     0.292 C 
BRANCH  15  16
HETATM   16  N   UNL     1       2.103   4.777  -1.074  1.00  0.00     0.093 N 
HETATM   17  C   UNL     1       2.625   6.164  -1.204  1.00  0.00     0.292 C 
HETATM   18  C   UNL     1       3.219   6.826   0.072  1.00  0.00     0.156 C 
HETATM   19  N   UNL     1       2.391   6.569   1.254  1.00  0.00    -0.348 N 
HETATM   20  C   UNL     1       2.059   5.160   1.432  1.00  0.00     0.156 C 
HETATM   21  C   UNL     1       1.653   7.506   1.979  1.00  0.00     0.224 C 
HETATM   22  C   UNL     1       1.308   4.675   0.178  1.00  0.00     0.292 C 
HETATM   23  O   UNL     1       0.936   7.132   2.920  1.00  0.00    -0.273 OA
BRANCH  21  24
HETATM   24  C   UNL     1       1.723   8.996   1.577  1.00  0.00     0.078 C 
HETATM   25  C   UNL     1       0.858   9.975   2.437  1.00  0.00     0.014 C 
HETATM   26  C   UNL     1       0.572  10.760   1.148  1.00  0.00     0.002 C 
HETATM   27  C   UNL     1       0.844   9.455   0.377  1.00  0.00     0.014 C 
ENDBRANCH  21  24
ENDBRANCH  15  16
ENDBRANCH   1  15
TORSDOF 5
