REMARK  7 active torsions:
REMARK  status: ('A' for Active; 'I' for Inactive)
REMARK    1  A    between atoms: O_2  and  C_3 
REMARK    2  A    between atoms: C_3  and  C_4 
REMARK    3  A    between atoms: C_4  and  O_5 
REMARK    4  A    between atoms: O_5  and  C_6 
REMARK    5  A    between atoms: C_12  and  C_13 
REMARK       I    between atoms: C_13  and  N_15 
REMARK    6  A    between atoms: N_15  and  C_16 
REMARK    7  A    between atoms: C_16  and  C_17 
ROOT
HETATM    1  C   UNL     1       6.721  -1.889   1.544  1.00  0.00     0.158 A 
HETATM    2  N   UNL     1       7.445  -0.782   1.863  1.00  0.00    -0.346 N 
ATOM      3  HN  UNL     1       7.515   0.005   1.217  1.00  0.00     0.167 HD
HETATM    4  C   UNL     1       8.068  -0.757   3.061  1.00  0.00     0.090 A 
HETATM    5  C   UNL     1       8.004  -1.789   3.977  1.00  0.00     0.018 A 
HETATM    6  C   UNL     1       7.264  -2.913   3.636  1.00  0.00     0.023 A 
HETATM    7  C   UNL     1       6.595  -2.982   2.402  1.00  0.00     0.083 A 
ENDROOT
BRANCH   7   8
HETATM    8  C   UNL     1       5.859  -4.238   2.110  1.00  0.00     0.256 C 
HETATM    9  O   UNL     1       6.177  -5.264   2.709  1.00  0.00    -0.268 OA
HETATM   10  N   UNL     1       4.829  -4.208   1.200  1.00  0.00    -0.354 N 
HETATM   11  H   UNL     1       4.690  -3.375   0.634  1.00  0.00     0.162 HD
BRANCH  10  12
HETATM   12  C   UNL     1       4.189  -5.441   0.762  1.00  0.00     0.156 C 
BRANCH  12  13
HETATM   13  C   UNL     1       2.717  -5.239   0.354  1.00  0.00     0.167 C 
HETATM   14  C   UNL     1       2.050  -6.574  -0.049  1.00  0.00     0.305 C 
HETATM   15  N   UNL     1       2.649  -7.110  -1.287  1.00  0.00     0.088 N 
HETATM   16  C   UNL     1       2.038  -8.382  -1.665  1.00  0.00     0.310 C 
HETATM   17  C   UNL     1       2.489  -6.110  -2.359  1.00  0.00     0.298 C 
HETATM   18  C   UNL     1       3.058  -4.735  -1.962  1.00  0.00     0.198 C 
HETATM   19  O   UNL     1       2.564  -4.263  -0.701  1.00  0.00    -0.381 OA
ENDBRANCH  12  13
ENDBRANCH  10  12
ENDBRANCH   7   8
BRANCH   1  20
HETATM   20  O   UNL     1       6.062  -1.895   0.329  1.00  0.00    -0.333 OA
BRANCH  20  21
HETATM   21  C   UNL     1       6.569  -0.916  -0.593  1.00  0.00     0.203 C 
BRANCH  21  22
HETATM   22  C   UNL     1       5.655  -0.856  -1.815  1.00  0.00     0.193 C 
BRANCH  22  23
HETATM   23  O   UNL     1       6.206   0.047  -2.777  1.00  0.00    -0.394 OA
HETATM   24  C   UNL     1       5.390   0.150  -3.936  1.00  0.00     0.201 C 
ENDBRANCH  22  23
ENDBRANCH  21  22
ENDBRANCH  20  21
ENDBRANCH   1  20
TORSDOF 7
