REMARK  5 active torsions:
REMARK  status: ('A' for Active; 'I' for Inactive)
REMARK    1  A    between atoms: C_2  and  O_3 
REMARK    2  A    between atoms: O_3  and  C_4 
REMARK    3  A    between atoms: C_6  and  N_7 
REMARK       I    between atoms: N_7  and  C_8 
REMARK    4  A    between atoms: C_8  and  C_10 
REMARK    5  A    between atoms: C_10  and  C_11 
ROOT
HETATM    1  N   UNL     1       4.787  -0.690  -1.184  1.00  0.00    -0.354 N 
HETATM    2  C   UNL     1       4.443  -2.001  -0.898  1.00  0.00     0.222 C 
HETATM    3  O   UNL     1       4.600  -2.554   0.188  1.00  0.00    -0.273 OA
HETATM    4  H   UNL     1       4.501  -0.320  -2.084  1.00  0.00     0.163 HD
ENDROOT
BRANCH   2   5
HETATM    5  C   UNL     1       3.817  -2.740  -2.063  1.00  0.00     0.146 C 
BRANCH   5   6
HETATM    6  C   UNL     1       2.324  -2.787  -2.033  1.00  0.00     0.006 A 
HETATM    7  C   UNL     1       1.464  -2.997  -3.153  1.00  0.00     0.038 A 
HETATM    8  C   UNL     1       1.812  -3.204  -4.579  1.00  0.00     0.071 C 
HETATM    9  N   UNL     1       0.177  -3.006  -2.795  1.00  0.00    -0.265 N 
HETATM   10  O   UNL     1       0.166  -2.824  -1.431  1.00  0.00    -0.242 OA
ATOM     11  HN  UNL     1      -0.631  -3.124  -3.407  1.00  0.00     0.194 HD
HETATM   12  C   UNL     1       1.440  -2.701  -0.972  1.00  0.00     0.081 A 
HETATM   13  C   UNL     1       1.561  -2.521   0.491  1.00  0.00     0.079 C 
ENDBRANCH   5   6
ENDBRANCH   2   5
BRANCH   1  14
HETATM   14  C   UNL     1       5.366   0.254  -0.269  1.00  0.00     0.116 A 
HETATM   15  C   UNL     1       6.837   0.237   0.090  1.00  0.00     0.146 A 
HETATM   16  C   UNL     1       5.798  -0.040   1.137  1.00  0.00     0.061 A 
BRANCH  15  17
HETATM   17  O   UNL     1       7.611  -0.922  -0.288  1.00  0.00    -0.384 OA
BRANCH  17  18
HETATM   18  C   UNL     1       8.662  -0.630  -1.202  1.00  0.00     0.163 C 
HETATM   19  C   UNL     1       9.516  -1.872  -1.372  1.00  0.00     0.033 C 
ENDBRANCH  17  18
ENDBRANCH  15  17
ENDBRANCH   1  14
TORSDOF 5
