REMARK  3 active torsions:
REMARK  status: ('A' for Active; 'I' for Inactive)
REMARK    1  A    between atoms: N_6  and  C_11 
REMARK    2  A    between atoms: CA_16  and  C_18 
REMARK    3  A    between atoms: C_18  and  OXT_20 
ROOT
HETATM    1  C   UNL     2       1.891   1.430  -3.385  1.00  0.00     0.034 A 
HETATM    2  C   UNL     2       1.982   2.828  -3.208  1.00  0.00     0.046 A 
HETATM    3  C   UNL     2       1.244   3.687  -4.021  1.00  0.00     0.091 A 
HETATM    4  N   UNL     2       0.420   3.184  -4.973  1.00  0.00    -0.360 N 
ATOM      5  HN  UNL     2      -0.119   3.829  -5.551  1.00  0.00     0.165 HD
HETATM    6  CA  UNL     2       0.290   1.847  -5.181  1.00  0.00     0.108 A 
HETATM    7  C   UNL     2       1.036   0.949  -4.396  1.00  0.00     0.066 A 
ENDROOT
BRANCH   1   8
HETATM    8  N   UNL     2       2.637   0.531  -2.545  1.00  0.00    -0.376 N 
HETATM    9  C   UNL     2       2.965   0.855  -1.171  1.00  0.00     0.154 C 
HETATM   10  C   UNL     2       2.331  -0.223  -0.276  1.00  0.00     0.136 C 
HETATM   11  C   UNL     2       0.789  -0.135  -0.251  1.00  0.00     0.041 C 
HETATM   12  O   UNL     2       2.790  -1.520  -0.643  1.00  0.00    -0.378 OA
HETATM   13  C   UNL     2       2.488  -1.846  -1.996  1.00  0.00     0.136 C 
HETATM   14  C   UNL     2       3.066  -0.797  -2.966  1.00  0.00     0.154 C 
HETATM   15  C   UNL     2       3.072  -3.225  -2.296  1.00  0.00     0.041 C 
ENDBRANCH   1   8
BRANCH   6  16
HETATM   16  C   UNL     2      -0.655   1.360  -6.216  1.00  0.00     0.193 C 
HETATM   17  O   UNL     2      -0.790   0.162  -6.410  1.00  0.00    -0.645 OA
BRANCH  16  18
HETATM   18  OXT UNL     2      -1.394   2.225  -6.945  1.00  0.00    -0.772 OA
HETATM   19  HXT UNL     2      -1.343   3.184  -6.827  1.00  0.00     0.167 HD
ENDBRANCH  16  18
ENDBRANCH   6  16
TORSDOF 3
