REMARK  5 active torsions:
REMARK  status: ('A' for Active; 'I' for Inactive)
REMARK    1  A    between atoms: C_2  and  N_3 
REMARK    2  A    between atoms: C_2  and  C_11 
REMARK    3  A    between atoms: N_3  and  C_4 
REMARK    4  A    between atoms: C_4  and  C_5 
REMARK    5  A    between atoms: C_11  and  N_13 
ROOT
HETATM    1  C   UNL     1       0.916   0.025  -0.045  1.00  0.00     0.045 C 
HETATM    2  C   UNL     1       2.448   0.134  -0.082  1.00  0.00     0.240 C 
ENDROOT
BRANCH   2   3
HETATM    3  N   UNL     1       2.898  -0.513  -1.337  1.00  0.00     0.092 N 
HETATM    4  H   UNL     1       2.508  -0.052  -2.162  1.00  0.00     0.316 HD
BRANCH   3   5
HETATM    5  C   UNL     1       4.356  -0.597  -1.464  1.00  0.00     0.301 C 
BRANCH   5   6
HETATM    6  C   UNL     1       4.809  -1.172  -2.829  1.00  0.00     0.149 C 
HETATM    7  C   UNL     1       6.339  -1.219  -2.935  1.00  0.00     0.034 C 
HETATM    8  C   UNL     1       6.943   0.173  -3.108  1.00  0.00     0.004 C 
HETATM    9  C   UNL     1       6.265   0.903  -4.259  1.00  0.00     0.026 C 
HETATM   10  C   UNL     1       4.751   0.870  -4.120  1.00  0.00     0.168 C 
HETATM   11  O   UNL     1       4.254  -0.453  -3.943  1.00  0.00    -0.384 OA
ENDBRANCH   5   6
ENDBRANCH   3   5
ENDBRANCH   2   3
BRANCH   2  12
HETATM   12  C   UNL     1       2.953   1.598   0.137  1.00  0.00     0.136 C 
HETATM   13  C   UNL     1       2.493   2.586  -0.940  1.00  0.00     0.036 C 
BRANCH  12  14
HETATM   14  N   UNL     1       2.663   2.065   1.494  1.00  0.00    -0.297 N 
HETATM   15  C   UNL     1       3.461   1.889   2.592  1.00  0.00     0.118 A 
HETATM   16  C   UNL     1       2.817   2.503   3.646  1.00  0.00    -0.028 A 
HETATM   17  C   UNL     1       3.248   2.601   5.056  1.00  0.00     0.051 C 
HETATM   18  C   UNL     1       1.643   3.028   3.068  1.00  0.00     0.115 A 
HETATM   19  N   UNL     1       1.548   2.768   1.763  1.00  0.00    -0.309 N 
ATOM     20  HN  UNL     1       0.804   3.039   1.120  1.00  0.00     0.186 HD
ENDBRANCH  12  14
ENDBRANCH   2  12
TORSDOF 5
