REMARK  8 active torsions:
REMARK  status: ('A' for Active; 'I' for Inactive)
REMARK    1  A    between atoms: O_1  and  C_2 
REMARK    2  A    between atoms: C_2  and  C_3 
REMARK    3  A    between atoms: N_12  and  C_13 
REMARK    4  A    between atoms: C_13  and  C_14 
REMARK    5  A    between atoms: C_14  and  O_15 
REMARK    6  A    between atoms: C_14  and  C_16 
REMARK    7  A    between atoms: C_19  and  O_20 
REMARK    8  A    between atoms: O_20  and  C_21 
ROOT
HETATM    1  C   UNL     1       2.945  -2.462  -1.648  1.00  0.00     0.167 C 
ENDROOT
BRANCH   1   2
HETATM    2  N   UNL     1       3.023  -1.132  -2.235  1.00  0.00    -0.330 N 
HETATM    3  C   UNL     1       2.005  -0.472  -2.897  1.00  0.00     0.108 A 
HETATM    4  N   UNL     1       2.366   0.764  -3.189  1.00  0.00    -0.342 N 
HETATM    5  C   UNL     1       3.639   0.913  -2.704  1.00  0.00     0.060 A 
ATOM      6  HN  UNL     1       1.810   1.466  -3.677  1.00  0.00     0.167 HD
HETATM    7  C   UNL     1       4.474   2.040  -2.738  1.00  0.00     0.032 A 
HETATM    8  C   UNL     1       4.083  -0.257  -2.098  1.00  0.00     0.062 A 
HETATM    9  C   UNL     1       5.742   1.960  -2.154  1.00  0.00     0.002 A 
HETATM   10  C   UNL     1       6.174   0.777  -1.556  1.00  0.00     0.002 A 
HETATM   11  C   UNL     1       5.352  -0.359  -1.513  1.00  0.00     0.032 A 
BRANCH   3  12
HETATM   12  C   UNL     1       0.666  -1.053  -3.191  1.00  0.00     0.240 C 
BRANCH  12  13
HETATM   13  O   UNL     1       0.848  -2.229  -3.967  1.00  0.00    -0.393 OA
HETATM   14  H   UNL     1       0.085  -2.282  -4.568  1.00  0.00     0.209 HD
ENDBRANCH  12  13
ENDBRANCH   3  12
ENDBRANCH   1   2
BRANCH   1  15
HETATM   15  C   UNL     1       3.396  -3.594  -2.588  1.00  0.00     0.169 C 
BRANCH  15  16
HETATM   16  O   UNL     1       4.806  -3.540  -2.820  1.00  0.00    -0.389 OA
HETATM   17  H   UNL     1       5.258  -3.649  -1.970  1.00  0.00     0.210 HD
ENDBRANCH  15  16
BRANCH  15  18
HETATM   18  C   UNL     1       3.072  -4.995  -2.083  1.00  0.00    -0.028 A 
HETATM   19  C   UNL     1       2.881  -6.018  -3.025  1.00  0.00     0.012 A 
HETATM   20  C   UNL     1       2.568  -7.320  -2.623  1.00  0.00     0.037 A 
HETATM   21  C   UNL     1       2.466  -7.639  -1.269  1.00  0.00     0.074 A 
HETATM   22  C   UNL     1       2.658  -6.637  -0.319  1.00  0.00     0.037 A 
HETATM   23  C   UNL     1       2.970  -5.329  -0.723  1.00  0.00     0.012 A 
BRANCH  21  24
HETATM   24  O   UNL     1       2.142  -8.940  -1.008  1.00  0.00    -0.290 OA
BRANCH  24  25
HETATM   25  C   UNL     1       2.560  -9.442   0.249  1.00  0.00     0.505 C 
HETATM   26  F   UNL     1       1.661  -9.074   1.195  1.00  0.00    -0.184 F 
HETATM   27  F   UNL     1       2.516 -10.797   0.178  1.00  0.00    -0.184 F 
ENDBRANCH  24  25
ENDBRANCH  21  24
ENDBRANCH  15  18
ENDBRANCH   1  15
TORSDOF 8
