REMARK  4 active torsions:
REMARK  status: ('A' for Active; 'I' for Inactive)
REMARK    1  A    between atoms: C_2  and  C_3 
REMARK       I    between atoms: C_2  and  N_11 
REMARK    2  A    between atoms: C_3  and  N_4 
REMARK    3  A    between atoms: N_11  and  C_12 
REMARK    4  A    between atoms: C_12  and  C_13 
REMARK       I    between atoms: C_13  and  N_15 
ROOT
HETATM    1  O   UNL     1       2.940   0.990  -0.369  1.00  0.00    -0.272 OA
HETATM    2  C   UNL     1       2.422   0.135   0.347  1.00  0.00     0.237 C 
HETATM    3  N   UNL     1       3.165  -0.757   1.079  1.00  0.00    -0.351 N 
HETATM    4  H   UNL     1       2.731  -1.444   1.691  1.00  0.00     0.163 HD
ENDROOT
BRANCH   2   5
HETATM    5  C   UNL     1       0.927  -0.013   0.470  1.00  0.00     0.252 C 
BRANCH   5   6
HETATM    6  N   UNL     1       0.339   1.169   1.055  1.00  0.00    -0.278 N 
HETATM    7  C   UNL     1       0.220   2.407   0.503  1.00  0.00     0.201 A 
HETATM    8  N   UNL     1      -0.418   3.198   1.335  1.00  0.00    -0.346 N 
HETATM    9  C   UNL     1      -0.676   2.381   2.398  1.00  0.00     0.198 A 
ATOM     10  HN  UNL     1      -0.661   4.181   1.216  1.00  0.00     0.167 HD
HETATM   11  N   UNL     1      -0.242   1.124   2.270  1.00  0.00    -0.293 N 
ATOM     12  HN  UNL     1      -0.327   0.341   2.918  1.00  0.00     0.188 HD
ENDBRANCH   5   6
ENDBRANCH   2   5
BRANCH   3  13
HETATM   13  C   UNL     1       4.615  -0.715   1.090  1.00  0.00     0.225 C 
BRANCH  13  14
HETATM   14  C   UNL     1       5.158  -1.875   1.921  1.00  0.00     0.237 C 
HETATM   15  O   UNL     1       4.393  -2.661   2.487  1.00  0.00    -0.272 OA
HETATM   16  N   UNL     1       6.525  -2.024   1.959  1.00  0.00    -0.351 N 
HETATM   17  C   UNL     1       7.145  -3.179   2.574  1.00  0.00     0.126 C 
HETATM   18  C   UNL     1       7.531  -1.085   1.507  1.00  0.00     0.126 C 
HETATM   19  C   UNL     1       8.584  -3.178   2.062  1.00  0.00     0.021 C 
HETATM   20  C   UNL     1       8.682  -1.988   1.107  1.00  0.00     0.021 C 
ENDBRANCH  13  14
ENDBRANCH   3  13
TORSDOF 4
