REMARK  4 active torsions:
REMARK  status: ('A' for Active; 'I' for Inactive)
REMARK    1  A    between atoms: C_2  and  N_3 
REMARK    2  A    between atoms: C_8  and  N_9 
REMARK       I    between atoms: N_9  and  C_10 
REMARK       I    between atoms: C_10  and  N_12 
REMARK    3  A    between atoms: N_12  and  C_13 
REMARK    4  A    between atoms: C_13  and  C_15 
ROOT
HETATM    1  N   UNL     1       3.654   4.864  -2.074  1.00  0.00    -0.305 N 
HETATM    2  C   UNL     1       4.524   5.430  -2.985  1.00  0.00     0.321 C 
HETATM    3  O   UNL     1       5.651   5.045  -3.256  1.00  0.00    -0.247 OA
HETATM    4  N   UNL     1       3.993   6.571  -3.562  1.00  0.00    -0.338 N 
HETATM    5  H   UNL     1       2.904   5.453  -1.752  1.00  0.00     0.171 HD
HETATM    6  H   UNL     1       2.987   6.573  -3.645  1.00  0.00     0.164 HD
ENDROOT
BRANCH   1   7
HETATM    7  C   UNL     1       3.863   3.683  -1.361  1.00  0.00     0.084 A 
HETATM    8  C   UNL     1       4.800   2.618  -1.524  1.00  0.00     0.051 A 
HETATM    9  N   UNL     1       4.637   1.670  -0.592  1.00  0.00    -0.301 N 
HETATM   10  C   UNL     1       5.854   2.404  -2.545  1.00  0.00     0.072 C 
HETATM   11  N   UNL     1       3.607   2.094   0.143  1.00  0.00    -0.295 N 
ATOM     12  HN  UNL     1       5.179   0.815  -0.471  1.00  0.00     0.187 HD
HETATM   13  C   UNL     1       3.087   3.296  -0.275  1.00  0.00     0.053 A 
HETATM   14  C   UNL     1       1.933   3.930   0.416  1.00  0.00     0.072 C 
BRANCH  11  15
HETATM   15  C   UNL     1       3.171   1.258   1.254  1.00  0.00     0.144 C 
HETATM   16  C   UNL     1       3.923   1.548   2.542  1.00  0.00     0.028 C 
ENDBRANCH  11  15
ENDBRANCH   1   7
BRANCH   4  17
HETATM   17  C   UNL     1       4.748   7.379  -4.547  1.00  0.00     0.086 C 
HETATM   18  C   UNL     1       3.741   7.936  -5.563  1.00  0.00     0.032 C 
BRANCH  17  19
HETATM   19  C   UNL     1       5.551   8.529  -3.852  1.00  0.00     0.012 C 
HETATM   20  C   UNL     1       6.313   9.467  -4.820  1.00  0.00     0.033 C 
HETATM   21  C   UNL     1       7.630   8.885  -5.330  1.00  0.00     0.168 C 
HETATM   22  O   UNL     1       8.450   8.423  -4.260  1.00  0.00    -0.391 OA
HETATM   23  C   UNL     1       7.795   7.421  -3.480  1.00  0.00     0.168 C 
HETATM   24  C   UNL     1       6.569   8.028  -2.810  1.00  0.00     0.033 C 
ENDBRANCH  17  19
ENDBRANCH   4  17
TORSDOF 4
