REMARK  4 active torsions:
REMARK  status: ('A' for Active; 'I' for Inactive)
REMARK    1  A    between atoms: N_11  and  C_12 
REMARK    2  A    between atoms: C_12  and  C_13 
REMARK    3  A    between atoms: C_13  and  O_14 
REMARK    4  A    between atoms: C_13  and  C_15 
ROOT
HETATM    1  C   UNL     1       1.070   0.111   0.040  1.00  0.00     0.164 C 
HETATM    2  N   UNL     1       2.518   0.034   0.062  1.00  0.00    -0.269 N 
HETATM    3  C   UNL     1       3.121  -1.240   0.063  1.00  0.00     0.332 A 
HETATM    4  O   UNL     1       2.443  -2.271   0.043  1.00  0.00    -0.246 OA
HETATM    5  N   UNL     1       4.517  -1.283   0.089  1.00  0.00    -0.287 N 
HETATM    6  C   UNL     1       5.217  -2.556   0.083  1.00  0.00     0.163 C 
HETATM    7  C   UNL     1       5.229  -0.106   0.108  1.00  0.00     0.145 A 
HETATM    8  N   UNL     1       6.585   0.017   0.139  1.00  0.00    -0.336 N 
ATOM      9  HN  UNL     1       7.279  -0.730   0.161  1.00  0.00     0.168 HD
HETATM   10  C   UNL     1       6.800   1.317   0.135  1.00  0.00     0.185 A 
HETATM   11  N   UNL     1       5.625   2.023   0.102  1.00  0.00    -0.333 N 
HETATM   12  C   UNL     1       4.611   1.106   0.095  1.00  0.00     0.149 A 
HETATM   13  C   UNL     1       3.198   1.256   0.059  1.00  0.00     0.282 A 
HETATM   14  O   UNL     1       2.643   2.352   0.025  1.00  0.00    -0.265 OA
ENDROOT
BRANCH  11  15
HETATM   15  C   UNL     1       5.497   3.470   0.100  1.00  0.00     0.167 C 
BRANCH  15  16
HETATM   16  C   UNL     1       5.399   4.053  -1.319  1.00  0.00     0.169 C 
BRANCH  16  17
HETATM   17  O   UNL     1       4.296   3.517  -2.051  1.00  0.00    -0.389 OA
HETATM   18  H   UNL     1       3.481   3.669  -1.535  1.00  0.00     0.210 HD
ENDBRANCH  16  17
BRANCH  16  19
HETATM   19  C   UNL     1       5.265   5.562  -1.338  1.00  0.00    -0.025 A 
HETATM   20  C   UNL     1       4.193   6.216  -0.703  1.00  0.00     0.010 A 
HETATM   21  C   UNL     1       4.045   7.604  -0.794  1.00  0.00     0.004 A 
HETATM   22  C   UNL     1       4.967   8.357  -1.517  1.00  0.00     0.042 A 
HETATM   23  C   UNL     1       6.031   7.717  -2.138  1.00  0.00     0.117 A 
HETATM   24  F   UNL     1       6.917   8.439  -2.837  1.00  0.00    -0.206 F 
HETATM   25  C   UNL     1       6.188   6.336  -2.056  1.00  0.00     0.052 A 
ENDBRANCH  16  19
ENDBRANCH  15  16
ENDBRANCH  11  15
TORSDOF 4
