REMARK  3 active torsions:
REMARK  status: ('A' for Active; 'I' for Inactive)
REMARK       I    between atoms: N_1  and  C_2 
REMARK    1  A    between atoms: C_2  and  C_4 
REMARK    2  A    between atoms: C_4  and  N_5 
REMARK    3  A    between atoms: N_12  and  C_13 
ROOT
HETATM    1  N   UNL     1       4.751   1.049   0.285  1.00  0.00    -0.256 N 
HETATM    2  C   UNL     1       5.219  -0.248   0.417  1.00  0.00     0.274 C 
HETATM    3  O   UNL     1       4.518  -1.189   0.786  1.00  0.00    -0.266 OA
HETATM    4  C   UNL     1       6.657  -0.454   0.145  1.00  0.00     0.128 C 
HETATM    5  C   UNL     1       7.192  -1.769   0.102  1.00  0.00     0.106 C 
HETATM    6  N   UNL     1       7.695  -2.814   0.070  1.00  0.00    -0.191 NA
HETATM    7  C   UNL     1       7.441   0.620   0.030  1.00  0.00     0.124 C 
HETATM    8  N   UNL     1       6.949   1.901   0.141  1.00  0.00    -0.303 N 
HETATM    9  C   UNL     1       5.575   2.171   0.210  1.00  0.00     0.332 C 
HETATM   10  O   UNL     1       5.129   3.319   0.253  1.00  0.00    -0.246 OA
ENDROOT
BRANCH   1  11
HETATM   11  C   UNL     1       3.320   1.281   0.429  1.00  0.00     0.239 C 
BRANCH  11  12
HETATM   12  C   UNL     1       2.635   1.487  -0.920  1.00  0.00     0.233 C 
HETATM   13  N   UNL     1       1.293   1.764  -0.835  1.00  0.00    -0.369 N 
HETATM   14  H   UNL     1       0.785   1.930  -1.695  1.00  0.00     0.159 HD
HETATM   15  H   UNL     1       0.810   1.911   0.041  1.00  0.00     0.159 HD
HETATM   16  O   UNL     1       3.188   1.398  -2.011  1.00  0.00    -0.272 OA
ENDBRANCH  11  12
ENDBRANCH   1  11
BRANCH   8  17
HETATM   17  C   UNL     1       7.887   3.003   0.197  1.00  0.00     0.094 A 
HETATM   18  C   UNL     1       9.266   2.939   0.813  1.00  0.00     0.028 A 
HETATM   19  C   UNL     1       8.167   3.648   1.538  1.00  0.00     0.028 A 
ENDBRANCH   8  17
TORSDOF 3
