REMARK  3 active torsions:
REMARK  status: ('A' for Active; 'I' for Inactive)
REMARK    1  A    between atoms: N_2  and  C_4 
REMARK    2  A    between atoms: C_8  and  N_9 
REMARK       I    between atoms: N_9  and  C_10 
REMARK       I    between atoms: C_10  and  N_12 
REMARK    3  A    between atoms: N_12  and  C_13 
ROOT
HETATM    1  N   UNL     1       3.093  -4.596   0.584  1.00  0.00    -0.295 N 
HETATM    2  C   UNL     1       2.204  -4.800  -0.430  1.00  0.00     0.322 C 
HETATM    3  O   UNL     1       1.446  -3.890  -0.768  1.00  0.00    -0.247 OA
HETATM    4  N   UNL     1       2.203  -6.029  -0.999  1.00  0.00    -0.338 N 
HETATM    5  H   UNL     1       3.005  -3.682   1.005  1.00  0.00     0.172 HD
HETATM    6  H   UNL     1       2.864  -6.680  -0.580  1.00  0.00     0.164 HD
ENDROOT
BRANCH   1   7
HETATM    7  C   UNL     1       4.080  -5.462   1.082  1.00  0.00     0.110 A 
HETATM    8  C   UNL     1       4.828  -5.030   2.166  1.00  0.00     0.049 A 
HETATM    9  C   UNL     1       5.785  -5.888   2.696  1.00  0.00     0.007 A 
HETATM   10  C   UNL     1       5.972  -7.139   2.118  1.00  0.00     0.042 A 
HETATM   11  C   UNL     1       5.222  -7.500   1.003  1.00  0.00     0.083 A 
HETATM   12  N   UNL     1       4.277  -6.670   0.502  1.00  0.00    -0.333 N 
ATOM     13  HN  UNL     1       3.719  -6.952  -0.304  1.00  0.00     0.168 HD
BRANCH  11  14
HETATM   14  N   UNL     1       5.498  -8.736   0.379  1.00  0.00    -0.278 NA
HETATM   15  C   UNL     1       5.181  -8.738  -1.045  1.00  0.00     0.118 C 
HETATM   16  C   UNL     1       4.957  -9.862   1.139  1.00  0.00     0.118 C 
ENDBRANCH  11  14
ENDBRANCH   1   7
BRANCH   4  17
HETATM   17  C   UNL     1       1.354  -6.459  -2.100  1.00  0.00     0.089 C 
HETATM   18  C   UNL     1      -0.119  -6.583  -1.699  1.00  0.00     0.055 C 
HETATM   19  C   UNL     1      -0.371  -7.795  -0.800  1.00  0.00     0.274 C 
HETATM   20  N   UNL     1       0.135  -9.068  -1.335  1.00  0.00     0.084 N 
HETATM   21  C   UNL     1      -0.678  -9.583  -2.433  1.00  0.00     0.309 C 
HETATM   22  C   UNL     1       1.547  -8.952  -1.703  1.00  0.00     0.274 C 
HETATM   23  C   UNL     1       1.846  -7.794  -2.665  1.00  0.00     0.055 C 
ENDBRANCH   4  17
TORSDOF 3
