REMARK  4 active torsions:
REMARK  status: ('A' for Active; 'I' for Inactive)
REMARK    1  A    between atoms: C_2  and  N_3 
REMARK    2  A    between atoms: C_2  and  C_18 
REMARK       I    between atoms: N_3  and  C_4 
REMARK       I    between atoms: C_4  and  N_6 
REMARK    3  A    between atoms: N_6  and  C_7 
REMARK    4  A    between atoms: C_11  and  N_15 
ROOT
HETATM    1  N   UNL     1       2.945  -1.422   0.535  1.00  0.00    -0.338 N 
HETATM    2  C   UNL     1       2.642  -1.724   1.845  1.00  0.00     0.321 C 
HETATM    3  O   UNL     1       2.008  -0.958   2.556  1.00  0.00    -0.247 OA
HETATM    4  N   UNL     1       3.091  -2.970   2.226  1.00  0.00    -0.306 N 
HETATM    5  H   UNL     1       3.725  -1.891   0.101  1.00  0.00     0.164 HD
HETATM    6  H   UNL     1       3.448  -3.573   1.500  1.00  0.00     0.171 HD
ENDROOT
BRANCH   4   7
HETATM    7  C   UNL     1       2.922  -3.521   3.519  1.00  0.00     0.068 A 
HETATM    8  C   UNL     1       2.414  -2.859   4.614  1.00  0.00     0.137 A 
HETATM    9  N   UNL     1       2.264  -3.413   5.837  1.00  0.00    -0.200 N 
HETATM   10  C   UNL     1       2.634  -4.689   6.012  1.00  0.00     0.679 A 
ATOM     11  HN  UNL     1       1.878  -2.872   6.610  1.00  0.00     0.183 HD
HETATM   12  N   UNL     1       3.143  -5.419   5.004  1.00  0.00    -0.200 N 
HETATM   13  C   UNL     1       3.277  -4.823   3.793  1.00  0.00     0.137 A 
ATOM     14  HN  UNL     1       3.420  -6.390   5.146  1.00  0.00     0.183 HD
BRANCH  10  15
HETATM   15  N   UNL     1       2.535  -5.231   7.273  1.00  0.00    -0.226 N 
HETATM   16  C   UNL     1       1.865  -4.491   8.327  1.00  0.00     0.168 C 
HETATM   17  C   UNL     1       2.765  -6.644   7.487  1.00  0.00     0.168 C 
ENDBRANCH  10  15
ENDBRANCH   4   7
BRANCH   1  18
HETATM   18  C   UNL     1       2.525  -0.137  -0.017  1.00  0.00     0.086 C 
HETATM   19  C   UNL     1       2.111  -0.281  -1.477  1.00  0.00     0.032 C 
BRANCH  18  20
HETATM   20  C   UNL     1       3.698   0.836   0.101  1.00  0.00     0.008 C 
HETATM   21  C   UNL     1       4.332   1.158   1.489  1.00  0.00     0.007 C 
HETATM   22  C   UNL     1       4.455   2.622   1.020  1.00  0.00     0.001 C 
HETATM   23  C   UNL     1       3.281   2.338   0.066  1.00  0.00     0.007 C 
ENDBRANCH  18  20
ENDBRANCH   1  18
TORSDOF 4
