REMARK  4 active torsions:
REMARK  status: ('A' for Active; 'I' for Inactive)
REMARK    1  A    between atoms: N_1  and  C_2 
REMARK    2  A    between atoms: C_2  and  C_3 
REMARK    3  A    between atoms: C_3  and  C_4 
REMARK    4  A    between atoms: C_9  and  O_10 
ROOT
HETATM    1  C   UNL     1       4.533  -0.845   1.061  1.00  0.00    -0.038 A 
HETATM    2  C   UNL     1       5.294  -1.886   0.533  1.00  0.00     0.095 A 
HETATM    3  N   UNL     1       6.647  -1.908   0.518  1.00  0.00    -0.372 N 
ATOM      4  HN  UNL     1       7.167  -2.692   0.123  1.00  0.00     0.164 HD
HETATM    5  C   UNL     1       7.274  -0.836   1.054  1.00  0.00     0.124 A 
HETATM    6  C   UNL     1       6.606   0.250   1.598  1.00  0.00     0.081 A 
HETATM    7  C   UNL     1       5.219   0.247   1.601  1.00  0.00     0.046 A 
ENDROOT
BRANCH   1   8
HETATM    8  C   UNL     1       3.030  -0.880   1.016  1.00  0.00     0.069 C 
BRANCH   8   9
HETATM    9  C   UNL     1       2.490  -0.237  -0.266  1.00  0.00     0.271 C 
BRANCH   9  10
HETATM   10  N   UNL     1       1.030  -0.275  -0.297  1.00  0.00     0.078 N 
HETATM   11  H   UNL     1       0.701   0.180  -1.149  1.00  0.00     0.312 HD
HETATM   12  H   UNL     1       0.655   0.274   0.476  1.00  0.00     0.312 HD
ENDBRANCH   9  10
ENDBRANCH   8   9
ENDBRANCH   1   8
BRANCH   6  13
HETATM   13  O   UNL     1       7.249   1.327   2.129  1.00  0.00    -0.359 OA
HETATM   14  H   UNL     1       8.209   1.187   2.060  1.00  0.00     0.217 HD
ENDBRANCH   6  13
TORSDOF 4
