REMARK  4 active torsions:
REMARK  status: ('A' for Active; 'I' for Inactive)
REMARK    1  A    between atoms: C_2  and  C_3 
REMARK    2  A    between atoms: C_6  and  N_7 
REMARK       I    between atoms: N_7  and  C_8 
REMARK       I    between atoms: C_8  and  N_10 
REMARK    3  A    between atoms: N_10  and  C_11 
REMARK    4  A    between atoms: C_11  and  C_12 
ROOT
HETATM    1  N   UNL     1       2.515  -4.900  -0.583  1.00  0.00    -0.289 N 
HETATM    2  C   UNL     1       1.487  -5.242   0.256  1.00  0.00     0.322 C 
HETATM    3  O   UNL     1       0.763  -4.473   0.876  1.00  0.00    -0.247 OA
HETATM    4  N   UNL     1       1.309  -6.611   0.323  1.00  0.00    -0.342 N 
HETATM    5  H   UNL     1       2.780  -5.535  -1.316  1.00  0.00     0.172 HD
HETATM    6  H   UNL     1       2.123  -7.190   0.164  1.00  0.00     0.164 HD
ENDROOT
BRANCH   1   7
HETATM    7  C   UNL     1       2.904  -3.596  -0.700  1.00  0.00     0.152 A 
HETATM    8  S   UNL     1       3.801  -3.230  -2.104  1.00  0.00    -0.064 SA
HETATM    9  C   UNL     1       3.832  -1.580  -1.622  1.00  0.00     0.078 A 
HETATM   10  C   UNL     1       3.214  -1.436  -0.393  1.00  0.00     0.017 A 
HETATM   11  N   UNL     1       2.696  -2.607   0.127  1.00  0.00    -0.340 N 
ATOM     12  HN  UNL     1       2.220  -2.687   1.026  1.00  0.00     0.168 HD
BRANCH  10  13
HETATM   13  C   UNL     1       3.048  -0.183   0.400  1.00  0.00     0.053 C 
HETATM   14  C   UNL     1       1.716   0.498   0.132  1.00  0.00     0.011 C 
ENDBRANCH  10  13
ENDBRANCH   1   7
BRANCH   4  15
HETATM   15  C   UNL     1       0.291  -7.161   1.202  1.00  0.00     0.139 C 
BRANCH  15  16
HETATM   16  C   UNL     1       0.767  -7.484   2.625  1.00  0.00     0.065 C 
HETATM   17  C   UNL     1       1.443  -6.354   3.401  1.00  0.00     0.017 C 
HETATM   18  C   UNL     1       2.329  -6.931   4.513  1.00  0.00     0.011 C 
HETATM   19  C   UNL     1       2.400  -8.447   4.409  1.00  0.00     0.074 C 
HETATM   20  S   UNL     1       2.022  -8.796   2.681  1.00  0.00    -0.163 SA
ENDBRANCH  15  16
ENDBRANCH   4  15
TORSDOF 4
