REMARK  6 active torsions:
REMARK  status: ('A' for Active; 'I' for Inactive)
REMARK    1  A    between atoms: O_2  and  C_3 
REMARK    2  A    between atoms: C_7  and  C_9 
REMARK    3  A    between atoms: C_9  and  O_10 
REMARK    4  A    between atoms: C_9  and  C_11 
REMARK    5  A    between atoms: C_11  and  N_12 
REMARK    6  A    between atoms: C_15  and  C_20 
ROOT
HETATM    1  N   UNL     1       1.586  -6.212   0.170  1.00  0.00    -0.254 N 
HETATM    2  N   UNL     1       1.295  -7.063   1.228  1.00  0.00    -0.294 N 
ATOM      3  HN  UNL     1       1.271  -6.717   2.187  1.00  0.00     0.187 HD
HETATM    4  C   UNL     1       1.053  -8.317   0.963  1.00  0.00     0.065 C 
HETATM    5  C   UNL     1       1.153  -8.891  -0.407  1.00  0.00     0.038 C 
HETATM    6  C   UNL     1       1.374  -8.043  -1.410  1.00  0.00     0.078 C 
HETATM    7  C   UNL     1       1.543  -6.600  -1.164  1.00  0.00     0.262 C 
HETATM    8  O   UNL     1       1.660  -5.846  -2.126  1.00  0.00    -0.267 OA
ENDROOT
BRANCH   1   9
HETATM    9  C   UNL     1       1.751  -4.791   0.500  1.00  0.00     0.189 C 
BRANCH   9  10
HETATM   10  C   UNL     1       2.920  -4.544   1.476  1.00  0.00     0.171 C 
BRANCH  10  11
HETATM   11  C   UNL     1       3.153  -3.065   1.699  1.00  0.00    -0.025 A 
HETATM   12  C   UNL     1       4.327  -2.437   1.264  1.00  0.00     0.010 A 
HETATM   13  C   UNL     1       4.511  -1.069   1.479  1.00  0.00     0.003 A 
HETATM   14  C   UNL     1       3.522  -0.322   2.120  1.00  0.00     0.037 A 
HETATM   15  C   UNL     1       2.347  -0.930   2.561  1.00  0.00     0.068 A 
HETATM   16  C   UNL     1       2.173  -2.297   2.354  1.00  0.00     0.046 A 
BRANCH  15  17
HETATM   17  O   UNL     1       1.448  -0.098   3.171  1.00  0.00    -0.356 OA
HETATM   18  C   UNL     1       0.256  -0.703   3.660  1.00  0.00     0.210 C 
ENDBRANCH  15  17
ENDBRANCH  10  11
BRANCH  10  19
HETATM   19  O   UNL     1       2.638  -5.115   2.762  1.00  0.00    -0.389 OA
HETATM   20  H   UNL     1       2.016  -5.849   2.587  1.00  0.00     0.210 HD
ENDBRANCH  10  19
ENDBRANCH   9  10
ENDBRANCH   1   9
BRANCH   4  21
HETATM   21  C   UNL     1       0.673  -9.186   2.071  1.00  0.00     0.033 A 
HETATM   22  C   UNL     1       0.978  -9.043   3.413  1.00  0.00     0.022 A 
HETATM   23  C   UNL     1       0.371 -10.047   4.227  1.00  0.00     0.015 A 
HETATM   24  C   UNL     1      -0.398 -10.920   3.488  1.00  0.00    -0.021 A 
HETATM   25  C   UNL     1      -1.227 -12.066   3.959  1.00  0.00     0.056 C 
HETATM   26  S   UNL     1      -0.343 -10.548   1.824  1.00  0.00    -0.093 SA
ENDBRANCH   4  21
TORSDOF 6
