REMARK  6 active torsions:
REMARK  status: ('A' for Active; 'I' for Inactive)
REMARK    1  A    between atoms: C_4  and  N_5 
REMARK       I    between atoms: N_5  and  C_6 
REMARK       I    between atoms: C_6  and  N_8 
REMARK    2  A    between atoms: N_8  and  C_9 
REMARK    3  A    between atoms: C_9  and  C_10 
REMARK    4  A    between atoms: C_10  and  O_11 
REMARK    5  A    between atoms: C_10  and  C_12 
REMARK    6  A    between atoms: C_12  and  N_13 
ROOT
HETATM    1  N   UNL     1       5.497   1.555   0.777  1.00  0.00    -0.293 N 
HETATM    2  C   UNL     1       5.392   2.973   0.853  1.00  0.00     0.321 C 
HETATM    3  O   UNL     1       4.392   3.558   1.215  1.00  0.00    -0.247 OA
HETATM    4  N   UNL     1       6.558   3.557   0.490  1.00  0.00    -0.340 N 
HETATM    5  H   UNL     1       6.395   1.152   0.579  1.00  0.00     0.172 HD
HETATM    6  H   UNL     1       7.220   3.068  -0.099  1.00  0.00     0.164 HD
ENDROOT
BRANCH   4   7
HETATM    7  C   UNL     1       6.648   5.014   0.452  1.00  0.00     0.157 C 
BRANCH   7   8
HETATM    8  C   UNL     1       8.071   5.424   0.061  1.00  0.00     0.164 C 
BRANCH   8   9
HETATM    9  O   UNL     1       8.287   4.798  -1.219  1.00  0.00    -0.392 OA
HETATM   10  H   UNL     1       7.829   5.338  -1.887  1.00  0.00     0.210 HD
ENDBRANCH   8   9
BRANCH   8  11
HETATM   11  C   UNL     1       8.247   6.965   0.038  1.00  0.00     0.305 C 
BRANCH  11  12
HETATM   12  N   UNL     1       9.622   7.445  -0.222  1.00  0.00     0.090 N 
HETATM   13  C   UNL     1       9.721   8.917  -0.167  1.00  0.00     0.272 C 
HETATM   14  C   UNL     1       9.040   9.628  -1.343  1.00  0.00     0.030 C 
HETATM   15  C   UNL     1       9.469   9.063  -2.698  1.00  0.00     0.003 C 
HETATM   16  C   UNL     1       9.480   7.538  -2.712  1.00  0.00     0.030 C 
HETATM   17  C   UNL     1      10.213   6.986  -1.488  1.00  0.00     0.272 C 
ENDBRANCH  11  12
ENDBRANCH   8  11
ENDBRANCH   7   8
ENDBRANCH   4   7
BRANCH   1  18
HETATM   18  C   UNL     1       4.425   0.715   1.066  1.00  0.00     0.127 A 
HETATM   19  C   UNL     1       3.117   1.082   1.279  1.00  0.00     0.076 A 
HETATM   20  C   UNL     1       2.424  -0.096   1.603  1.00  0.00     0.025 A 
HETATM   21  C   UNL     1       0.998  -0.212   1.985  1.00  0.00     0.070 C 
HETATM   22  N   UNL     1       3.227  -1.164   1.550  1.00  0.00    -0.302 N 
HETATM   23  N   UNL     1       4.429  -0.657   1.205  1.00  0.00    -0.281 N 
ATOM     24  HN  UNL     1       2.986  -2.139   1.729  1.00  0.00     0.186 HD
HETATM   25  C   UNL     1       5.532  -1.575   1.067  1.00  0.00     0.179 C 
ENDBRANCH   1  18
TORSDOF 6
