REMARK  1 active torsions:
REMARK  status: ('A' for Active; 'I' for Inactive)
REMARK    1  A    between atoms: C_5  and  C_7 
ROOT
HETATM    1  C   UNL     1       0.820   1.207  -0.239  1.00  0.00     0.031 C 
HETATM    2  C   UNL     1       1.469  -0.094   0.233  1.00  0.00     0.269 C 
HETATM    3  N   UNL     1       0.729  -1.265  -0.242  1.00  0.00     0.084 N 
HETATM    4  C   UNL     1      -0.668  -1.232   0.218  1.00  0.00     0.280 C 
HETATM    5  C   UNL     1      -1.402   0.032  -0.265  1.00  0.00     0.071 C 
HETATM    6  C   UNL     1      -0.644   1.288   0.189  1.00  0.00     0.015 C 
HETATM    7  H   UNL     1       1.175  -2.110   0.117  1.00  0.00     0.315 HD
ENDROOT
BRANCH   5   8
HETATM    8  C   UNL     1      -2.820   0.040   0.240  1.00  0.00     0.056 A 
HETATM    9  N   UNL     1      -3.162   0.017   1.512  1.00  0.00    -0.363 N 
HETATM   10  C   UNL     1      -4.538   0.008   1.627  1.00  0.00     0.095 A 
ATOM     11  HN  UNL     1      -2.508   0.007   2.295  1.00  0.00     0.165 HD
HETATM   12  C   UNL     1      -5.234   0.022   0.439  1.00  0.00     0.068 A 
HETATM   13  S   UNL     1      -4.136   0.057  -0.874  1.00  0.00    -0.087 SA
ENDBRANCH   5   8
TORSDOF 1
