REMARK  4 active torsions:
REMARK  status: ('A' for Active; 'I' for Inactive)
REMARK       I    between atoms: C_2  and  N_3 
REMARK       I    between atoms: C_2  and  N_13 
REMARK    1  A    between atoms: N_3  and  C_4 
REMARK    2  A    between atoms: C_4  and  C_5 
REMARK    3  A    between atoms: C_5  and  C_6 
REMARK    4  A    between atoms: N_13  and  C_14 
ROOT
HETATM    1  O   UNL     1       1.289  -0.855  -0.692  1.00  0.00    -0.247 OA
HETATM    2  C   UNL     1       2.421  -0.472  -0.427  1.00  0.00     0.316 C 
HETATM    3  N   UNL     1       3.005   0.634  -0.994  1.00  0.00    -0.343 N 
HETATM    4  N   UNL     1       3.284  -1.114   0.434  1.00  0.00    -0.339 N 
HETATM    5  H   UNL     1       3.864   0.970  -0.589  1.00  0.00     0.164 HD
HETATM    6  H   UNL     1       4.132  -0.636   0.696  1.00  0.00     0.164 HD
ENDROOT
BRANCH   3   7
HETATM    7  C   UNL     1       2.272   1.532  -1.875  1.00  0.00     0.130 C 
BRANCH   7   8
HETATM    8  C   UNL     1       3.245   2.338  -2.729  1.00  0.00     0.076 C 
BRANCH   8   9
HETATM    9  C   UNL     1       2.572   3.231  -3.733  1.00  0.00     0.010 A 
HETATM   10  C   UNL     1       2.240   2.748  -4.997  1.00  0.00     0.025 A 
HETATM   11  C   UNL     1       1.708   3.629  -5.934  1.00  0.00     0.003 A 
HETATM   12  C   UNL     1       1.511   4.958  -5.585  1.00  0.00     0.017 A 
HETATM   13  C   UNL     1       1.845   5.351  -4.300  1.00  0.00     0.088 A 
HETATM   14  N   UNL     1       2.368   4.521  -3.371  1.00  0.00    -0.369 N 
ATOM     15  HN  UNL     1       2.600   4.852  -2.435  1.00  0.00     0.165 HD
ENDBRANCH   8   9
ENDBRANCH   7   8
ENDBRANCH   3   7
BRANCH   4  16
HETATM   16  C   UNL     1       2.959  -2.325   1.118  1.00  0.00     0.086 A 
HETATM   17  C   UNL     1       3.490  -2.582   2.500  1.00  0.00     0.027 A 
HETATM   18  C   UNL     1       4.018  -3.374   1.336  1.00  0.00     0.027 A 
ENDBRANCH   4  16
TORSDOF 4
