REMARK  8 active torsions:
REMARK  status: ('A' for Active; 'I' for Inactive)
REMARK    1  A    between atoms: N_2  and  C_13 
REMARK    2  A    between atoms: C_6  and  N_8 
REMARK    3  A    between atoms: C_13  and  C_14 
REMARK    4  A    between atoms: C_14  and  O_24 
REMARK    5  A    between atoms: C_20  and  N_21 
REMARK    6  A    between atoms: N_21  and  C_28 
REMARK    7  A    between atoms: O_26  and  C_30 
REMARK    8  A    between atoms: C_28  and  C_30 
ROOT
HETATM    1  C   UNL     1       0.290  -0.815  -0.554  1.00  0.00     0.117 A 
HETATM    2  N   UNL     1       1.333   1.016  -1.125  1.00  0.00    -0.324 N 
HETATM    3  C   UNL     1       0.137   0.560  -0.648  1.00  0.00     0.140 A 
HETATM    4  N   UNL     1       1.536  -1.192  -1.022  1.00  0.00    -0.346 N 
ATOM      5  HN  UNL     1       1.905  -2.139  -1.109  1.00  0.00     0.167 HD
HETATM    6  C   UNL     1      -0.784  -1.549  -0.005  1.00  0.00     0.114 A 
HETATM    7  C   UNL     1       2.142  -0.067  -1.331  1.00  0.00     0.185 A 
HETATM    8  N   UNL     1      -0.944   1.283  -0.317  1.00  0.00    -0.336 N 
ATOM      9  HN  UNL     1      -1.026   2.293  -0.436  1.00  0.00     0.168 HD
HETATM   10  N   UNL     1      -1.886  -0.848   0.385  1.00  0.00    -0.341 N 
ATOM     11  HN  UNL     1      -2.680  -1.324   0.812  1.00  0.00     0.167 HD
HETATM   12  C   UNL     1      -1.907   0.490   0.195  1.00  0.00     0.183 A 
ENDROOT
BRANCH   6  13
HETATM   13  N   UNL     1      -0.710  -2.940   0.151  1.00  0.00    -0.267 NA
HETATM   14  C   UNL     1      -1.474  -3.484   1.271  1.00  0.00     0.099 C 
HETATM   15  C   UNL     1      -1.089  -4.960   1.434  1.00  0.00     0.050 C 
HETATM   16  C   UNL     1      -1.388  -5.772   0.148  1.00  0.00     0.224 C 
HETATM   17  C   UNL     1      -0.594  -5.086  -0.989  1.00  0.00     0.050 C 
HETATM   18  C   UNL     1      -0.976  -3.613  -1.128  1.00  0.00     0.099 C 
BRANCH  16  19
HETATM   19  N   UNL     1      -2.843  -5.887  -0.134  1.00  0.00     0.090 N 
HETATM   20  C   UNL     1      -3.596  -6.487   0.971  1.00  0.00     0.310 C 
BRANCH  19  21
HETATM   21  C   UNL     1      -3.184  -6.557  -1.406  1.00  0.00     0.298 C 
BRANCH  21  22
HETATM   22  C   UNL     1      -2.815  -8.043  -1.541  1.00  0.00     0.194 C 
BRANCH  22  23
HETATM   23  O   UNL     1      -3.287  -8.537  -2.793  1.00  0.00    -0.399 OA
HETATM   24  H   UNL     1      -3.145  -9.499  -2.792  1.00  0.00     0.209 HD
ENDBRANCH  22  23
ENDBRANCH  21  22
ENDBRANCH  19  21
ENDBRANCH  16  19
ENDBRANCH   6  13
BRANCH   2  25
HETATM   25  C   UNL     1       1.736   2.406  -1.240  1.00  0.00     0.171 C 
BRANCH  25  26
HETATM   26  C   UNL     1       1.519   3.027  -2.623  1.00  0.00     0.097 C 
HETATM   27  C   UNL     1       2.213   2.333  -3.779  1.00  0.00     0.068 C 
HETATM   28  C   UNL     1       2.432   3.453  -4.783  1.00  0.00     0.170 C 
HETATM   29  O   UNL     1       2.475   4.687  -4.056  1.00  0.00    -0.388 OA
HETATM   30  C   UNL     1       2.161   4.417  -2.681  1.00  0.00     0.207 C 
BRANCH  26  31
HETATM   31  O   UNL     1       0.124   3.160  -2.925  1.00  0.00    -0.386 OA
HETATM   32  H   UNL     1      -0.348   2.349  -2.660  1.00  0.00     0.210 HD
ENDBRANCH  26  31
ENDBRANCH  25  26
ENDBRANCH   2  25
TORSDOF 8
