REMARK  7 active torsions:
REMARK  status: ('A' for Active; 'I' for Inactive)
REMARK    1  A    between atoms: O_1  and  C_2 
REMARK    2  A    between atoms: C_2  and  C_3 
REMARK    3  A    between atoms: C_2  and  C_13 
REMARK    4  A    between atoms: C_3  and  O_4 
REMARK    5  A    between atoms: O_4  and  C_5 
REMARK    6  A    between atoms: C_5  and  C_6 
REMARK    7  A    between atoms: C_13  and  N_14 
ROOT
HETATM    1  C   UNL     1       2.300  -0.075  -0.012  1.00  0.00     0.160 C 
ENDROOT
BRANCH   1   2
HETATM    2  O   UNL     1       0.875  -0.154   0.154  1.00  0.00    -0.392 OA
HETATM    3  H   UNL     1       0.481   0.537  -0.408  1.00  0.00     0.210 HD
ENDBRANCH   1   2
BRANCH   1   4
HETATM    4  C   UNL     1       2.779   1.260   0.582  1.00  0.00     0.201 C 
BRANCH   4   5
HETATM    5  O   UNL     1       4.188   1.403   0.452  1.00  0.00    -0.384 OA
BRANCH   5   6
HETATM    6  C   UNL     1       4.652   2.627   1.023  1.00  0.00     0.206 C 
BRANCH   6   7
HETATM    7  C   UNL     1       6.147   2.709   0.848  1.00  0.00    -0.035 A 
HETATM    8  C   UNL     1       6.731   3.785   0.164  1.00  0.00     0.011 A 
HETATM    9  C   UNL     1       8.116   3.845  -0.011  1.00  0.00     0.024 A 
HETATM   10  C   UNL     1       8.924   2.833   0.502  1.00  0.00     0.034 A 
HETATM   11 CL   UNL     1      10.628   2.896   0.266  1.00  0.00    -0.084 Cl
HETATM   12  C   UNL     1       8.362   1.767   1.200  1.00  0.00     0.024 A 
HETATM   13  C   UNL     1       6.977   1.707   1.374  1.00  0.00     0.011 A 
ENDBRANCH   6   7
ENDBRANCH   5   6
ENDBRANCH   4   5
ENDBRANCH   1   4
BRANCH   1  14
HETATM   14  C   UNL     1       2.973  -1.261   0.702  1.00  0.00     0.167 C 
BRANCH  14  15
HETATM   15  N   UNL     1       2.563  -2.577   0.185  1.00  0.00    -0.305 N 
HETATM   16  C   UNL     1       1.487  -3.224   0.767  1.00  0.00     0.125 C 
HETATM   17  C   UNL     1       1.120  -4.461   0.414  1.00  0.00     0.117 C 
HETATM   18 CL   UNL     1      -0.200  -5.270   1.152  1.00  0.00    -0.077 Cl
HETATM   19  C   UNL     1       1.909  -5.160  -0.628  1.00  0.00     0.272 C 
HETATM   20  O   UNL     1       1.737  -6.337  -0.928  1.00  0.00    -0.266 OA
HETATM   21  N   UNL     1       2.872  -4.400  -1.241  1.00  0.00    -0.274 N 
HETATM   22  C   UNL     1       3.270  -3.142  -0.867  1.00  0.00     0.329 C 
HETATM   23  H   UNL     1       3.421  -4.851  -1.956  1.00  0.00     0.173 HD
HETATM   24  O   UNL     1       4.208  -2.593  -1.442  1.00  0.00    -0.246 OA
ENDBRANCH  14  15
ENDBRANCH   1  14
TORSDOF 7
