REMARK  4 active torsions:
REMARK  status: ('A' for Active; 'I' for Inactive)
REMARK    1  A    between atoms: C_2  and  C_3 
REMARK    2  A    between atoms: C_6  and  N_7 
REMARK       I    between atoms: N_7  and  C_8 
REMARK       I    between atoms: C_8  and  N_10 
REMARK    3  A    between atoms: N_10  and  C_11 
REMARK    4  A    between atoms: C_11  and  C_13 
ROOT
HETATM    1  N   UNL     1       3.427  -2.660   4.182  1.00  0.00    -0.289 N 
HETATM    2  C   UNL     1       3.076  -3.916   3.761  1.00  0.00     0.322 C 
HETATM    3  O   UNL     1       2.476  -4.205   2.733  1.00  0.00    -0.247 OA
HETATM    4  N   UNL     1       3.529  -4.893   4.628  1.00  0.00    -0.336 N 
HETATM    5  H   UNL     1       4.115  -2.549   4.905  1.00  0.00     0.172 HD
HETATM    6  H   UNL     1       3.703  -4.660   5.595  1.00  0.00     0.164 HD
ENDROOT
BRANCH   1   7
HETATM    7  C   UNL     1       3.110  -1.553   3.438  1.00  0.00     0.152 A 
HETATM    8  S   UNL     1       3.936  -0.129   3.883  1.00  0.00    -0.064 SA
HETATM    9  C   UNL     1       3.158   0.697   2.592  1.00  0.00     0.078 A 
HETATM   10  C   UNL     1       2.290  -0.160   1.939  1.00  0.00     0.017 A 
HETATM   11  N   UNL     1       2.274  -1.448   2.438  1.00  0.00    -0.340 N 
ATOM     12  HN  UNL     1       1.694  -2.207   2.079  1.00  0.00     0.168 HD
BRANCH  10  13
HETATM   13  C   UNL     1       1.391   0.160   0.790  1.00  0.00     0.053 C 
HETATM   14  C   UNL     1       2.047  -0.101  -0.556  1.00  0.00     0.011 C 
ENDBRANCH  10  13
ENDBRANCH   1   7
BRANCH   4  15
HETATM   15  C   UNL     1       3.345  -6.313   4.320  1.00  0.00     0.111 C 
HETATM   16  C   UNL     1       4.717  -6.985   4.281  1.00  0.00     0.035 C 
BRANCH  15  17
HETATM   17  C   UNL     1       2.409  -7.008   5.326  1.00  0.00     0.143 C 
HETATM   18  C   UNL     1       0.988  -6.459   5.384  1.00  0.00     0.036 C 
HETATM   19  C   UNL     1       0.594  -6.577   6.844  1.00  0.00     0.029 C 
HETATM   20  C   UNL     1       1.805  -7.174   7.528  1.00  0.00     0.168 C 
HETATM   21  O   UNL     1       2.914  -6.892   6.670  1.00  0.00    -0.384 OA
ENDBRANCH  15  17
ENDBRANCH   4  15
TORSDOF 4
