REMARK  4 active torsions:
REMARK  status: ('A' for Active; 'I' for Inactive)
REMARK    1  A    between atoms: C_2  and  C_3 
REMARK    2  A    between atoms: N_8  and  C_9 
REMARK    3  A    between atoms: C_9  and  C_10 
REMARK       I    between atoms: C_10  and  N_12 
REMARK    4  A    between atoms: N_12  and  C_13 
REMARK       I    between atoms: N_16  and  C_19 
ROOT
HETATM    1  C   UNL     1       1.103   3.117  -3.024  1.00  0.00     0.237 C 
HETATM    2  O   UNL     1       1.387   3.293  -4.205  1.00  0.00    -0.272 OA
HETATM    3  N   UNL     1       0.304   2.084  -2.583  1.00  0.00    -0.355 N 
HETATM    4  H   UNL     1      -0.002   2.128  -1.613  1.00  0.00     0.162 HD
ENDROOT
BRANCH   1   5
HETATM    5  C   UNL     1       1.563   4.085  -1.953  1.00  0.00     0.250 C 
BRANCH   5   6
HETATM    6  N   UNL     1       2.125   3.415  -0.810  1.00  0.00    -0.256 N 
HETATM    7  C   UNL     1       3.417   3.057  -0.536  1.00  0.00     0.109 A 
HETATM    8  N   UNL     1       3.424   2.480   0.649  1.00  0.00    -0.274 N 
HETATM    9  N   UNL     1       2.126   2.481   1.093  1.00  0.00    -0.007 NA
ATOM     10  HN  UNL     1       4.236   2.106   1.140  1.00  0.00     0.185 HD
HETATM   11  N   UNL     1       1.322   3.044   0.204  1.00  0.00    -0.005 NA
BRANCH   7  12
HETATM   12  C   UNL     1       4.587   3.269  -1.425  1.00  0.00     0.074 C 
HETATM   13  C   UNL     1       4.770   2.107  -2.386  1.00  0.00     0.013 C 
ENDBRANCH   7  12
ENDBRANCH   5   6
ENDBRANCH   1   5
BRANCH   3  14
HETATM   14  C   UNL     1      -0.428   1.184  -3.475  1.00  0.00     0.087 C 
HETATM   15  C   UNL     1      -1.358   0.281  -2.664  1.00  0.00     0.045 C 
HETATM   16  C   UNL     1      -0.569  -0.731  -1.840  1.00  0.00     0.127 C 
HETATM   17  N   UNL     1       0.341  -1.528  -2.659  1.00  0.00    -0.352 N 
HETATM   18  C   UNL     1       1.179  -0.796  -3.610  1.00  0.00     0.127 C 
HETATM   19  C   UNL     1       0.807  -2.784  -2.273  1.00  0.00     0.215 C 
HETATM   20  C   UNL     1       0.457   0.309  -4.369  1.00  0.00     0.045 C 
HETATM   21  O   UNL     1       1.612  -3.424  -2.952  1.00  0.00    -0.274 OA
HETATM   22  C   UNL     1       0.299  -3.373  -0.978  1.00  0.00     0.117 C 
ENDBRANCH   3  14
TORSDOF 4
