REMARK  4 active torsions:
REMARK  status: ('A' for Active; 'I' for Inactive)
REMARK    1  A    between atoms: N_5  and  C_6 
REMARK    2  A    between atoms: C_6  and  C_7 
REMARK    3  A    between atoms: C_7  and  O_8 
REMARK    4  A    between atoms: C_7  and  C_9 
ROOT
HETATM    1  C   UNL     1       0.850  -0.199  -0.123  1.00  0.00     0.161 C 
HETATM    2  N   UNL     1       2.282  -0.107  -0.128  1.00  0.00    -0.302 N 
HETATM    3  C   UNL     1       3.033   1.085  -0.151  1.00  0.00     0.329 A 
HETATM    4  O   UNL     1       2.615   2.232  -0.199  1.00  0.00    -0.246 OA
HETATM    5  N   UNL     1       4.390   0.699  -0.092  1.00  0.00    -0.295 N 
HETATM    6  C   UNL     1       4.466  -0.700  -0.077  1.00  0.00     0.066 A 
HETATM    7  C   UNL     1       5.562  -1.536  -0.045  1.00  0.00     0.032 A 
HETATM    8  C   UNL     1       5.315  -2.914  -0.026  1.00  0.00     0.002 A 
HETATM    9  C   UNL     1       3.998  -3.417  -0.033  1.00  0.00     0.002 A 
HETATM   10  C   UNL     1       2.898  -2.553  -0.064  1.00  0.00     0.032 A 
HETATM   11  C   UNL     1       3.161  -1.199  -0.091  1.00  0.00     0.065 A 
ENDROOT
BRANCH   5  12
HETATM   12  C   UNL     1       5.503   1.617  -0.048  1.00  0.00     0.170 C 
BRANCH  12  13
HETATM   13  C   UNL     1       6.081   1.945  -1.441  1.00  0.00     0.169 C 
BRANCH  13  14
HETATM   14  O   UNL     1       5.146   2.624  -2.280  1.00  0.00    -0.389 OA
HETATM   15  H   UNL     1       4.504   3.088  -1.713  1.00  0.00     0.210 HD
ENDBRANCH  13  14
BRANCH  13  16
HETATM   16  C   UNL     1       7.336   2.799  -1.417  1.00  0.00    -0.028 A 
HETATM   17  C   UNL     1       8.286   2.648  -2.446  1.00  0.00     0.013 A 
HETATM   18  C   UNL     1       9.443   3.429  -2.474  1.00  0.00     0.043 A 
HETATM   19  C   UNL     1       9.656   4.372  -1.481  1.00  0.00     0.116 A 
HETATM   20  F   UNL     1      10.766   5.123  -1.506  1.00  0.00    -0.206 F 
HETATM   21  C   UNL     1       8.725   4.555  -0.464  1.00  0.00     0.043 A 
HETATM   22  C   UNL     1       7.563   3.780  -0.436  1.00  0.00     0.013 A 
ENDBRANCH  13  16
ENDBRANCH  12  13
ENDBRANCH   5  12
TORSDOF 4
