REMARK  9 active torsions:
REMARK  status: ('A' for Active; 'I' for Inactive)
REMARK    1  A    between atoms: O_1  and  C_2 
REMARK    2  A    between atoms: C_2  and  C_3 
REMARK    3  A    between atoms: C_2  and  C_16 
REMARK    4  A    between atoms: C_3  and  O_4 
REMARK    5  A    between atoms: O_4  and  C_5 
REMARK    6  A    between atoms: C_8  and  C_9 
REMARK    7  A    between atoms: C_9  and  C_10 
REMARK    8  A    between atoms: C_10  and  N_11 
REMARK    9  A    between atoms: C_16  and  N_17 
ROOT
HETATM    1  C   UNL     1       2.436   0.128   0.095  1.00  0.00     0.160 C 
ENDROOT
BRANCH   1   2
HETATM    2  O   UNL     1       1.005   0.089   0.059  1.00  0.00    -0.392 OA
HETATM    3  H   UNL     1       0.713  -0.190   0.948  1.00  0.00     0.210 HD
ENDBRANCH   1   2
BRANCH   1   4
HETATM    4  C   UNL     1       2.952  -1.264   0.452  1.00  0.00     0.209 C 
BRANCH   4   5
HETATM    5  O   UNL     1       2.513  -1.694   1.747  1.00  0.00    -0.349 OA
BRANCH   5   6
HETATM    6  C   UNL     1       2.892  -2.985   2.051  1.00  0.00     0.068 A 
HETATM    7  C   UNL     1       3.655  -3.801   1.210  1.00  0.00     0.037 A 
HETATM    8  C   UNL     1       3.998  -5.095   1.580  1.00  0.00     0.011 A 
HETATM    9  C   UNL     1       3.585  -5.605   2.811  1.00  0.00    -0.046 A 
HETATM   10  C   UNL     1       2.828  -4.790   3.669  1.00  0.00     0.011 A 
HETATM   11  C   UNL     1       2.480  -3.488   3.285  1.00  0.00     0.037 A 
BRANCH   9  12
HETATM   12  C   UNL     1       4.039  -6.986   3.197  1.00  0.00     0.142 C 
BRANCH  12  13
HETATM   13  C   UNL     1       5.383  -6.935   3.905  1.00  0.00    -0.073 C 
BRANCH  13  14
HETATM   14  N   UNL     1       6.498  -6.892   4.492  1.00  0.00    -0.369 N 
ATOM     15  HN2 UNL     1       5.602  -6.898   4.005  1.00  0.00     0.165 HD
ATOM     16  HN1 UNL     1       7.400  -6.858   4.967  1.00  0.00     0.165 HD
ENDBRANCH  13  14
ENDBRANCH  12  13
ENDBRANCH   9  12
ENDBRANCH   5   6
ENDBRANCH   4   5
ENDBRANCH   1   4
BRANCH   1  17
HETATM   17  C   UNL     1       2.981   0.479  -1.298  1.00  0.00     0.164 C 
BRANCH  17  18
HETATM   18  N   UNL     1       2.625   1.815  -1.718  1.00  0.00    -0.339 N 
HETATM   19  C   UNL     1       1.504   2.134  -2.431  1.00  0.00     0.184 A 
HETATM   20  N   UNL     1       1.383   3.433  -2.585  1.00  0.00    -0.350 N 
HETATM   21  C   UNL     1       2.473   3.970  -1.944  1.00  0.00     0.060 A 
ATOM     22  HN  UNL     1       0.641   3.934  -3.074  1.00  0.00     0.166 HD
HETATM   23  C   UNL     1       2.818   5.316  -1.754  1.00  0.00     0.032 A 
HETATM   24  C   UNL     1       3.303   2.972  -1.434  1.00  0.00     0.062 A 
HETATM   25  C   UNL     1       3.998   5.616  -1.064  1.00  0.00     0.002 A 
HETATM   26  C   UNL     1       4.834   4.599  -0.597  1.00  0.00     0.002 A 
HETATM   27  C   UNL     1       4.506   3.250  -0.774  1.00  0.00     0.032 A 
ENDBRANCH  17  18
ENDBRANCH   1  17
TORSDOF 9
