REMARK  8 active torsions:
REMARK  status: ('A' for Active; 'I' for Inactive)
REMARK    1  A    between atoms: O_1  and  C_2 
REMARK    2  A    between atoms: C_2  and  C_3 
REMARK    3  A    between atoms: N_12  and  C_13 
REMARK    4  A    between atoms: C_13  and  C_14 
REMARK    5  A    between atoms: C_14  and  O_15 
REMARK    6  A    between atoms: C_14  and  C_16 
REMARK    7  A    between atoms: C_16  and  O_17 
REMARK    8  A    between atoms: O_17  and  C_18 
ROOT
HETATM    1  C   UNL     1       4.426   1.236   1.932  1.00  0.00     0.108 A 
HETATM    2  N   UNL     1       3.907   2.450   1.898  1.00  0.00    -0.342 N 
ATOM      3  HN  UNL     1       4.379   3.311   1.623  1.00  0.00     0.167 HD
HETATM    4  C   UNL     1       2.608   2.319   2.306  1.00  0.00     0.060 A 
HETATM    5  C   UNL     1       1.609   3.299   2.398  1.00  0.00     0.032 A 
HETATM    6  C   UNL     1       0.336   2.926   2.839  1.00  0.00     0.002 A 
HETATM    7  C   UNL     1       0.068   1.603   3.192  1.00  0.00     0.002 A 
HETATM    8  C   UNL     1       1.055   0.612   3.109  1.00  0.00     0.032 A 
HETATM    9  C   UNL     1       2.323   1.002   2.655  1.00  0.00     0.062 A 
HETATM   10  N   UNL     1       3.508   0.329   2.432  1.00  0.00    -0.330 N 
ENDROOT
BRANCH  10  11
HETATM   11  C   UNL     1       3.720  -1.097   2.623  1.00  0.00     0.164 C 
BRANCH  11  12
HETATM   12  C   UNL     1       4.321  -1.478   3.985  1.00  0.00     0.160 C 
BRANCH  12  13
HETATM   13  O   UNL     1       5.590  -0.838   4.172  1.00  0.00    -0.392 OA
HETATM   14  H   UNL     1       5.426   0.042   4.558  1.00  0.00     0.210 HD
ENDBRANCH  12  13
BRANCH  12  15
HETATM   15  C   UNL     1       3.380  -1.194   5.164  1.00  0.00     0.209 C 
BRANCH  15  16
HETATM   16  O   UNL     1       3.991  -1.695   6.359  1.00  0.00    -0.345 OA
BRANCH  16  17
HETATM   17  C   UNL     1       3.299  -1.528   7.527  1.00  0.00     0.107 A 
HETATM   18  C   UNL     1       3.957  -2.017   8.661  1.00  0.00     0.040 A 
HETATM   19  C   UNL     1       3.363  -1.930   9.924  1.00  0.00     0.003 A 
HETATM   20  C   UNL     1       2.102  -1.358  10.062  1.00  0.00     0.003 A 
HETATM   21  C   UNL     1       1.439  -0.862   8.943  1.00  0.00     0.045 A 
HETATM   22  C   UNL     1       2.037  -0.948   7.686  1.00  0.00     0.149 A 
HETATM   23  F   UNL     1       1.352  -0.460   6.642  1.00  0.00    -0.203 F 
ENDBRANCH  16  17
ENDBRANCH  15  16
ENDBRANCH  12  15
ENDBRANCH  11  12
ENDBRANCH  10  11
BRANCH   1  24
HETATM   24  C   UNL     1       5.812   0.907   1.493  1.00  0.00     0.240 C 
BRANCH  24  25
HETATM   25  O   UNL     1       5.726   0.003   0.399  1.00  0.00    -0.393 OA
HETATM   26  H   UNL     1       6.584   0.047  -0.054  1.00  0.00     0.209 HD
ENDBRANCH  24  25
ENDBRANCH   1  24
TORSDOF 8
