REMARK  5 active torsions:
REMARK  status: ('A' for Active; 'I' for Inactive)
REMARK    1  A    between atoms: C_2  and  O_3 
REMARK    2  A    between atoms: O_3  and  C_4 
REMARK    3  A    between atoms: C_6  and  N_7 
REMARK       I    between atoms: N_7  and  C_8 
REMARK    4  A    between atoms: C_8  and  C_10 
REMARK    5  A    between atoms: C_10  and  N_11 
ROOT
HETATM    1  C   UNL     1       4.641  -0.702   1.504  1.00  0.00     0.133 C 
HETATM    2  C   UNL     1       5.649  -0.216   2.597  1.00  0.00     0.059 C 
HETATM    3  C   UNL     1       6.265  -1.624   2.496  1.00  0.00     0.098 C 
HETATM    4  C   UNL     1       4.824  -2.132   2.142  1.00  0.00     0.006 C 
HETATM    5  C   UNL     1       4.854  -3.393   1.283  1.00  0.00     0.014 C 
HETATM    6  C   UNL     1       4.505  -4.537   2.249  1.00  0.00     0.001 C 
HETATM    7  C   UNL     1       4.060  -3.908   3.565  1.00  0.00     0.001 C 
HETATM    8  C   UNL     1       3.808  -2.449   3.246  1.00  0.00     0.014 C 
ENDROOT
BRANCH   3   9
HETATM    9  N   UNL     1       6.872  -2.201   3.707  1.00  0.00    -0.354 N 
HETATM   10  C   UNL     1       7.944  -3.081   3.606  1.00  0.00     0.237 C 
HETATM   11  O   UNL     1       8.478  -3.359   2.536  1.00  0.00    -0.272 OA
HETATM   12  H   UNL     1       6.428  -2.076   4.609  1.00  0.00     0.162 HD
BRANCH  10  13
HETATM   13  C   UNL     1       8.386  -3.709   4.907  1.00  0.00     0.250 C 
BRANCH  13  14
HETATM   14  N   UNL     1       9.755  -3.360   5.237  1.00  0.00    -0.295 N 
HETATM   15  C   UNL     1      10.890  -3.746   4.580  1.00  0.00     0.112 A 
HETATM   16  C   UNL     1      11.943  -3.243   5.305  1.00  0.00     0.037 A 
HETATM   17  C   UNL     1      11.343  -2.585   6.393  1.00  0.00     0.108 A 
HETATM   18  N   UNL     1      10.009  -2.659   6.362  1.00  0.00    -0.310 N 
ATOM     19  HN  UNL     1       9.341  -2.276   7.031  1.00  0.00     0.186 HD
ENDBRANCH  13  14
ENDBRANCH  10  13
ENDBRANCH   3   9
BRANCH   1  20
HETATM   20  O   UNL     1       3.301  -0.169   1.543  1.00  0.00    -0.385 OA
BRANCH  20  21
HETATM   21  C   UNL     1       3.168   1.241   1.403  1.00  0.00     0.163 C 
HETATM   22  C   UNL     1       1.691   1.582   1.383  1.00  0.00     0.033 C 
ENDBRANCH  20  21
ENDBRANCH   1  20
TORSDOF 5
