REMARK  5 active torsions:
REMARK  status: ('A' for Active; 'I' for Inactive)
REMARK    1  A    between atoms: C_2  and  C_3 
REMARK    2  A    between atoms: C_2  and  N_5 
REMARK    3  A    between atoms: C_2  and  C_16 
REMARK    4  A    between atoms: C_3  and  O_4 
REMARK       I    between atoms: N_5  and  C_6 
REMARK       I    between atoms: C_6  and  N_8 
REMARK    5  A    between atoms: N_8  and  C_9 
ROOT
HETATM    1  N   UNL     1       2.836   0.241   1.538  1.00  0.00    -0.332 N 
HETATM    2  C   UNL     1       4.139   0.273   1.975  1.00  0.00     0.321 C 
HETATM    3  O   UNL     1       5.110   0.037   1.265  1.00  0.00    -0.247 OA
HETATM    4  N   UNL     1       4.203   0.645   3.305  1.00  0.00    -0.309 N 
HETATM    5  H   UNL     1       2.181  -0.075   2.239  1.00  0.00     0.165 HD
HETATM    6  H   UNL     1       3.526   1.363   3.529  1.00  0.00     0.170 HD
ENDROOT
BRANCH   1   7
HETATM    7  C   UNL     1       2.450   0.046   0.113  1.00  0.00     0.055 C 
HETATM    8  C   UNL     1       0.913   0.154   0.075  1.00  0.00     0.041 C 
BRANCH   7   9
HETATM    9  C   UNL     1       3.018   1.242  -0.734  1.00  0.00     0.195 C 
BRANCH   9  10
HETATM   10  O   UNL     1       2.562   2.515  -0.258  1.00  0.00    -0.398 OA
HETATM   11  H   UNL     1       1.657   2.646  -0.588  1.00  0.00     0.209 HD
ENDBRANCH   9  10
ENDBRANCH   7   9
BRANCH   7  12
HETATM   12  C   UNL     1       3.021  -1.328  -0.436  1.00  0.00     0.015 C 
HETATM   13  C   UNL     1       2.747  -1.668  -1.916  1.00  0.00     0.007 C 
HETATM   14  C   UNL     1       1.407  -2.338  -2.192  1.00  0.00     0.000 C 
HETATM   15  C   UNL     1       1.150  -3.533  -1.284  1.00  0.00     0.000 C 
HETATM   16  C   UNL     1       1.377  -3.224   0.189  1.00  0.00     0.000 C 
HETATM   17  C   UNL     1       2.727  -2.565   0.441  1.00  0.00     0.007 C 
ENDBRANCH   7  12
ENDBRANCH   1   7
BRANCH   4  18
HETATM   18  C   UNL     1       5.437   0.696   3.985  1.00  0.00     0.038 A 
HETATM   19  C   UNL     1       5.738   1.813   4.755  1.00  0.00     0.046 A 
HETATM   20  C   UNL     1       6.986   1.869   5.350  1.00  0.00     0.090 A 
HETATM   21  N   UNL     1       7.905   0.882   5.275  1.00  0.00    -0.375 N 
HETATM   22  C   UNL     1       7.567  -0.206   4.550  1.00  0.00     0.090 A 
ATOM     23  HN  UNL     1       8.809   0.955   5.742  1.00  0.00     0.164 HD
HETATM   24  C   UNL     1       6.360  -0.344   3.889  1.00  0.00     0.046 A 
ENDBRANCH   4  18
TORSDOF 5
