REMARK  6 active torsions:
REMARK  status: ('A' for Active; 'I' for Inactive)
REMARK    1  A    between atoms: C_2  and  N_4 
REMARK    2  A    between atoms: N_4  and  S_6 
REMARK    3  A    between atoms: S_6  and  N_9 
REMARK    4  A    between atoms: N_9  and  C_10 
REMARK    5  A    between atoms: C_10  and  C_11 
REMARK    6  A    between atoms: C_14  and  N_18 
ROOT
HETATM    1  C   UNL     1       7.221  -4.063   2.252  1.00  0.00    -0.029 A 
HETATM    2  C   UNL     1       8.570  -4.255   2.552  1.00  0.00     0.013 A 
HETATM    3  C   UNL     1       9.002  -5.464   3.090  1.00  0.00     0.049 A 
HETATM    4  C   UNL     1       8.093  -6.496   3.317  1.00  0.00     0.103 A 
HETATM    5  N   UNL     1       6.781  -6.313   3.059  1.00  0.00    -0.352 N 
ATOM      6  HN  UNL     1       6.108  -7.059   3.234  1.00  0.00     0.166 HD
HETATM    7  C   UNL     1       6.373  -5.115   2.561  1.00  0.00     0.098 A 
ENDROOT
BRANCH   1   8
HETATM    8  C   UNL     1       6.786  -2.773   1.607  1.00  0.00     0.145 C 
BRANCH   8   9
HETATM    9  N   UNL     1       5.356  -2.697   1.237  1.00  0.00    -0.202 NA
HETATM   10  H   UNL     1       5.130  -3.383   0.517  1.00  0.00     0.141 HD
BRANCH   9  11
HETATM   11  S   UNL     1       4.946  -1.190   0.615  1.00  0.00     0.281 S 
HETATM   12  O   UNL     1       5.579  -1.136  -0.682  1.00  0.00    -0.194 OA
HETATM   13  O   UNL     1       5.178  -0.182   1.616  1.00  0.00    -0.194 OA
BRANCH  11  14
HETATM   14  N   UNL     1       3.265  -1.382   0.401  1.00  0.00    -0.198 NA
HETATM   15  C   UNL     1       2.776  -0.418  -0.636  1.00  0.00     0.131 C 
BRANCH  14  16
HETATM   16  C   UNL     1       2.405  -1.336   1.651  1.00  0.00     0.066 C 
HETATM   17  C   UNL     1       0.943  -1.669   1.310  1.00  0.00     0.027 C 
HETATM   18  C   UNL     1       2.852  -2.332   2.721  1.00  0.00     0.027 C 
ENDBRANCH  14  16
ENDBRANCH  11  14
ENDBRANCH   9  11
ENDBRANCH   8   9
ENDBRANCH   1   8
BRANCH   4  19
HETATM   19  N   UNL     1       8.542  -7.735   3.727  1.00  0.00    -0.363 N 
HETATM   20  C   UNL     1       7.762  -8.934   3.407  1.00  0.00     0.150 C 
HETATM   21  C   UNL     1       7.211  -9.597   4.673  1.00  0.00     0.187 C 
HETATM   22  O   UNL     1       8.257  -9.848   5.628  1.00  0.00    -0.388 OA
HETATM   23  C   UNL     1       8.861  -8.607   6.023  1.00  0.00     0.187 C 
HETATM   24  C   UNL     1       9.498  -7.872   4.830  1.00  0.00     0.150 C 
ENDBRANCH   4  19
TORSDOF 6
