REMARK  4 active torsions:
REMARK  status: ('A' for Active; 'I' for Inactive)
REMARK    1  A    between atoms: C_8  and  N_9 
REMARK       I    between atoms: N_9  and  C_10 
REMARK       I    between atoms: C_10  and  N_12 
REMARK    2  A    between atoms: N_12  and  C_13 
REMARK    3  A    between atoms: C_13  and  C_14 
REMARK    4  A    between atoms: C_14  and  N_19 
ROOT
HETATM    1  N   UNL     1       2.586  -2.378   1.369  1.00  0.00    -0.294 N 
HETATM    2  C   UNL     1       1.303  -2.504   0.952  1.00  0.00     0.321 C 
HETATM    3  O   UNL     1       0.711  -1.499   0.557  1.00  0.00    -0.247 OA
HETATM    4  N   UNL     1       0.712  -3.742   1.045  1.00  0.00    -0.340 N 
HETATM    5  H   UNL     1       2.890  -1.420   1.389  1.00  0.00     0.172 HD
HETATM    6  H   UNL     1       1.387  -4.506   1.023  1.00  0.00     0.164 HD
ENDROOT
BRANCH   4   7
HETATM    7  C   UNL     1      -0.584  -3.868   0.445  1.00  0.00     0.167 C 
BRANCH   7   8
HETATM    8  C   UNL     1      -1.470  -5.135   0.571  1.00  0.00     0.184 C 
HETATM    9  C   UNL     1      -1.480  -5.733   2.013  1.00  0.00     0.054 C 
HETATM   10  C   UNL     1      -1.749  -7.243   2.005  1.00  0.00     0.076 C 
HETATM   11  S   UNL     1      -1.503  -7.833   0.322  1.00  0.00    -0.166 SA
HETATM   12  C   UNL     1      -0.789  -6.274  -0.247  1.00  0.00     0.117 C 
BRANCH   8  13
HETATM   13  N   UNL     1      -2.864  -4.831   0.053  1.00  0.00     0.104 N 
HETATM   14  C   UNL     1      -2.947  -4.315  -1.342  1.00  0.00     0.299 C 
HETATM   15  C   UNL     1      -2.794  -2.785  -1.519  1.00  0.00     0.198 C 
HETATM   16  O   UNL     1      -3.738  -2.070  -0.719  1.00  0.00    -0.388 OA
HETATM   17  C   UNL     1      -3.627  -2.427   0.660  1.00  0.00     0.198 C 
HETATM   18  C   UNL     1      -3.739  -3.954   0.877  1.00  0.00     0.299 C 
ENDBRANCH   8  13
ENDBRANCH   7   8
ENDBRANCH   4   7
BRANCH   1  19
HETATM   19  C   UNL     1       3.450  -3.380   1.785  1.00  0.00     0.114 A 
HETATM   20  C   UNL     1       4.638  -3.028   2.446  1.00  0.00    -0.018 A 
HETATM   21  C   UNL     1       5.030  -1.609   2.738  1.00  0.00     0.052 C 
HETATM   22  C   UNL     1       5.448  -4.075   2.898  1.00  0.00     0.012 A 
HETATM   23  C   UNL     1       5.085  -5.397   2.656  1.00  0.00     0.018 A 
HETATM   24  C   UNL     1       3.918  -5.641   1.962  1.00  0.00     0.089 A 
HETATM   25  N   UNL     1       3.103  -4.664   1.530  1.00  0.00    -0.352 N 
ATOM     26  HN  UNL     1       2.245  -4.884   1.023  1.00  0.00     0.166 HD
ENDBRANCH   1  19
TORSDOF 4
