REMARK  9 active torsions:
REMARK  status: ('A' for Active; 'I' for Inactive)
REMARK    1  A    between atoms: N_5  and  C_6 
REMARK    2  A    between atoms: C_6  and  C_7 
REMARK    3  A    between atoms: C_7  and  O_8 
REMARK    4  A    between atoms: C_7  and  C_9 
REMARK    5  A    between atoms: C_9  and  O_10 
REMARK    6  A    between atoms: O_10  and  C_11 
REMARK    7  A    between atoms: C_11  and  C_12 
REMARK    8  A    between atoms: C_20  and  C_21 
REMARK    9  A    between atoms: C_21  and  N_22 
ROOT
HETATM    1  C   UNL     1       6.436  -3.378  -4.520  1.00  0.00     0.070 C 
HETATM    2  C   UNL     1       6.772  -2.727  -3.198  1.00  0.00     0.029 A 
HETATM    3  N   UNL     1       5.862  -2.766  -2.278  1.00  0.00    -0.300 N 
ATOM      4  HN  UNL     1       4.950  -3.180  -2.469  1.00  0.00     0.187 HD
HETATM    5  N   UNL     1       6.146  -2.240  -1.040  1.00  0.00    -0.254 N 
HETATM    6  C   UNL     1       7.334  -1.584  -0.728  1.00  0.00     0.282 A 
HETATM    7  O   UNL     1       7.568  -1.055   0.354  1.00  0.00    -0.265 OA
HETATM    8  C   UNL     1       8.330  -1.553  -1.814  1.00  0.00     0.103 A 
HETATM    9  C   UNL     1       8.098  -2.092  -3.026  1.00  0.00    -0.013 A 
HETATM   10  C   UNL     1       9.040  -2.080  -4.197  1.00  0.00     0.052 C 
ENDROOT
BRANCH   5  11
HETATM   11  C   UNL     1       5.086  -2.325  -0.032  1.00  0.00     0.186 C 
BRANCH  11  12
HETATM   12  C   UNL     1       4.253  -3.619  -0.113  1.00  0.00     0.162 C 
BRANCH  12  13
HETATM   13  O   UNL     1       3.550  -3.714  -1.356  1.00  0.00    -0.392 OA
HETATM   14  H   UNL     1       4.205  -3.432  -2.031  1.00  0.00     0.210 HD
ENDBRANCH  12  13
BRANCH  12  15
HETATM   15  C   UNL     1       5.113  -4.874   0.105  1.00  0.00     0.201 C 
BRANCH  15  16
HETATM   16  O   UNL     1       5.871  -4.828   1.312  1.00  0.00    -0.384 OA
BRANCH  16  17
HETATM   17  C   UNL     1       5.057  -4.864   2.482  1.00  0.00     0.206 C 
BRANCH  17  18
HETATM   18  C   UNL     1       5.939  -4.783   3.695  1.00  0.00    -0.035 A 
HETATM   19  C   UNL     1       6.775  -3.673   3.892  1.00  0.00     0.009 A 
HETATM   20  C   UNL     1       7.562  -3.579   5.039  1.00  0.00     0.001 A 
HETATM   21  C   UNL     1       7.521  -4.591   5.995  1.00  0.00     0.000 A 
HETATM   22  C   UNL     1       6.694  -5.698   5.808  1.00  0.00     0.001 A 
HETATM   23  C   UNL     1       5.904  -5.793   4.662  1.00  0.00     0.009 A 
ENDBRANCH  17  18
ENDBRANCH  16  17
ENDBRANCH  15  16
ENDBRANCH  12  15
ENDBRANCH  11  12
ENDBRANCH   5  11
BRANCH   8  24
HETATM   24  C   UNL     1       9.655  -0.841  -1.596  1.00  0.00    -0.031 C 
BRANCH  24  25
HETATM   25  N   UNL     1      10.754  -0.250  -1.415  1.00  0.00    -0.365 N 
ATOM     26  HN2 UNL     1       9.857  -0.714  -1.555  1.00  0.00     0.165 HD
ATOM     27  HN1 UNL     1      11.643   0.228  -1.269  1.00  0.00     0.165 HD
ENDBRANCH  24  25
ENDBRANCH   8  24
TORSDOF 9
