REMARK  4 active torsions:
REMARK  status: ('A' for Active; 'I' for Inactive)
REMARK    1  A    between atoms: C_3  and  C_13 
REMARK    2  A    between atoms: C_9  and  C_18 
REMARK    3  A    between atoms: C_10  and  N_15 
REMARK    4  A    between atoms: C_13  and  N_15 
ROOT
HETATM    1  N   UNL     1       3.545  -1.206  -0.480  1.00  0.00    -0.274 NA
HETATM    2  H   UNL     1       3.204  -1.922   0.155  1.00  0.00     0.129 HD
ENDROOT
BRANCH   1   3
HETATM    3  C   UNL     1       4.952  -1.194  -0.368  1.00  0.00     0.082 A 
HETATM    4  N   UNL     1       5.608  -0.066  -0.056  1.00  0.00    -0.336 N 
HETATM    5  C   UNL     1       6.951  -0.133   0.058  1.00  0.00     0.085 A 
ATOM      6  HN  UNL     1       5.109   0.812   0.090  1.00  0.00     0.168 HD
HETATM    7  N   UNL     1       7.676  -1.250  -0.129  1.00  0.00    -0.355 N 
HETATM    8  C   UNL     1       6.989  -2.353  -0.459  1.00  0.00     0.092 A 
ATOM      9  HN  UNL     1       8.691  -1.258  -0.026  1.00  0.00     0.166 HD
HETATM   10  C   UNL     1       5.622  -2.381  -0.589  1.00  0.00     0.059 A 
BRANCH   5  11
HETATM   11  C   UNL     1       7.698   1.105   0.503  1.00  0.00     0.045 C 
HETATM   12  C   UNL     1       7.426   2.291  -0.420  1.00  0.00     0.017 C 
HETATM   13  C   UNL     1       7.349   1.441   1.952  1.00  0.00     0.017 C 
ENDBRANCH   5  11
ENDBRANCH   1   3
BRANCH   1  14
HETATM   14  C   UNL     1       2.910   0.090  -0.214  1.00  0.00     0.139 C 
BRANCH  14  15
HETATM   15  C   UNL     1       1.412  -0.011  -0.349  1.00  0.00     0.039 A 
HETATM   16  C   UNL     1       0.672   1.248  -0.091  1.00  0.00     0.258 A 
HETATM   17  N   UNL     1      -0.688   1.186  -0.203  1.00  0.00    -0.275 N 
HETATM   18  O   UNL     1       1.247   2.290   0.210  1.00  0.00    -0.267 OA
HETATM   19  C   UNL     1      -1.424   0.084  -0.554  1.00  0.00     0.328 A 
HETATM   20  H   UNL     1      -1.205   2.034  -0.036  1.00  0.00     0.173 HD
HETATM   21  N   UNL     1      -0.687  -1.067  -0.791  1.00  0.00    -0.313 N 
HETATM   22  O   UNL     1      -2.646   0.161  -0.643  1.00  0.00    -0.246 OA
HETATM   23  C   UNL     1      -1.373  -2.289  -1.188  1.00  0.00     0.160 C 
HETATM   24  C   UNL     1       0.688  -1.089  -0.681  1.00  0.00     0.109 A 
ENDBRANCH  14  15
ENDBRANCH   1  14
TORSDOF 4
