REMARK  5 active torsions:
REMARK  status: ('A' for Active; 'I' for Inactive)
REMARK    1  A    between atoms: C_5  and  N_9 
REMARK    2  A    between atoms: N_9  and  C_10 
REMARK    3  A    between atoms: C_10  and  C_11 
REMARK    4  A    between atoms: C_11  and  N_12 
REMARK    5  A    between atoms: C_18  and  C_19 
ROOT
HETATM    1  C   UNL     1       5.103   0.339  -3.858  1.00  0.00     0.290 C 
ENDROOT
BRANCH   1   2
HETATM    2  N   UNL     1       4.542  -0.609  -2.891  1.00  0.00     0.089 N 
HETATM    3  H   UNL     1       4.855  -1.556  -3.114  1.00  0.00     0.316 HD
BRANCH   2   4
HETATM    4  C   UNL     1       3.067  -0.603  -2.850  1.00  0.00     0.220 C 
HETATM    5  C   UNL     1       2.474   0.755  -2.438  1.00  0.00     0.036 C 
HETATM    6  C   UNL     1       2.856   1.133  -1.006  1.00  0.00     0.007 C 
HETATM    7  C   UNL     1       2.403   0.073   0.013  1.00  0.00    -0.015 C 
HETATM    8  C   UNL     1       0.880   0.125   0.194  1.00  0.00     0.010 C 
HETATM    9  C   UNL     1       2.941  -1.325  -0.388  1.00  0.00    -0.013 C 
HETATM   10  C   UNL     1       2.598  -1.681  -1.849  1.00  0.00     0.040 C 
HETATM   11  C   UNL     1       2.484  -2.435   0.561  1.00  0.00     0.010 C 
ENDBRANCH   2   4
ENDBRANCH   1   2
BRANCH   1  12
HETATM   12  C   UNL     1       6.633   0.301  -3.838  1.00  0.00     0.161 C 
BRANCH  12  13
HETATM   13  N   UNL     1       7.199   1.193  -4.823  1.00  0.00    -0.329 N 
HETATM   14  C   UNL     1       7.485   0.861  -6.113  1.00  0.00     0.201 A 
HETATM   15  N   UNL     1       8.021   1.891  -6.723  1.00  0.00    -0.295 N 
HETATM   16  N   UNL     1       8.079   2.923  -5.816  1.00  0.00    -0.288 N 
ATOM     17  HN  UNL     1       8.337   1.921  -7.692  1.00  0.00     0.187 HD
HETATM   18  C   UNL     1       7.564   2.504  -4.680  1.00  0.00     0.103 A 
ATOM     19  HN  UNL     1       8.457   3.854  -5.993  1.00  0.00     0.188 HD
BRANCH  18  20
HETATM   20  C   UNL     1       7.402   3.383  -3.446  1.00  0.00     0.055 A 
HETATM   21  C   UNL     1       7.199   4.871  -3.668  1.00  0.00     0.013 A 
HETATM   22  C   UNL     1       8.498   4.381  -3.130  1.00  0.00     0.013 A 
ENDBRANCH  18  20
ENDBRANCH  12  13
ENDBRANCH   1  12
TORSDOF 5
