REMARK  6 active torsions:
REMARK  status: ('A' for Active; 'I' for Inactive)
REMARK    1  A    between atoms: S_2  and  C_5 
REMARK    2  A    between atoms: C_5  and  C_6 
REMARK    3  A    between atoms: C_6  and  N_7 
REMARK    4  A    between atoms: N_7  and  C_8 
REMARK    5  A    between atoms: C_8  and  C_9 
REMARK    6  A    between atoms: C_13  and  N_17 
ROOT
HETATM    1  C   UNL     1       7.257  -3.607   3.018  1.00  0.00     0.002 A 
HETATM    2  C   UNL     1       6.927  -4.924   2.805  1.00  0.00     0.116 A 
HETATM    3  N   UNL     1       7.264  -5.931   3.635  1.00  0.00    -0.201 N 
ATOM      4  HN  UNL     1       6.987  -6.893   3.437  1.00  0.00     0.183 HD
HETATM    5  C   UNL     1       7.976  -5.626   4.730  1.00  0.00     0.680 A 
HETATM    6  N   UNL     1       8.372  -4.372   5.000  1.00  0.00    -0.201 N 
ATOM      7  HN  UNL     1       8.931  -4.165   5.828  1.00  0.00     0.183 HD
HETATM    8  C   UNL     1       8.010  -3.394   4.146  1.00  0.00     0.116 A 
ENDROOT
BRANCH   1   9
HETATM    9  C   UNL     1       6.868  -2.509   2.084  1.00  0.00     0.310 C 
BRANCH   9  10
HETATM   10  N   UNL     1       5.415  -2.381   1.976  1.00  0.00     0.088 N 
HETATM   11  H   UNL     1       4.992  -3.258   1.678  1.00  0.00     0.316 HD
BRANCH  10  12
HETATM   12  C   UNL     1       4.991  -1.291   1.086  1.00  0.00     0.284 C 
BRANCH  12  13
HETATM   13  C   UNL     1       5.418  -1.492  -0.363  1.00  0.00     0.169 C 
BRANCH  13  14
HETATM   14  S   UNL     1       4.850  -0.162  -1.393  1.00  0.00     0.142 S 
HETATM   15  C   UNL     1       5.534  -0.608  -2.974  1.00  0.00     0.161 C 
HETATM   16  O   UNL     1       5.500   1.056  -0.958  1.00  0.00    -0.228 OA
HETATM   17  O   UNL     1       3.405  -0.254  -1.494  1.00  0.00    -0.228 OA
ENDBRANCH  13  14
ENDBRANCH  12  13
ENDBRANCH  10  12
ENDBRANCH   9  10
ENDBRANCH   1   9
BRANCH   5  18
HETATM   18  N   UNL     1       8.353  -6.640   5.579  1.00  0.00    -0.214 N 
HETATM   19  C   UNL     1       7.754  -7.969   5.450  1.00  0.00     0.167 C 
HETATM   20  C   UNL     1       6.794  -8.247   6.617  1.00  0.00     0.188 C 
HETATM   21  O   UNL     1       7.429  -8.033   7.889  1.00  0.00    -0.388 OA
HETATM   22  C   UNL     1       7.871  -6.669   7.996  1.00  0.00     0.188 C 
HETATM   23  C   UNL     1       8.889  -6.318   6.902  1.00  0.00     0.167 C 
ENDBRANCH   5  18
TORSDOF 6
