REMARK  6 active torsions:
REMARK  status: ('A' for Active; 'I' for Inactive)
REMARK    1  A    between atoms: N_6  and  C_7 
REMARK    2  A    between atoms: C_7  and  C_8 
REMARK    3  A    between atoms: C_8  and  N_9 
REMARK       I    between atoms: N_9  and  C_10 
REMARK    4  A    between atoms: C_10  and  C_12 
REMARK    5  A    between atoms: C_12  and  N_13 
REMARK    6  A    between atoms: C_15  and  C_20 
ROOT
HETATM    1  N   UNL     1       2.947  -4.927  -3.762  1.00  0.00    -0.358 N 
HETATM    2  C   UNL     1       2.127  -5.976  -3.387  1.00  0.00     0.235 C 
HETATM    3  O   UNL     1       1.075  -5.831  -2.771  1.00  0.00    -0.272 OA
HETATM    4  H   UNL     1       3.562  -5.096  -4.551  1.00  0.00     0.162 HD
ENDROOT
BRANCH   2   5
HETATM    5  C   UNL     1       2.663  -7.355  -3.796  1.00  0.00     0.234 C 
BRANCH   5   6
HETATM    6  N   UNL     1       1.768  -8.067  -4.703  1.00  0.00    -0.315 N 
HETATM    7  C   UNL     1       1.185  -9.260  -4.308  1.00  0.00     0.110 A 
HETATM    8  C   UNL     1       0.467 -10.016  -5.160  1.00  0.00     0.063 A 
HETATM    9  C   UNL     1       0.232  -9.515  -6.506  1.00  0.00     0.023 A 
HETATM   10  C   UNL     1       0.806  -8.379  -6.924  1.00  0.00     0.075 A 
HETATM   11  C   UNL     1       1.693  -7.605  -6.015  1.00  0.00     0.247 A 
HETATM   12  O   UNL     1       2.307  -6.630  -6.439  1.00  0.00    -0.268 OA
BRANCH   8  13
HETATM   13  C   UNL     1      -0.051 -11.373  -4.774  1.00  0.00     0.418 C 
HETATM   14  F   UNL     1      -0.709 -12.000  -5.784  1.00  0.00    -0.166 F 
HETATM   15  F   UNL     1       0.966 -12.198  -4.407  1.00  0.00    -0.166 F 
HETATM   16  F   UNL     1      -0.905 -11.315  -3.723  1.00  0.00    -0.166 F 
ENDBRANCH   8  13
ENDBRANCH   5   6
ENDBRANCH   2   5
BRANCH   1  17
HETATM   17  C   UNL     1       2.599  -3.540  -3.491  1.00  0.00     0.152 C 
BRANCH  17  18
HETATM   18  C   UNL     1       3.108  -3.054  -2.116  1.00  0.00     0.292 C 
BRANCH  18  19
HETATM   19  N   UNL     1       2.739  -1.660  -1.786  1.00  0.00     0.090 N 
HETATM   20  C   UNL     1       3.314  -0.687  -2.726  1.00  0.00     0.272 C 
HETATM   21  C   UNL     1       2.891   0.747  -2.395  1.00  0.00     0.031 C 
HETATM   22  C   UNL     1       3.219   1.112  -0.953  1.00  0.00     0.007 C 
HETATM   23  C   UNL     1       2.681   0.064   0.028  1.00  0.00     0.010 C 
HETATM   24  C   UNL     1       1.156   0.145   0.161  1.00  0.00     0.011 C 
HETATM   25  C   UNL     1       3.138  -1.343  -0.402  1.00  0.00     0.276 C 
ENDBRANCH  18  19
ENDBRANCH  17  18
ENDBRANCH   1  17
TORSDOF 6
