REMARK  6 active torsions:
REMARK  status: ('A' for Active; 'I' for Inactive)
REMARK    1  A    between atoms: C_2  and  O_3 
REMARK    2  A    between atoms: C_2  and  C_8 
REMARK    3  A    between atoms: O_3  and  C_4 
REMARK    4  A    between atoms: C_4  and  C_5 
REMARK       I    between atoms: C_8  and  N_10 
REMARK    5  A    between atoms: N_10  and  C_11 
REMARK    6  A    between atoms: C_15  and  C_18 
ROOT
HETATM    1  C   UNL     1       4.675  -2.934  -1.520  1.00  0.00     0.108 A 
HETATM    2  C   UNL     1       6.015  -3.051  -1.854  1.00  0.00     0.049 A 
HETATM    3  C   UNL     1       6.495  -4.295  -2.260  1.00  0.00     0.006 A 
HETATM    4  C   UNL     1       5.618  -5.372  -2.354  1.00  0.00     0.034 A 
HETATM    5  C   UNL     1       4.275  -5.172  -2.045  1.00  0.00     0.118 A 
HETATM    6  N   UNL     1       3.820  -3.961  -1.636  1.00  0.00    -0.339 N 
ATOM      7  HN  UNL     1       2.832  -3.832  -1.418  1.00  0.00     0.167 HD
ENDROOT
BRANCH   1   8
HETATM    8  N   UNL     1       4.197  -1.696  -1.068  1.00  0.00    -0.311 N 
HETATM    9  C   UNL     1       2.988  -1.548  -0.402  1.00  0.00     0.251 C 
HETATM   10  O   UNL     1       2.245  -2.460  -0.050  1.00  0.00    -0.270 OA
HETATM   11  H   UNL     1       4.820  -0.905  -1.139  1.00  0.00     0.170 HD
BRANCH   9  12
HETATM   12  C   UNL     1       2.664  -0.075  -0.064  1.00  0.00     0.209 C 
HETATM   13  C   UNL     1       1.143   0.084  -0.058  1.00  0.00     0.050 C 
BRANCH  12  14
HETATM   14  O   UNL     1       3.145   0.361   1.209  1.00  0.00    -0.376 OA
BRANCH  14  15
HETATM   15  C   UNL     1       4.563   0.402   1.300  1.00  0.00     0.173 C 
BRANCH  15  16
HETATM   16  C   UNL     1       4.963   0.897   2.652  1.00  0.00     0.009 A 
HETATM   17  C   UNL     1       6.428   0.941   3.013  1.00  0.00     0.007 A 
HETATM   18  C   UNL     1       5.522  -0.049   3.688  1.00  0.00     0.007 A 
ENDBRANCH  15  16
ENDBRANCH  14  15
ENDBRANCH  12  14
ENDBRANCH   9  12
ENDBRANCH   1   8
BRANCH   5  19
HETATM   19  C   UNL     1       3.268  -6.305  -2.165  1.00  0.00     0.432 C 
HETATM   20  F   UNL     1       3.827  -7.470  -2.617  1.00  0.00    -0.165 F 
HETATM   21  F   UNL     1       2.671  -6.629  -0.983  1.00  0.00    -0.165 F 
HETATM   22  F   UNL     1       2.258  -6.032  -3.042  1.00  0.00    -0.165 F 
ENDBRANCH   5  19
TORSDOF 6
