REMARK  5 active torsions:
REMARK  status: ('A' for Active; 'I' for Inactive)
REMARK    1  A    between atoms: C_3  and  N_4 
REMARK    2  A    between atoms: C_7  and  N_10 
REMARK    3  A    between atoms: N_10  and  C_11 
REMARK    4  A    between atoms: C_11  and  C_12 
REMARK    5  A    between atoms: C_12  and  C_13 
ROOT
HETATM    1  C   UNL     1       1.646   1.316  -1.267  1.00  0.00     0.013 C 
HETATM    2  C   UNL     1       2.622   0.715  -0.647  1.00  0.00    -0.087 C 
HETATM    3  C   UNL     1       3.761   0.014   0.076  1.00  0.00     0.364 C 
ENDROOT
BRANCH   3   4
HETATM    4  N   UNL     1       4.374  -1.059  -0.706  1.00  0.00     0.099 N 
HETATM    5  C   UNL     1       3.435  -2.139  -1.048  1.00  0.00     0.275 C 
HETATM    6  C   UNL     1       2.992  -2.980   0.149  1.00  0.00     0.066 C 
HETATM    7  C   UNL     1       4.181  -3.520   0.959  1.00  0.00     0.223 C 
HETATM    8  C   UNL     1       5.147  -2.370   1.282  1.00  0.00     0.066 C 
HETATM    9  C   UNL     1       5.537  -1.592   0.022  1.00  0.00     0.275 C 
BRANCH   7  10
HETATM   10  N   UNL     1       4.814  -4.634   0.230  1.00  0.00     0.088 N 
HETATM   11  H   UNL     1       5.147  -4.309  -0.679  1.00  0.00     0.316 HD
BRANCH  10  12
HETATM   12  C   UNL     1       5.932  -5.269   0.938  1.00  0.00     0.274 C 
BRANCH  12  13
HETATM   13  C   UNL     1       5.518  -5.898   2.273  1.00  0.00     0.068 C 
BRANCH  13  14
HETATM   14  C   UNL     1       6.693  -6.457   3.027  1.00  0.00    -0.054 A 
HETATM   15  C   UNL     1       7.392  -5.662   3.943  1.00  0.00     0.024 A 
HETATM   16  C   UNL     1       8.457  -6.225   4.627  1.00  0.00     0.088 A 
HETATM   17  N   UNL     1       8.870  -7.498   4.455  1.00  0.00    -0.375 N 
HETATM   18  C   UNL     1       8.188  -8.242   3.559  1.00  0.00     0.088 A 
ATOM     19  HN  UNL     1       9.659  -7.879   4.977  1.00  0.00     0.164 HD
HETATM   20  C   UNL     1       7.110  -7.773   2.827  1.00  0.00     0.024 A 
ENDBRANCH  13  14
ENDBRANCH  12  13
ENDBRANCH  10  12
ENDBRANCH   7  10
ENDBRANCH   3   4
TORSDOF 5
