REMARK  3 active torsions:
REMARK  status: ('A' for Active; 'I' for Inactive)
REMARK    1  A    between atoms: C_8  and  C_9 
REMARK    2  A    between atoms: C_9  and  C_10 
REMARK       I    between atoms: C_10  and  N_12 
REMARK    3  A    between atoms: N_12  and  C_13 
ROOT
HETATM    1  C   UNL     1       1.999   3.118   0.698  1.00  0.00     0.222 C 
HETATM    2  O   UNL     1       1.419   2.528   1.603  1.00  0.00    -0.273 OA
HETATM    3  N   UNL     1       1.445   4.178   0.006  1.00  0.00    -0.356 N 
HETATM    4  H   UNL     1       2.093   4.804  -0.459  1.00  0.00     0.162 HD
ENDROOT
BRANCH   1   5
HETATM    5  C   UNL     1       3.368   2.695   0.203  1.00  0.00     0.146 C 
BRANCH   5   6
HETATM    6  C   UNL     1       4.517   3.328   0.907  1.00  0.00     0.006 A 
HETATM    7  C   UNL     1       4.663   3.740   2.266  1.00  0.00     0.038 A 
HETATM    8  C   UNL     1       3.694   3.674   3.388  1.00  0.00     0.071 C 
HETATM    9  N   UNL     1       5.884   4.241   2.493  1.00  0.00    -0.265 N 
HETATM   10  O   UNL     1       6.568   4.136   1.303  1.00  0.00    -0.242 OA
ATOM     11  HN  UNL     1       6.236   4.623   3.371  1.00  0.00     0.194 HD
HETATM   12  C   UNL     1       5.760   3.587   0.363  1.00  0.00     0.081 A 
HETATM   13  C   UNL     1       6.365   3.371  -0.966  1.00  0.00     0.079 C 
ENDBRANCH   5   6
ENDBRANCH   1   5
BRANCH   3  14
HETATM   14  C   UNL     1       0.082   4.660   0.257  1.00  0.00     0.088 C 
HETATM   15  C   UNL     1      -0.977   3.583  -0.024  1.00  0.00     0.051 C 
HETATM   16  C   UNL     1      -1.038   3.277  -1.512  1.00  0.00     0.169 C 
HETATM   17  O   UNL     1      -1.361   4.459  -2.245  1.00  0.00    -0.391 OA
HETATM   18  C   UNL     1      -0.386   5.486  -2.083  1.00  0.00     0.169 C 
HETATM   19  C   UNL     1      -0.230   5.881  -0.617  1.00  0.00     0.051 C 
ENDBRANCH   3  14
TORSDOF 3
