REMARK  7 active torsions:
REMARK  status: ('A' for Active; 'I' for Inactive)
REMARK    1  A    between atoms: C_2  and  C_3 
REMARK       I    between atoms: C_2  and  N_14 
REMARK    2  A    between atoms: C_3  and  C_4 
REMARK    3  A    between atoms: C_4  and  N_5 
REMARK    4  A    between atoms: N_5  and  C_6 
REMARK    5  A    between atoms: C_6  and  C_7 
REMARK    6  A    between atoms: C_7  and  N_8 
REMARK    7  A    between atoms: N_14  and  C_15 
ROOT
HETATM    1  C   UNL     1       2.040   0.621  -2.296  1.00  0.00     0.278 C 
ENDROOT
BRANCH   1   2
HETATM    2  C   UNL     1       3.026   0.317  -1.173  1.00  0.00     0.132 C 
BRANCH   2   3
HETATM    3  C   UNL     1       2.286   0.020   0.117  1.00  0.00     0.219 C 
HETATM    4  O   UNL     1       1.066  -0.019   0.210  1.00  0.00    -0.274 OA
HETATM    5  N   UNL     1       3.137  -0.190   1.180  1.00  0.00    -0.356 N 
HETATM    6  H   UNL     1       4.123  -0.313   0.990  1.00  0.00     0.162 HD
BRANCH   5   7
HETATM    7  C   UNL     1       2.642  -0.520   2.499  1.00  0.00     0.084 C 
HETATM    8  C   UNL     1       3.613  -0.089   3.599  1.00  0.00     0.025 C 
HETATM    9  C   UNL     1       3.493  -1.136   4.706  1.00  0.00     0.002 C 
HETATM   10  C   UNL     1       2.458  -2.147   4.226  1.00  0.00     0.002 C 
HETATM   11  C   UNL     1       2.479  -2.022   2.712  1.00  0.00     0.025 C 
ENDBRANCH   5   7
ENDBRANCH   2   3
ENDBRANCH   1   2
BRANCH   1  12
HETATM   12  N   UNL     1       2.746   0.962  -3.541  1.00  0.00     0.085 N 
HETATM   13  H   UNL     1       3.328   0.168  -3.815  1.00  0.00     0.315 HD
BRANCH  12  14
HETATM   14  C   UNL     1       1.795   1.231  -4.639  1.00  0.00     0.291 C 
BRANCH  14  15
HETATM   15  C   UNL     1       0.916   2.466  -4.418  1.00  0.00     0.178 C 
BRANCH  15  16
HETATM   16  N   UNL     1       0.021   2.692  -5.537  1.00  0.00    -0.302 N 
HETATM   17  C   UNL     1       0.231   3.520  -6.601  1.00  0.00     0.111 A 
HETATM   18  C   UNL     1      -0.910   3.450  -7.365  1.00  0.00     0.037 A 
HETATM   19  C   UNL     1      -1.747   2.551  -6.679  1.00  0.00     0.108 A 
HETATM   20  N   UNL     1      -1.177   2.077  -5.569  1.00  0.00    -0.310 N 
ATOM     21  HN  UNL     1      -1.559   1.407  -4.902  1.00  0.00     0.186 HD
ENDBRANCH  15  16
ENDBRANCH  14  15
ENDBRANCH  12  14
ENDBRANCH   1  12
TORSDOF 7
