REMARK  7 active torsions:
REMARK  status: ('A' for Active; 'I' for Inactive)
REMARK    1  A    between atoms: O_2  and  C_3 
REMARK    2  A    between atoms: C_3  and  C_4 
REMARK    3  A    between atoms: C_4  and  N_5 
REMARK    4  A    between atoms: C_6  and  S_7 
REMARK    5  A    between atoms: S_7  and  C_8 
REMARK    6  A    between atoms: C_8  and  C_9 
REMARK    7  A    between atoms: C_9  and  C_11 
ROOT
HETATM    1  N   UNL     1       4.723   1.330  -2.279  1.00  0.00    -0.324 N 
HETATM    2  C   UNL     1       4.598   2.690  -2.449  1.00  0.00     0.148 A 
HETATM    3  N   UNL     1       5.033   3.080  -3.626  1.00  0.00    -0.335 N 
ATOM      4  HN  UNL     1       5.049   4.030  -3.996  1.00  0.00     0.168 HD
HETATM    5  C   UNL     1       5.461   1.936  -4.251  1.00  0.00     0.061 A 
HETATM    6  C   UNL     1       6.014   1.770  -5.532  1.00  0.00     0.032 A 
HETATM    7  C   UNL     1       6.373   0.484  -5.956  1.00  0.00     0.002 A 
HETATM    8  C   UNL     1       6.182  -0.619  -5.125  1.00  0.00     0.002 A 
HETATM    9  C   UNL     1       5.621  -0.475  -3.852  1.00  0.00     0.032 A 
HETATM   10  C   UNL     1       5.278   0.821  -3.438  1.00  0.00     0.063 A 
ENDROOT
BRANCH   2  11
HETATM   11  S   UNL     1       3.945   3.758  -1.248  1.00  0.00    -0.086 SA
BRANCH  11  12
HETATM   12  C   UNL     1       3.432   5.174  -2.276  1.00  0.00     0.167 C 
BRANCH  12  13
HETATM   13  C   UNL     1       2.796   6.292  -1.448  1.00  0.00     0.185 C 
HETATM   14  O   UNL     1       2.755   6.288  -0.220  1.00  0.00    -0.290 OA
BRANCH  13  15
HETATM   15  C   UNL     1       2.226   7.412  -2.192  1.00  0.00     0.079 A 
HETATM   16  C   UNL     1       2.154   7.673  -3.550  1.00  0.00     0.034 A 
HETATM   17  C   UNL     1       1.480   8.909  -3.726  1.00  0.00     0.019 A 
HETATM   18  C   UNL     1       1.160   9.379  -2.474  1.00  0.00     0.088 A 
HETATM   19  N   UNL     1       1.616   8.476  -1.555  1.00  0.00    -0.363 N 
HETATM   20  H   UNL     1       1.529   8.554  -0.548  1.00  0.00     0.165 HD
ENDBRANCH  13  15
ENDBRANCH  12  13
ENDBRANCH  11  12
ENDBRANCH   2  11
BRANCH   1  21
HETATM   21  C   UNL     1       4.261   0.518  -1.170  1.00  0.00     0.157 C 
BRANCH  21  22
HETATM   22  C   UNL     1       5.373  -0.209  -0.417  1.00  0.00     0.187 C 
BRANCH  22  23
HETATM   23  O   UNL     1       4.775  -1.034   0.587  1.00  0.00    -0.394 OA
HETATM   24  C   UNL     1       5.741  -1.834   1.258  1.00  0.00     0.201 C 
ENDBRANCH  22  23
ENDBRANCH  21  22
ENDBRANCH   1  21
TORSDOF 7
