REMARK  5 active torsions:
REMARK  status: ('A' for Active; 'I' for Inactive)
REMARK    1  A    between atoms: C_2  and  N_3 
REMARK    2  A    between atoms: N_6  and  C_9 
REMARK    3  A    between atoms: C_9  and  C_11 
REMARK    4  A    between atoms: C_11  and  N_12 
REMARK       I    between atoms: N_12  and  C_13 
REMARK       I    between atoms: C_13  and  N_15 
REMARK    5  A    between atoms: N_15  and  C_16 
ROOT
HETATM    1  N   UNL     1       6.689  -0.672  -3.009  1.00  0.00    -0.341 N 
HETATM    2  C   UNL     1       7.545   0.075  -3.802  1.00  0.00     0.322 C 
HETATM    3  O   UNL     1       7.995  -0.364  -4.849  1.00  0.00    -0.247 OA
HETATM    4  N   UNL     1       7.790   1.303  -3.237  1.00  0.00    -0.289 N 
HETATM    5  H   UNL     1       6.121  -0.118  -2.400  1.00  0.00     0.164 HD
HETATM    6  H   UNL     1       7.529   1.482  -2.283  1.00  0.00     0.172 HD
ENDROOT
BRANCH   1   7
HETATM    7  C   UNL     1       6.129  -1.901  -3.550  1.00  0.00     0.159 C 
BRANCH   7   8
HETATM    8  C   UNL     1       5.055  -2.624  -2.669  1.00  0.00     0.236 C 
HETATM    9  C   UNL     1       4.970  -4.067  -3.208  1.00  0.00     0.044 C 
BRANCH   8  10
HETATM   10  N   UNL     1       3.709  -1.969  -2.680  1.00  0.00     0.097 N 
HETATM   11  C   UNL     1       3.725  -0.565  -2.232  1.00  0.00     0.303 C 
HETATM   12  C   UNL     1       4.131  -0.433  -0.739  1.00  0.00     0.302 C 
HETATM   13  N   UNL     1       3.144  -1.044   0.174  1.00  0.00     0.091 N 
HETATM   14  C   UNL     1       2.848  -2.424  -0.292  1.00  0.00     0.302 C 
HETATM   15  C   UNL     1       2.690  -2.637  -1.826  1.00  0.00     0.303 C 
BRANCH  13  16
HETATM   16  C   UNL     1       1.986  -0.145   0.285  1.00  0.00     0.268 C 
HETATM   17  C   UNL     1       0.867  -0.575   1.220  1.00  0.00     0.037 C 
ENDBRANCH  13  16
ENDBRANCH   8  10
ENDBRANCH   7   8
ENDBRANCH   1   7
BRANCH   4  18
HETATM   18  C   UNL     1       8.630   2.202  -3.824  1.00  0.00     0.152 A 
HETATM   19  N   UNL     1       9.144   2.204  -5.029  1.00  0.00    -0.346 N 
HETATM   20  C   UNL     1      10.026   3.248  -5.151  1.00  0.00     0.097 A 
ATOM     21  HN  UNL     1       8.922   1.532  -5.764  1.00  0.00     0.167 HD
HETATM   22  C   UNL     1      10.167   4.039  -4.033  1.00  0.00     0.070 A 
HETATM   23  S   UNL     1       9.096   3.494  -2.805  1.00  0.00    -0.064 SA
ENDBRANCH   4  18
TORSDOF 5
