REMARK  7 active torsions:
REMARK  status: ('A' for Active; 'I' for Inactive)
REMARK    1  A    between atoms: O_2  and  C_3 
REMARK    2  A    between atoms: C_3  and  C_4 
REMARK    3  A    between atoms: C_4  and  O_5 
REMARK    4  A    between atoms: O_5  and  C_6 
REMARK    5  A    between atoms: C_12  and  C_13 
REMARK       I    between atoms: C_13  and  N_15 
REMARK    6  A    between atoms: N_15  and  C_16 
REMARK    7  A    between atoms: C_16  and  C_18 
ROOT
HETATM    1  C   UNL     1       6.817   0.153  -1.110  1.00  0.00     0.256 C 
HETATM    2  O   UNL     1       7.428  -0.705  -0.475  1.00  0.00    -0.267 OA
HETATM    3  N   UNL     1       5.642  -0.119  -1.778  1.00  0.00    -0.349 N 
HETATM    4  H   UNL     1       5.141   0.655  -2.203  1.00  0.00     0.163 HD
ENDROOT
BRANCH   1   5
HETATM    5  C   UNL     1       7.369   1.536  -1.185  1.00  0.00     0.083 A 
HETATM    6  C   UNL     1       6.773   2.622  -1.827  1.00  0.00     0.158 A 
HETATM    7  N   UNL     1       7.351   3.851  -1.902  1.00  0.00    -0.346 N 
HETATM    8  C   UNL     1       8.554   4.020  -1.317  1.00  0.00     0.090 A 
ATOM      9  HN  UNL     1       6.889   4.621  -2.386  1.00  0.00     0.167 HD
HETATM   10  C   UNL     1       9.226   3.013  -0.656  1.00  0.00     0.018 A 
HETATM   11  C   UNL     1       8.624   1.760  -0.592  1.00  0.00     0.023 A 
BRANCH   6  12
HETATM   12  O   UNL     1       5.519   2.477  -2.394  1.00  0.00    -0.333 OA
BRANCH  12  13
HETATM   13  C   UNL     1       5.192   3.545  -3.299  1.00  0.00     0.203 C 
BRANCH  13  14
HETATM   14  C   UNL     1       3.734   3.424  -3.737  1.00  0.00     0.193 C 
BRANCH  14  15
HETATM   15  O   UNL     1       2.883   3.769  -2.639  1.00  0.00    -0.394 OA
HETATM   16  C   UNL     1       1.513   3.798  -3.016  1.00  0.00     0.201 C 
ENDBRANCH  14  15
ENDBRANCH  13  14
ENDBRANCH  12  13
ENDBRANCH   6  12
ENDBRANCH   1   5
BRANCH   3  17
HETATM   17  C   UNL     1       5.025  -1.433  -1.790  1.00  0.00     0.109 C 
HETATM   18  C   UNL     1       3.710  -1.423  -1.015  1.00  0.00     0.037 C 
BRANCH  17  19
HETATM   19  C   UNL     1       4.850  -1.879  -3.230  1.00  0.00    -0.058 C 
HETATM   20  C   UNL     1       5.447  -2.989  -3.694  1.00  0.00     0.008 C 
HETATM   21  C   UNL     1       5.338  -3.514  -5.085  1.00  0.00     0.299 C 
HETATM   22  N   UNL     1       4.385  -2.876  -5.980  1.00  0.00     0.087 N 
HETATM   23  C   UNL     1       4.891  -2.798  -7.347  1.00  0.00     0.310 C 
HETATM   24  C   UNL     1       3.752  -1.629  -5.561  1.00  0.00     0.276 C 
HETATM   25  C   UNL     1       3.986  -1.065  -4.148  1.00  0.00     0.066 C 
ENDBRANCH  17  19
ENDBRANCH   3  17
TORSDOF 7
