REMARK  5 active torsions:
REMARK  status: ('A' for Active; 'I' for Inactive)
REMARK    1  A    between atoms: C_5  and  C_6 
REMARK    2  A    between atoms: C_6  and  C_7 
REMARK    3  A    between atoms: C_7  and  N_8 
REMARK       I    between atoms: N_8  and  C_9 
REMARK       I    between atoms: C_9  and  N_11 
REMARK    4  A    between atoms: C_15  and  C_16 
REMARK    5  A    between atoms: C_16  and  C_17 
REMARK       I    between atoms: C_17  and  N_19 
ROOT
HETATM    1  N   UNL     1       8.841  -1.482  -0.870  1.00  0.00    -0.343 N 
HETATM    2  C   UNL     1       9.552  -2.656  -0.907  1.00  0.00     0.318 C 
HETATM    3  O   UNL     1       9.056  -3.715  -0.531  1.00  0.00    -0.247 OA
HETATM    4  N   UNL     1      10.849  -2.564  -1.388  1.00  0.00    -0.334 N 
HETATM    5  C   UNL     1      11.608  -1.332  -1.617  1.00  0.00     0.127 C 
HETATM    6  C   UNL     1      12.355  -1.403  -2.948  1.00  0.00     0.020 C 
HETATM    7  C   UNL     1      13.245  -2.644  -3.016  1.00  0.00     0.008 C 
HETATM    8  C   UNL     1      12.431  -3.917  -2.730  1.00  0.00     0.012 C 
HETATM    9  C   UNL     1      11.664  -3.782  -1.406  1.00  0.00     0.132 C 
HETATM   10  H   UNL     1       9.090  -0.797  -1.563  1.00  0.00     0.164 HD
ENDROOT
BRANCH   1  11
HETATM   11  C   UNL     1       7.446  -1.474  -0.443  1.00  0.00     0.129 C 
BRANCH  11  12
HETATM   12  C   UNL     1       7.308  -1.447   1.082  1.00  0.00     0.060 C 
BRANCH  12  13
HETATM   13  C   UNL     1       5.881  -1.503   1.558  1.00  0.00    -0.041 A 
HETATM   14  C   UNL     1       5.246  -2.722   1.798  1.00  0.00     0.010 A 
HETATM   15  C   UNL     1       3.949  -2.742   2.314  1.00  0.00     0.025 A 
HETATM   16  C   UNL     1       3.307  -1.535   2.564  1.00  0.00     0.005 A 
HETATM   17  C   UNL     1       1.945  -1.504   3.192  1.00  0.00     0.068 C 
HETATM   18  N   UNL     1       3.886  -0.339   2.304  1.00  0.00    -0.369 N 
HETATM   19  C   UNL     1       5.148  -0.349   1.811  1.00  0.00     0.095 A 
ATOM     20  HN  UNL     1       3.391   0.537   2.473  1.00  0.00     0.165 HD
ENDBRANCH  12  13
ENDBRANCH  11  12
ENDBRANCH   1  11
BRANCH   8  21
HETATM   21  C   UNL     1      13.289  -5.189  -2.796  1.00  0.00     0.108 C 
BRANCH  21  22
HETATM   22  C   UNL     1      14.405  -5.237  -1.777  1.00  0.00     0.215 C 
HETATM   23  O   UNL     1      15.520  -4.769  -1.974  1.00  0.00    -0.274 OA
HETATM   24  N   UNL     1      14.084  -5.801  -0.579  1.00  0.00    -0.370 N 
HETATM   25  H   UNL     1      13.231  -6.327  -0.428  1.00  0.00     0.159 HD
HETATM   26  H   UNL     1      14.824  -5.881   0.106  1.00  0.00     0.159 HD
ENDBRANCH  21  22
ENDBRANCH   8  21
TORSDOF 5
