REMARK  8 active torsions:
REMARK  status: ('A' for Active; 'I' for Inactive)
REMARK    1  A    between atoms: C_2  and  N_3 
REMARK    2  A    between atoms: C_2  and  C_14 
REMARK    3  A    between atoms: N_3  and  C_4 
REMARK    4  A    between atoms: C_4  and  C_5 
REMARK    5  A    between atoms: C_5  and  O_6 
REMARK    6  A    between atoms: C_5  and  C_7 
REMARK    7  A    between atoms: C_7  and  N_8 
REMARK    8  A    between atoms: C_14  and  N_16 
ROOT
HETATM    1  N   UNL     1       2.676   0.829   1.172  1.00  0.00     0.092 N 
HETATM    2  H   UNL     1       3.695   0.745   1.158  1.00  0.00     0.316 HD
ENDROOT
BRANCH   1   3
HETATM    3  C   UNL     1       2.031  -0.125   0.251  1.00  0.00     0.240 C 
HETATM    4  C   UNL     1       2.528   0.106  -1.185  1.00  0.00     0.045 C 
BRANCH   3   5
HETATM    5  C   UNL     1       0.472  -0.151   0.362  1.00  0.00     0.136 C 
HETATM    6  C   UNL     1      -0.174  -1.204  -0.543  1.00  0.00     0.036 C 
BRANCH   5   7
HETATM    7  N   UNL     1      -0.022  -0.329   1.731  1.00  0.00    -0.297 N 
HETATM    8  C   UNL     1       0.511  -1.093   2.738  1.00  0.00     0.112 A 
HETATM    9  C   UNL     1      -0.325  -0.942   3.821  1.00  0.00     0.037 A 
HETATM   10  C   UNL     1      -1.348  -0.095   3.367  1.00  0.00     0.108 A 
HETATM   11  N   UNL     1      -1.178   0.274   2.094  1.00  0.00    -0.310 N 
ATOM     12  HN  UNL     1      -1.780   0.872   1.527  1.00  0.00     0.186 HD
ENDBRANCH   5   7
ENDBRANCH   3   5
ENDBRANCH   1   3
BRANCH   1  13
HETATM   13  C   UNL     1       2.302   2.232   0.976  1.00  0.00     0.303 C 
BRANCH  13  14
HETATM   14  C   UNL     1       3.104   3.157   1.918  1.00  0.00     0.174 C 
BRANCH  14  15
HETATM   15  O   UNL     1       4.498   2.927   1.657  1.00  0.00    -0.392 OA
HETATM   16  H   UNL     1       4.653   3.093   0.714  1.00  0.00     0.210 HD
ENDBRANCH  14  15
BRANCH  14  17
HETATM   17  C   UNL     1       2.685   4.623   1.627  1.00  0.00     0.305 C 
BRANCH  17  18
HETATM   18  N   UNL     1       3.262   5.679   2.484  1.00  0.00     0.095 N 
HETATM   19  C   UNL     1       2.753   7.014   2.080  1.00  0.00     0.298 C 
HETATM   20  C   UNL     1       3.334   7.528   0.746  1.00  0.00     0.198 C 
HETATM   21  O   UNL     1       4.768   7.497   0.725  1.00  0.00    -0.388 OA
HETATM   22  C   UNL     1       5.273   6.199   1.069  1.00  0.00     0.198 C 
HETATM   23  C   UNL     1       4.739   5.754   2.440  1.00  0.00     0.298 C 
ENDBRANCH  17  18
ENDBRANCH  14  17
ENDBRANCH  13  14
ENDBRANCH   1  13
TORSDOF 8
