REMARK  5 active torsions:
REMARK  status: ('A' for Active; 'I' for Inactive)
REMARK       I    between atoms: C_2  and  N_4 
REMARK    1  A    between atoms: C_7  and  N_10 
REMARK       I    between atoms: N_10  and  C_11 
REMARK    2  A    between atoms: C_11  and  C_13 
REMARK    3  A    between atoms: C_13  and  N_14 
REMARK    4  A    between atoms: C_21  and  C_22 
REMARK    5  A    between atoms: C_22  and  N_23 
ROOT
HETATM    1  N   UNL     1       5.762  -1.739   5.837  1.00  0.00    -0.247 N 
HETATM    2  N   UNL     1       6.907  -1.105   6.245  1.00  0.00    -0.299 N 
ATOM      3  HN  UNL     1       7.797  -1.602   6.266  1.00  0.00     0.187 HD
HETATM    4  C   UNL     1       6.837   0.139   6.604  1.00  0.00     0.029 A 
HETATM    5  C   UNL     1       8.136   0.796   7.016  1.00  0.00     0.070 C 
HETATM    6  C   UNL     1       5.584   0.932   6.636  1.00  0.00    -0.013 A 
HETATM    7  C   UNL     1       5.581   2.367   7.079  1.00  0.00     0.052 C 
HETATM    8  C   UNL     1       4.477   0.277   6.241  1.00  0.00     0.103 A 
HETATM    9  C   UNL     1       4.519  -1.125   5.768  1.00  0.00     0.282 A 
HETATM   10  O   UNL     1       3.515  -1.686   5.330  1.00  0.00    -0.265 OA
ENDROOT
BRANCH   1  11
HETATM   11  C   UNL     1       5.916  -3.122   5.399  1.00  0.00     0.255 C 
BRANCH  11  12
HETATM   12  C   UNL     1       6.128  -3.171   3.888  1.00  0.00     0.237 C 
HETATM   13  N   UNL     1       4.958  -3.109   3.153  1.00  0.00    -0.355 N 
HETATM   14  H   UNL     1       4.094  -2.938   3.664  1.00  0.00     0.162 HD
HETATM   15  O   UNL     1       7.242  -3.219   3.374  1.00  0.00    -0.272 OA
BRANCH  13  16
HETATM   16  C   UNL     1       4.946  -3.091   1.692  1.00  0.00     0.087 C 
HETATM   17  C   UNL     1       5.580  -1.823   1.103  1.00  0.00     0.045 C 
HETATM   18  C   UNL     1       4.709  -0.597   1.342  1.00  0.00     0.127 C 
HETATM   19  N   UNL     1       3.355  -0.819   0.841  1.00  0.00    -0.352 N 
HETATM   20  C   UNL     1       2.761   0.168   0.064  1.00  0.00     0.215 C 
HETATM   21  C   UNL     1       2.674  -2.001   1.366  1.00  0.00     0.127 C 
HETATM   22  C   UNL     1       1.331  -0.051  -0.359  1.00  0.00     0.117 C 
HETATM   23  O   UNL     1       3.355   1.189  -0.286  1.00  0.00    -0.274 OA
HETATM   24  C   UNL     1       3.518  -3.259   1.155  1.00  0.00     0.045 C 
ENDBRANCH  13  16
ENDBRANCH  11  12
ENDBRANCH   1  11
BRANCH   8  25
HETATM   25  C   UNL     1       3.149   1.015   6.249  1.00  0.00    -0.031 C 
BRANCH  25  26
HETATM   26  N   UNL     1       2.046   1.627   6.256  1.00  0.00    -0.365 N 
ATOM     27  HN2 UNL     1       2.921   1.102   6.265  1.00  0.00     0.165 HD
ATOM     28  HN1 UNL     1       1.154   2.122   6.261  1.00  0.00     0.165 HD
ENDBRANCH  25  26
ENDBRANCH   8  25
TORSDOF 5
