REMARK  5 active torsions:
REMARK  status: ('A' for Active; 'I' for Inactive)
REMARK       I    between atoms: C_2  and  N_3 
REMARK       I    between atoms: C_2  and  N_17 
REMARK    1  A    between atoms: N_3  and  C_4 
REMARK    2  A    between atoms: C_4  and  C_5 
REMARK    3  A    between atoms: C_5  and  C_6 
REMARK    4  A    between atoms: C_5  and  N_11 
REMARK    5  A    between atoms: N_17  and  C_18 
ROOT
HETATM    1  O   UNL     1       3.430  -1.256   2.866  1.00  0.00    -0.247 OA
HETATM    2  C   UNL     1       3.597  -0.928   1.700  1.00  0.00     0.320 C 
HETATM    3  N   UNL     1       3.140   0.278   1.208  1.00  0.00    -0.341 N 
HETATM    4  N   UNL     1       4.289  -1.634   0.744  1.00  0.00    -0.309 N 
HETATM    5  H   UNL     1       2.780   0.224   0.265  1.00  0.00     0.164 HD
HETATM    6  H   UNL     1       4.524  -1.125  -0.096  1.00  0.00     0.170 HD
ENDROOT
BRANCH   3   7
HETATM    7  C   UNL     1       2.409   1.155   2.108  1.00  0.00     0.160 C 
BRANCH   7   8
HETATM    8  C   UNL     1       3.242   1.738   3.314  1.00  0.00     0.247 C 
BRANCH   8   9
HETATM    9  C   UNL     1       4.291   2.790   2.829  1.00  0.00     0.046 C 
HETATM   10  C   UNL     1       3.822   3.933   1.940  1.00  0.00     0.035 C 
HETATM   11  C   UNL     1       5.007   4.216   1.025  1.00  0.00     0.168 C 
HETATM   12  O   UNL     1       6.079   3.360   1.435  1.00  0.00    -0.391 OA
HETATM   13  C   UNL     1       5.474   2.220   2.058  1.00  0.00     0.174 C 
ENDBRANCH   8   9
BRANCH   8  14
HETATM   14  N   UNL     1       2.310   2.245   4.384  1.00  0.00     0.099 N 
HETATM   15  C   UNL     1       2.996   2.847   5.565  1.00  0.00     0.299 C 
HETATM   16  C   UNL     1       3.758   1.839   6.453  1.00  0.00     0.198 C 
HETATM   17  O   UNL     1       2.906   0.784   6.915  1.00  0.00    -0.388 OA
HETATM   18  C   UNL     1       2.271   0.129   5.811  1.00  0.00     0.198 C 
HETATM   19  C   UNL     1       1.474   1.147   4.972  1.00  0.00     0.299 C 
ENDBRANCH   8  14
ENDBRANCH   7   8
ENDBRANCH   3   7
BRANCH   4  20
HETATM   20  C   UNL     1       4.948  -2.866   0.962  1.00  0.00     0.038 A 
HETATM   21  C   UNL     1       4.737  -3.658   2.089  1.00  0.00     0.046 A 
HETATM   22  C   UNL     1       5.488  -4.812   2.240  1.00  0.00     0.090 A 
HETATM   23  N   UNL     1       6.408  -5.228   1.345  1.00  0.00    -0.375 N 
HETATM   24  C   UNL     1       6.573  -4.459   0.250  1.00  0.00     0.090 A 
ATOM     25  HN  UNL     1       6.950  -6.080   1.489  1.00  0.00     0.164 HD
HETATM   26  C   UNL     1       5.869  -3.290   0.008  1.00  0.00     0.046 A 
ENDBRANCH   4  20
TORSDOF 5
