REMARK  7 active torsions:
REMARK  status: ('A' for Active; 'I' for Inactive)
REMARK    1  A    between atoms: C_5  and  C_6 
REMARK    2  A    between atoms: C_6  and  C_7 
REMARK       I    between atoms: C_7  and  N_9 
REMARK    3  A    between atoms: N_9  and  C_10 
REMARK    4  A    between atoms: C_10  and  C_11 
REMARK    5  A    between atoms: C_11  and  C_12 
REMARK    6  A    between atoms: C_12  and  C_13 
REMARK    7  A    between atoms: C_13  and  O_14 
ROOT
HETATM    1  C   UNL     1       8.482  -1.222  -0.257  1.00  0.00     0.223 C 
HETATM    2  O   UNL     1       7.372  -0.812   0.083  1.00  0.00    -0.273 OA
HETATM    3  N   UNL     1       9.605  -0.417  -0.269  1.00  0.00    -0.360 N 
HETATM    4  H   UNL     1      10.384  -0.754  -0.836  1.00  0.00     0.162 HD
ENDROOT
BRANCH   3   5
HETATM    5  C   UNL     1       9.479   0.991   0.049  1.00  0.00     0.132 C 
BRANCH   5   6
HETATM    6  C   UNL     1      10.798   1.793   0.017  1.00  0.00    -0.022 C 
HETATM    7  C   UNL     1      11.800   1.272   1.077  1.00  0.00     0.011 C 
HETATM    8  C   UNL     1      12.463   2.493   1.720  1.00  0.00     0.001 C 
HETATM    9  C   UNL     1      11.853   3.721   1.064  1.00  0.00     0.001 C 
HETATM   10  C   UNL     1      10.529   3.237   0.498  1.00  0.00     0.011 C 
BRANCH   6  11
HETATM   11  C   UNL     1      11.459   1.767  -1.389  1.00  0.00     0.037 C 
BRANCH  11  12
HETATM   12  C   UNL     1      10.567   2.217  -2.545  1.00  0.00     0.165 C 
BRANCH  12  13
HETATM   13  O   UNL     1      11.281   2.091  -3.772  1.00  0.00    -0.401 OA
HETATM   14  H   UNL     1      12.033   2.706  -3.736  1.00  0.00     0.209 HD
ENDBRANCH  12  13
ENDBRANCH  11  12
ENDBRANCH   6  11
ENDBRANCH   5   6
ENDBRANCH   3   5
BRANCH   1  15
HETATM   15  C   UNL     1       8.720  -2.680  -0.593  1.00  0.00     0.160 C 
BRANCH  15  16
HETATM   16  C   UNL     1       9.253  -2.893  -1.970  1.00  0.00     0.025 A 
HETATM   17  N   UNL     1      10.530  -2.445  -2.280  1.00  0.00    -0.357 N 
HETATM   18  C   UNL     1      10.836  -2.773  -3.519  1.00  0.00     0.047 A 
ATOM     19  HN  UNL     1      11.142  -1.936  -1.642  1.00  0.00     0.166 HD
HETATM   20  C   UNL     1      12.129  -2.464  -4.184  1.00  0.00     0.076 C 
HETATM   21  S   UNL     1       9.620  -3.633  -4.378  1.00  0.00    -0.087 SA
HETATM   22  C   UNL     1       8.613  -3.562  -2.997  1.00  0.00     0.077 A 
ENDBRANCH  15  16
ENDBRANCH   1  15
TORSDOF 7
