REMARK  2 active torsions:
REMARK  status: ('A' for Active; 'I' for Inactive)
REMARK    1  A    between atoms: C_5  and  N_6 
REMARK       I    between atoms: N_6  and  C_7 
REMARK       I    between atoms: C_7  and  N_9 
REMARK    2  A    between atoms: N_9  and  C_10 
ROOT
HETATM    1  N   UNL     1       8.756  -1.342  -0.904  1.00  0.00    -0.295 N 
HETATM    2  C   UNL     1       9.509  -0.204  -0.927  1.00  0.00     0.322 C 
HETATM    3  O   UNL     1      10.690  -0.239  -0.597  1.00  0.00    -0.247 OA
HETATM    4  N   UNL     1       8.866   0.955  -1.256  1.00  0.00    -0.337 N 
HETATM    5  H   UNL     1       9.268  -2.137  -0.547  1.00  0.00     0.172 HD
HETATM    6  H   UNL     1       7.888   0.813  -1.501  1.00  0.00     0.164 HD
ENDROOT
BRANCH   4   7
HETATM    7  C   UNL     1       9.379   2.298  -0.965  1.00  0.00     0.103 C 
HETATM    8  C   UNL     1      10.504   2.846  -1.912  1.00  0.00     0.041 C 
HETATM    9  C   UNL     1      11.842   3.543  -2.133  1.00  0.00     0.035 C 
HETATM   10  C   UNL     1       9.806   4.227  -1.543  1.00  0.00     0.138 C 
HETATM   11  C   UNL     1      11.435   4.699  -3.081  1.00  0.00     0.168 C 
HETATM   12  O   UNL     1      10.226   5.211  -2.503  1.00  0.00    -0.385 OA
HETATM   13  C   UNL     1       8.474   3.471  -1.620  1.00  0.00     0.007 C 
HETATM   14  C   UNL     1       7.305   3.950  -0.760  1.00  0.00     0.014 C 
HETATM   15  C   UNL     1       7.928   3.397  -3.057  1.00  0.00     0.014 C 
HETATM   16  C   UNL     1       6.054   3.753  -1.627  1.00  0.00     0.001 C 
HETATM   17  C   UNL     1       6.492   2.987  -2.862  1.00  0.00     0.001 C 
ENDBRANCH   4   7
BRANCH   1  18
HETATM   18  C   UNL     1       7.378  -1.477  -1.110  1.00  0.00     0.108 A 
HETATM   19  C   UNL     1       6.753  -2.631  -0.651  1.00  0.00     0.049 A 
HETATM   20  C   UNL     1       5.358  -2.712  -0.723  1.00  0.00     0.012 A 
HETATM   21  C   UNL     1       4.628  -1.670  -1.284  1.00  0.00    -0.046 A 
HETATM   22  C   UNL     1       3.135  -1.681  -1.359  1.00  0.00     0.049 C 
HETATM   23  C   UNL     1       5.346  -0.597  -1.784  1.00  0.00     0.096 A 
HETATM   24  N   UNL     1       6.689  -0.471  -1.687  1.00  0.00    -0.352 N 
ATOM     25  HN  UNL     1       7.166   0.359  -2.039  1.00  0.00     0.166 HD
ENDBRANCH   1  18
TORSDOF 2
