REMARK  3 active torsions:
REMARK  status: ('A' for Active; 'I' for Inactive)
REMARK    1  A    between atoms: C_2  and  C_3 
REMARK       I    between atoms: C_3  and  N_5 
REMARK    2  A    between atoms: C_8  and  N_10 
REMARK       I    between atoms: N_10  and  C_11 
REMARK       I    between atoms: C_11  and  N_13 
REMARK    3  A    between atoms: N_13  and  C_14 
ROOT
HETATM    1  N   UNL     1       5.831  -0.598  -3.806  1.00  0.00    -0.337 N 
HETATM    2  C   UNL     1       5.777   0.669  -4.362  1.00  0.00     0.323 C 
HETATM    3  O   UNL     1       6.169   1.653  -3.743  1.00  0.00    -0.247 OA
HETATM    4  N   UNL     1       5.210   0.653  -5.604  1.00  0.00    -0.274 N 
HETATM    5  H   UNL     1       6.027  -1.342  -4.462  1.00  0.00     0.164 HD
HETATM    6  H   UNL     1       4.620  -0.119  -5.871  1.00  0.00     0.174 HD
ENDROOT
BRANCH   1   7
HETATM    7  C   UNL     1       6.349  -0.736  -2.442  1.00  0.00     0.105 C 
HETATM    8  C   UNL     1       6.439  -2.202  -2.013  1.00  0.00     0.047 C 
HETATM    9  C   UNL     1       5.054  -2.525  -1.463  1.00  0.00     0.128 C 
HETATM   10  N   UNL     1       4.445  -1.246  -1.152  1.00  0.00    -0.350 N 
HETATM   11  C   UNL     1       3.102  -1.163  -0.855  1.00  0.00     0.219 C 
HETATM   12  C   UNL     1       5.376  -0.152  -1.400  1.00  0.00     0.150 C 
HETATM   13  O   UNL     1       2.382  -2.162  -0.865  1.00  0.00    -0.273 OA
BRANCH  11  14
HETATM   14  C   UNL     1       2.568   0.210  -0.483  1.00  0.00     0.098 C 
HETATM   15  C   UNL     1       1.072   0.185  -0.209  1.00  0.00     0.014 C 
ENDBRANCH  11  14
ENDBRANCH   1   7
BRANCH   4  16
HETATM   16  C   UNL     1       5.036   1.793  -6.331  1.00  0.00     0.231 A 
HETATM   17  N   UNL     1       4.237   1.924  -7.369  1.00  0.00    -0.330 N 
HETATM   18  C   UNL     1       4.394   3.239  -7.737  1.00  0.00     0.116 A 
ATOM     19  HN  UNL     1       3.642   1.216  -7.799  1.00  0.00     0.168 HD
HETATM   20  C   UNL     1       5.322   3.841  -6.926  1.00  0.00     0.162 A 
HETATM   21  O   UNL     1       5.748   2.918  -6.025  1.00  0.00    -0.290 OA
ENDBRANCH   4  16
TORSDOF 3
