REMARK  6 active torsions:
REMARK  status: ('A' for Active; 'I' for Inactive)
REMARK    1  A    between atoms: C_2  and  O_3 
REMARK    2  A    between atoms: O_3  and  C_4 
REMARK    3  A    between atoms: C_4  and  C_5 
REMARK       I    between atoms: C_5  and  N_7 
REMARK    4  A    between atoms: N_7  and  C_8 
REMARK    5  A    between atoms: C_11  and  O_12 
REMARK    6  A    between atoms: C_16  and  N_17 
REMARK       I    between atoms: N_20  and  C_23 
ROOT
HETATM    1  C   UNL     1       6.692  -4.160   1.157  1.00  0.00     0.079 A 
HETATM    2  C   UNL     1       7.635  -4.434   2.154  1.00  0.00     0.038 A 
HETATM    3  C   UNL     1       7.971  -5.740   2.439  1.00  0.00     0.058 A 
HETATM    4  C   UNL     1       7.344  -6.728   1.712  1.00  0.00     0.143 A 
HETATM    5  N   UNL     1       6.448  -6.501   0.717  1.00  0.00    -0.321 N 
ATOM      6  HN  UNL     1       6.023  -7.281   0.216  1.00  0.00     0.169 HD
HETATM    7  C   UNL     1       6.124  -5.216   0.396  1.00  0.00     0.132 A 
ENDROOT
BRANCH   7   8
HETATM    8  N   UNL     1       5.352  -5.022  -0.748  1.00  0.00    -0.362 N 
HETATM    9  C   UNL     1       4.534  -6.142  -1.259  1.00  0.00     0.144 C 
HETATM   10  C   UNL     1       4.429  -6.132  -2.811  1.00  0.00     0.145 C 
HETATM   11  N   UNL     1       4.101  -4.799  -3.344  1.00  0.00    -0.349 N 
HETATM   12  C   UNL     1       5.019  -3.772  -2.881  1.00  0.00     0.145 C 
HETATM   13  C   UNL     1       3.103  -4.433  -4.222  1.00  0.00     0.215 C 
HETATM   14  C   UNL     1       5.066  -3.714  -1.355  1.00  0.00     0.144 C 
HETATM   15  O   UNL     1       2.919  -3.255  -4.552  1.00  0.00    -0.274 OA
HETATM   16  C   UNL     1       2.192  -5.473  -4.811  1.00  0.00     0.117 C 
ENDBRANCH   7   8
BRANCH   1  17
HETATM   17  N   UNL     1       6.278  -2.815   1.065  1.00  0.00    -0.322 N 
HETATM   18  C   UNL     1       7.184  -1.792   0.833  1.00  0.00     0.245 C 
HETATM   19  O   UNL     1       8.384  -1.942   0.622  1.00  0.00    -0.271 OA
HETATM   20  H   UNL     1       5.302  -2.637   0.874  1.00  0.00     0.169 HD
BRANCH  18  21
HETATM   21  C   UNL     1       6.543  -0.408   0.876  1.00  0.00     0.270 C 
BRANCH  21  22
HETATM   22  O   UNL     1       5.919  -0.142   2.128  1.00  0.00    -0.382 OA
BRANCH  22  23
HETATM   23  C   UNL     1       6.860  -0.193   3.205  1.00  0.00     0.163 C 
HETATM   24  C   UNL     1       6.127   0.081   4.499  1.00  0.00     0.033 C 
ENDBRANCH  22  23
ENDBRANCH  21  22
ENDBRANCH  18  21
ENDBRANCH   1  17
BRANCH   4  25
HETATM   25  O   UNL     1       7.711  -8.012   2.073  1.00  0.00    -0.341 OA
HETATM   26  C   UNL     1       7.063  -9.030   1.329  1.00  0.00     0.211 C 
ENDBRANCH   4  25
TORSDOF 6
