REMARK  3 active torsions:
REMARK  status: ('A' for Active; 'I' for Inactive)
REMARK    1  A    between atoms: C_2  and  C_3 
REMARK    2  A    between atoms: C_9  and  N_10 
REMARK       I    between atoms: N_10  and  C_11 
REMARK       I    between atoms: C_11  and  N_13 
REMARK    3  A    between atoms: N_13  and  C_14 
ROOT
HETATM    1  N   UNL     1       1.785   3.720  -1.191  1.00  0.00    -0.305 N 
HETATM    2  C   UNL     1       1.498   2.807  -2.186  1.00  0.00     0.321 C 
HETATM    3  O   UNL     1       2.336   2.116  -2.743  1.00  0.00    -0.247 OA
HETATM    4  N   UNL     1       0.156   2.748  -2.485  1.00  0.00    -0.335 N 
HETATM    5  H   UNL     1       1.286   4.594  -1.255  1.00  0.00     0.171 HD
HETATM    6  H   UNL     1      -0.418   3.513  -2.163  1.00  0.00     0.164 HD
ENDROOT
BRANCH   1   7
HETATM    7  C   UNL     1       3.066   3.786  -0.644  1.00  0.00     0.092 A 
HETATM    8  C   UNL     1       3.800   4.941  -0.479  1.00  0.00     0.104 A 
HETATM    9  O   UNL     1       4.993   4.642   0.095  1.00  0.00    -0.240 OA
HETATM   10  N   UNL     1       5.072   3.285   0.319  1.00  0.00    -0.263 N 
HETATM   11  C   UNL     1       3.928   2.765  -0.147  1.00  0.00     0.058 A 
ATOM     12  HN  UNL     1       5.845   2.779   0.752  1.00  0.00     0.194 HD
HETATM   13  C   UNL     1       3.698   1.307  -0.005  1.00  0.00     0.072 C 
BRANCH   8  14
HETATM   14  C   UNL     1       3.632   6.350  -0.901  1.00  0.00     0.065 C 
HETATM   15  C   UNL     1       4.132   6.540  -2.329  1.00  0.00     0.012 C 
ENDBRANCH   8  14
ENDBRANCH   1   7
BRANCH   4  16
HETATM   16  C   UNL     1      -0.389   1.890  -3.551  1.00  0.00     0.122 C 
HETATM   17  C   UNL     1      -1.917   2.001  -3.608  1.00  0.00     0.065 C 
HETATM   18  C   UNL     1      -2.441   0.604  -3.948  1.00  0.00     0.057 C 
HETATM   19  C   UNL     1      -3.384   0.052  -2.874  1.00  0.00     0.045 C 
HETATM   20  C   UNL     1      -3.162   0.556  -5.297  1.00  0.00     0.045 C 
HETATM   21  O   UNL     1      -1.309  -0.267  -4.026  1.00  0.00    -0.369 OA
HETATM   22  C   UNL     1      -0.144   0.363  -3.443  1.00  0.00     0.075 C 
HETATM   23  C   UNL     1       1.033  -0.140  -4.285  1.00  0.00     0.048 C 
HETATM   24  C   UNL     1      -0.025  -0.145  -2.003  1.00  0.00     0.048 C 
ENDBRANCH   4  16
TORSDOF 3
