REMARK  7 active torsions:
REMARK  status: ('A' for Active; 'I' for Inactive)
REMARK    1  A    between atoms: O_2  and  C_3 
REMARK    2  A    between atoms: C_3  and  C_4 
REMARK    3  A    between atoms: C_4  and  O_5 
REMARK    4  A    between atoms: O_5  and  C_6 
REMARK    5  A    between atoms: C_12  and  C_13 
REMARK       I    between atoms: C_13  and  N_15 
REMARK    6  A    between atoms: C_18  and  C_19 
REMARK    7  A    between atoms: C_19  and  C_20 
REMARK       I    between atoms: C_20  and  N_22 
ROOT
HETATM    1  C   UNL     1       5.727  -4.527  -2.284  1.00  0.00     0.258 C 
HETATM    2  O   UNL     1       6.145  -5.665  -2.054  1.00  0.00    -0.267 OA
HETATM    3  N   UNL     1       4.492  -4.315  -2.946  1.00  0.00    -0.348 N 
HETATM    4  C   UNL     1       3.727  -5.515  -3.288  1.00  0.00     0.126 C 
HETATM    5  C   UNL     1       2.708  -5.267  -4.400  1.00  0.00     0.025 C 
HETATM    6  C   UNL     1       1.771  -4.087  -4.101  1.00  0.00    -0.003 C 
HETATM    7  C   UNL     1       2.639  -2.855  -3.854  1.00  0.00     0.025 C 
HETATM    8  C   UNL     1       3.720  -3.087  -2.809  1.00  0.00     0.126 C 
ENDROOT
BRANCH   1   9
HETATM    9  C   UNL     1       6.669  -3.405  -2.005  1.00  0.00     0.083 C 
HETATM   10  C   UNL     1       6.363  -2.211  -1.362  1.00  0.00     0.158 C 
HETATM   11  N   UNL     1       7.214  -1.161  -1.272  1.00  0.00    -0.346 N 
HETATM   12  C   UNL     1       8.460  -1.343  -1.760  1.00  0.00     0.090 C 
ATOM     13  HN  UNL     1       6.927  -0.275  -0.856  1.00  0.00     0.167 HD
HETATM   14  C   UNL     1       8.913  -2.543  -2.279  1.00  0.00     0.018 C 
HETATM   15  C   UNL     1       8.000  -3.586  -2.405  1.00  0.00     0.023 C 
BRANCH  10  16
HETATM   16  O   UNL     1       5.204  -2.150  -0.628  1.00  0.00    -0.333 OA
BRANCH  16  17
HETATM   17  C   UNL     1       4.665  -0.835  -0.453  1.00  0.00     0.203 C 
BRANCH  17  18
HETATM   18  C   UNL     1       3.375  -1.033   0.339  1.00  0.00     0.193 C 
BRANCH  18  19
HETATM   19  O   UNL     1       2.671   0.186   0.547  1.00  0.00    -0.394 OA
HETATM   20  C   UNL     1       1.477  -0.049   1.288  1.00  0.00     0.201 C 
ENDBRANCH  18  19
ENDBRANCH  17  18
ENDBRANCH  16  17
ENDBRANCH  10  16
ENDBRANCH   1   9
BRANCH   6  21
HETATM   21  C   UNL     1       0.812  -4.345  -2.926  1.00  0.00     0.107 C 
BRANCH  21  22
HETATM   22  C   UNL     1      -0.182  -5.450  -3.224  1.00  0.00     0.215 C 
HETATM   23  O   UNL     1      -0.563  -5.760  -4.345  1.00  0.00    -0.274 OA
HETATM   24  N   UNL     1      -0.685  -6.075  -2.127  1.00  0.00    -0.370 N 
HETATM   25  H   UNL     1      -0.292  -5.955  -1.195  1.00  0.00     0.159 HD
HETATM   26  H   UNL     1      -1.306  -6.856  -2.286  1.00  0.00     0.159 HD
ENDBRANCH  21  22
ENDBRANCH   6  21
TORSDOF 7
