REMARK  3 active torsions:
REMARK  status: ('A' for Active; 'I' for Inactive)
REMARK       I    between atoms: N_1  and  C_2 
REMARK       I    between atoms: C_2  and  N_4 
REMARK    1  A    between atoms: C_7  and  N_10 
REMARK    2  A    between atoms: N_10  and  C_11 
REMARK    3  A    between atoms: C_15  and  N_16 
ROOT
HETATM    1  N   UNL     1       5.267  -3.764  -1.843  1.00  0.00     0.094 N 
HETATM    2  H   UNL     1       5.550  -4.487  -1.176  1.00  0.00     0.317 HD
ENDROOT
BRANCH   1   3
HETATM    3  C   UNL     1       3.800  -3.689  -1.877  1.00  0.00     0.224 C 
HETATM    4  C   UNL     1       3.256  -2.520  -2.716  1.00  0.00     0.055 C 
HETATM    5  C   UNL     1       3.599  -1.165  -2.101  1.00  0.00     0.129 C 
HETATM    6  N   UNL     1       3.134  -1.102  -0.719  1.00  0.00    -0.339 N 
HETATM    7  C   UNL     1       2.613   0.083  -0.255  1.00  0.00     0.294 C 
HETATM    8  C   UNL     1       3.637  -2.168   0.149  1.00  0.00     0.129 C 
HETATM    9  N   UNL     1       2.118   0.044   1.008  1.00  0.00    -0.254 NA
HETATM   10  O   UNL     1       2.536   1.120  -0.902  1.00  0.00    -0.254 OA
HETATM   11  H   UNL     1       1.638   0.901   1.251  1.00  0.00     0.128 HD
HETATM   12  H   UNL     1       1.595  -0.788   1.242  1.00  0.00     0.128 HD
HETATM   13  C   UNL     1       3.295  -3.538  -0.430  1.00  0.00     0.055 C 
ENDBRANCH   1   3
BRANCH   1  14
HETATM   14  C   UNL     1       5.928  -3.986  -3.127  1.00  0.00     0.244 C 
HETATM   15  C   UNL     1       5.522  -5.263  -3.873  1.00  0.00     0.038 C 
HETATM   16  C   UNL     1       6.728  -5.653  -4.732  1.00  0.00     0.004 C 
HETATM   17  C   UNL     1       7.842  -4.659  -4.406  1.00  0.00     0.028 C 
HETATM   18  C   UNL     1       7.473  -4.056  -3.049  1.00  0.00     0.123 C 
BRANCH  18  19
HETATM   19  N   UNL     1       8.028  -4.774  -1.914  1.00  0.00    -0.345 N 
HETATM   20  C   UNL     1       8.861  -4.224  -0.973  1.00  0.00     0.109 A 
HETATM   21  C   UNL     1       9.097  -5.229  -0.065  1.00  0.00     0.106 A 
HETATM   22  N   UNL     1       8.437  -6.371  -0.427  1.00  0.00    -0.361 N 
HETATM   23  C   UNL     1       7.815  -6.072  -1.545  1.00  0.00     0.183 A 
ATOM     24  HN  UNL     1       8.429  -7.264   0.066  1.00  0.00     0.166 HD
ENDBRANCH  18  19
ENDBRANCH   1  14
TORSDOF 3
