REMARK  4 active torsions:
REMARK  status: ('A' for Active; 'I' for Inactive)
REMARK    1  A    between atoms: N_1  and  C_2 
REMARK    2  A    between atoms: C_2  and  C_3 
REMARK    3  A    between atoms: C_3  and  O_4 
REMARK    4  A    between atoms: C_3  and  C_5 
ROOT
HETATM    1  C   UNL     1       4.572   0.771  -1.389  1.00  0.00    -0.013 A 
HETATM    2  C   UNL     1       5.352   1.813  -0.880  1.00  0.00     0.012 A 
HETATM    3  C   UNL     1       6.740   1.743  -0.955  1.00  0.00     0.018 A 
HETATM    4  C   UNL     1       7.310   0.621  -1.530  1.00  0.00     0.087 A 
HETATM    5  N   UNL     1       6.596  -0.415  -2.022  1.00  0.00    -0.375 N 
ATOM      6  HN  UNL     1       7.049  -1.232  -2.432  1.00  0.00     0.164 HD
HETATM    7  C   UNL     1       5.249  -0.312  -1.943  1.00  0.00     0.097 A 
ENDROOT
BRANCH   1   8
HETATM    8  C   UNL     1       3.069   0.777  -1.327  1.00  0.00     0.180 C 
BRANCH   8   9
HETATM    9  C   UNL     1       2.537   0.069  -0.060  1.00  0.00     0.303 C 
BRANCH   9  10
HETATM   10  N   UNL     1       1.064   0.126  -0.017  1.00  0.00     0.081 N 
HETATM   11  H   UNL     1       0.744  -0.369   0.818  1.00  0.00     0.312 HD
HETATM   12  H   UNL     1       0.683  -0.398  -0.807  1.00  0.00     0.312 HD
ENDBRANCH   9  10
ENDBRANCH   8   9
BRANCH   8  13
HETATM   13  O   UNL     1       2.571   2.121  -1.341  1.00  0.00    -0.389 OA
HETATM   14  H   UNL     1       1.697   2.062  -0.904  1.00  0.00     0.210 HD
ENDBRANCH   8  13
ENDBRANCH   1   8
TORSDOF 4
