REMARK  4 active torsions:
REMARK  status: ('A' for Active; 'I' for Inactive)
REMARK    1  A    between atoms: C_2  and  N_3 
REMARK       I    between atoms: N_3  and  C_4 
REMARK    2  A    between atoms: C_4  and  C_6 
REMARK    3  A    between atoms: C_8  and  N_13 
REMARK    4  A    between atoms: C_17  and  C_19 
REMARK       I    between atoms: C_19  and  N_21 
ROOT
HETATM    1  C   UNL     1       4.897  -1.785   2.450  1.00  0.00     0.102 A 
HETATM    2  C   UNL     1       5.816  -1.365   3.409  1.00  0.00     0.064 A 
HETATM    3  C   UNL     1       6.272  -2.261   4.377  1.00  0.00     0.034 A 
HETATM    4  C   UNL     1       5.750  -3.557   4.312  1.00  0.00     0.046 A 
HETATM    5  C   UNL     1       4.826  -3.894   3.328  1.00  0.00     0.090 A 
HETATM    6  N   UNL     1       4.382  -3.041   2.384  1.00  0.00    -0.361 N 
ATOM      7  HN  UNL     1       3.708  -3.318   1.671  1.00  0.00     0.165 HD
ENDROOT
BRANCH   3   8
HETATM    8  N   UNL     1       7.179  -1.890   5.347  1.00  0.00    -0.376 N 
HETATM    9  C   UNL     1       7.307  -0.516   5.859  1.00  0.00     0.149 C 
HETATM   10  C   UNL     1       8.739  -0.007   5.641  1.00  0.00     0.188 C 
HETATM   11  O   UNL     1       9.710  -0.888   6.235  1.00  0.00    -0.373 OA
HETATM   12  C   UNL     1       9.607  -2.209   5.658  1.00  0.00     0.230 C 
HETATM   13  C   UNL     1       8.205  -2.818   5.867  1.00  0.00     0.164 C 
BRANCH  12  14
HETATM   14  C   UNL     1      10.661  -3.129   6.280  1.00  0.00     0.246 C 
HETATM   15  O   UNL     1      10.513  -4.333   6.463  1.00  0.00    -0.271 OA
HETATM   16  N   UNL     1      11.854  -2.517   6.559  1.00  0.00    -0.368 N 
HETATM   17  H   UNL     1      11.851  -1.509   6.677  1.00  0.00     0.159 HD
HETATM   18  H   UNL     1      12.543  -3.058   7.063  1.00  0.00     0.159 HD
ENDBRANCH  12  14
ENDBRANCH   3   8
BRANCH   1  19
HETATM   19  C   UNL     1       4.435  -0.809   1.413  1.00  0.00     0.268 C 
HETATM   20  N   UNL     1       3.516  -1.303   0.511  1.00  0.00    -0.356 N 
HETATM   21  H   UNL     1       3.277  -2.288   0.600  1.00  0.00     0.162 HD
HETATM   22  O   UNL     1       4.857   0.342   1.388  1.00  0.00    -0.266 OA
BRANCH  20  23
HETATM   23  C   UNL     1       2.973  -0.502  -0.561  1.00  0.00     0.118 C 
HETATM   24  C   UNL     1       3.818  -0.591  -1.818  1.00  0.00     0.026 C 
ENDBRANCH  20  23
ENDBRANCH   1  19
TORSDOF 4
