REMARK  6 active torsions:
REMARK  status: ('A' for Active; 'I' for Inactive)
REMARK    1  A    between atoms: N_6  and  C_7 
REMARK    2  A    between atoms: C_7  and  C_8 
REMARK    3  A    between atoms: C_8  and  N_9 
REMARK    4  A    between atoms: N_9  and  C_10 
REMARK    5  A    between atoms: C_10  and  C_11 
REMARK       I    between atoms: C_11  and  N_13 
REMARK    6  A    between atoms: N_13  and  C_14 
ROOT
HETATM    1  C   UNL     1       7.190  -6.263   0.229  1.00  0.00     0.246 C 
HETATM    2  O   UNL     1       7.045  -7.456   0.487  1.00  0.00    -0.272 OA
HETATM    3  N   UNL     1       8.421  -5.656   0.178  1.00  0.00    -0.346 N 
HETATM    4  H   UNL     1       8.474  -4.751  -0.294  1.00  0.00     0.163 HD
ENDROOT
BRANCH   1   5
HETATM    5  C   UNL     1       5.994  -5.346  -0.019  1.00  0.00     0.371 C 
BRANCH   5   6
HETATM    6  N   UNL     1       6.391  -3.922  -0.024  1.00  0.00     0.093 N 
HETATM    7  H   UNL     1       6.829  -3.704   0.872  1.00  0.00     0.316 HD
BRANCH   6   8
HETATM    8  C   UNL     1       5.225  -3.046  -0.235  1.00  0.00     0.291 C 
BRANCH   8   9
HETATM    9  C   UNL     1       4.212  -3.054   0.915  1.00  0.00     0.178 C 
BRANCH   9  10
HETATM   10  N   UNL     1       3.117  -2.141   0.668  1.00  0.00    -0.302 N 
HETATM   11  N   UNL     1       2.026  -2.565   0.007  1.00  0.00    -0.310 N 
HETATM   12  C   UNL     1       1.232  -1.494  -0.009  1.00  0.00     0.115 A 
ATOM     13  HN  UNL     1       1.848  -3.488  -0.389  1.00  0.00     0.186 HD
HETATM   14  C   UNL     1       1.813  -0.377   0.640  1.00  0.00    -0.028 A 
HETATM   15  C   UNL     1       1.239   0.972   0.820  1.00  0.00     0.051 C 
HETATM   16  C   UNL     1       3.039  -0.837   1.067  1.00  0.00     0.118 A 
ENDBRANCH   9  10
ENDBRANCH   8   9
ENDBRANCH   6   8
ENDBRANCH   5   6
ENDBRANCH   1   5
BRANCH   3  17
HETATM   17  C   UNL     1       9.643  -6.413   0.397  1.00  0.00     0.176 C 
HETATM   18  C   UNL     1       9.896  -6.556   1.904  1.00  0.00     0.035 C 
HETATM   19  C   UNL     1      10.861  -7.697   2.201  1.00  0.00     0.004 C 
HETATM   20  C   UNL     1      12.340  -7.337   2.076  1.00  0.00     0.020 C 
HETATM   21  C   UNL     1      12.704  -6.220   1.101  1.00  0.00     0.122 C 
HETATM   22  N   UNL     1      12.055  -6.301  -0.190  1.00  0.00    -0.359 N 
HETATM   23  C   UNL     1      10.804  -5.739  -0.356  1.00  0.00     0.240 C 
HETATM   24  H   UNL     1      12.144  -7.210  -0.627  1.00  0.00     0.162 HD
HETATM   25  O   UNL     1      10.623  -4.838  -1.174  1.00  0.00    -0.271 OA
ENDBRANCH   3  17
TORSDOF 6
