REMARK  5 active torsions:
REMARK  status: ('A' for Active; 'I' for Inactive)
REMARK    1  A    between atoms: C_2  and  C_5 
REMARK    2  A    between atoms: C_5  and  C_6 
REMARK       I    between atoms: C_6  and  N_8 
REMARK    3  A    between atoms: N_8  and  C_9 
REMARK    4  A    between atoms: C_9  and  C_10 
REMARK    5  A    between atoms: C_13  and  N_17 
ROOT
HETATM    1  C   UNL     1       7.090   2.900   3.068  1.00  0.00    -0.025 A 
HETATM    2  C   UNL     1       6.635   4.210   2.974  1.00  0.00     0.014 A 
HETATM    3  C   UNL     1       7.084   5.167   3.889  1.00  0.00     0.049 A 
HETATM    4  C   UNL     1       7.978   4.822   4.904  1.00  0.00     0.103 A 
HETATM    5  N   UNL     1       8.406   3.544   5.003  1.00  0.00    -0.352 N 
ATOM      6  HN  UNL     1       9.051   3.272   5.745  1.00  0.00     0.166 HD
HETATM    7  C   UNL     1       7.969   2.626   4.104  1.00  0.00     0.098 A 
ENDROOT
BRANCH   1   8
HETATM    8  C   UNL     1       6.633   1.834   2.122  1.00  0.00     0.162 C 
BRANCH   8   9
HETATM    9  N   UNL     1       5.420   1.184   2.572  1.00  0.00    -0.357 N 
HETATM   10  C   UNL     1       4.845   0.192   1.810  1.00  0.00     0.226 C 
HETATM   11  O   UNL     1       5.334  -0.207   0.759  1.00  0.00    -0.273 OA
HETATM   12  H   UNL     1       5.004   1.487   3.446  1.00  0.00     0.162 HD
BRANCH  10  13
HETATM   13  C   UNL     1       3.575  -0.383   2.354  1.00  0.00     0.220 C 
BRANCH  13  14
HETATM   14  C   UNL     1       2.396   0.403   1.852  1.00  0.00     0.396 C 
HETATM   15  F   UNL     1       2.720   1.417   1.026  1.00  0.00    -0.171 F 
HETATM   16  F   UNL     1       1.724   0.945   2.897  1.00  0.00    -0.171 F 
HETATM   17  F   UNL     1       1.526  -0.398   1.195  1.00  0.00    -0.171 F 
ENDBRANCH  13  14
ENDBRANCH  10  13
ENDBRANCH   8   9
ENDBRANCH   1   8
BRANCH   4  18
HETATM   18  N   UNL     1       8.377   5.737   5.857  1.00  0.00    -0.363 N 
HETATM   19  C   UNL     1       8.576   7.162   5.561  1.00  0.00     0.150 C 
HETATM   20  C   UNL     1      10.068   7.531   5.629  1.00  0.00     0.187 C 
HETATM   21  O   UNL     1      10.655   7.146   6.881  1.00  0.00    -0.388 OA
HETATM   22  C   UNL     1      10.547   5.723   7.056  1.00  0.00     0.187 C 
HETATM   23  C   UNL     1       9.080   5.269   7.062  1.00  0.00     0.150 C 
ENDBRANCH   4  18
TORSDOF 5
