REMARK  10 active torsions:
REMARK  status: ('A' for Active; 'I' for Inactive)
REMARK    1  A    between atoms: N_2  and  C_9 
REMARK    2  A    between atoms: N_3  and  C_5 
REMARK    3  A    between atoms: C_11  and  N_22 
REMARK    4  A    between atoms: C_18  and  C_23 
REMARK    5  A    between atoms: C_18  and  C_24 
REMARK    6  A    between atoms: N_22  and  C_29 
REMARK    7  A    between atoms: C_23  and  O_26 
REMARK    8  A    between atoms: C_24  and  O_27 
REMARK    9  A    between atoms: O_28  and  C_31 
REMARK   10  A    between atoms: C_29  and  C_31 
ROOT
HETATM    1  C   UNL     1       0.413  -0.646   0.035  1.00  0.00     0.122 A 
HETATM    2  N   UNL     1       1.646   1.154   0.026  1.00  0.00    -0.322 N 
HETATM    3  C   UNL     1       0.335   0.747   0.049  1.00  0.00     0.140 A 
HETATM    4  C   UNL     1      -0.798  -1.388  -0.039  1.00  0.00     0.135 A 
HETATM    5  N   UNL     1       1.731  -1.068   0.056  1.00  0.00    -0.346 N 
ATOM      6  HN  UNL     1       2.077  -2.027   0.076  1.00  0.00     0.167 HD
HETATM    7  C   UNL     1       2.435   0.035   0.044  1.00  0.00     0.185 A 
HETATM    8  N   UNL     1      -0.788   1.482   0.043  1.00  0.00    -0.336 N 
ATOM      9  HN  UNL     1      -0.813   2.502   0.053  1.00  0.00     0.168 HD
HETATM   10  N   UNL     1      -1.949  -0.664  -0.021  1.00  0.00    -0.337 N 
ATOM     11  HN  UNL     1      -2.854  -1.134  -0.040  1.00  0.00     0.168 HD
HETATM   12  C   UNL     1      -1.881   0.688   0.022  1.00  0.00     0.183 A 
ENDROOT
BRANCH   4  13
HETATM   13  N   UNL     1      -0.840  -2.775  -0.135  1.00  0.00    -0.359 N 
HETATM   14  C   UNL     1       0.268  -3.575  -0.704  1.00  0.00     0.115 C 
HETATM   15  C   UNL     1      -0.270  -5.082  -0.631  1.00  0.00     0.246 C 
HETATM   16  C   UNL     1       0.613  -3.082  -2.118  1.00  0.00     0.034 C 
HETATM   17  C   UNL     1      -1.756  -4.896  -0.211  1.00  0.00     0.057 C 
HETATM   18  C   UNL     1      -2.095  -3.428  -0.432  1.00  0.00     0.127 C 
BRANCH  15  19
HETATM   19  N   UNL     1      -0.064  -5.998  -1.789  1.00  0.00     0.092 N 
HETATM   20  C   UNL     1       1.349  -6.216  -2.117  1.00  0.00     0.310 C 
BRANCH  19  21
HETATM   21  C   UNL     1      -0.721  -7.325  -1.664  1.00  0.00     0.298 C 
BRANCH  21  22
HETATM   22  C   UNL     1      -0.161  -8.309  -0.618  1.00  0.00     0.194 C 
BRANCH  22  23
HETATM   23  O   UNL     1      -0.886  -9.536  -0.671  1.00  0.00    -0.399 OA
HETATM   24  H   UNL     1      -0.431 -10.160  -0.080  1.00  0.00     0.209 HD
ENDBRANCH  22  23
ENDBRANCH  21  22
ENDBRANCH  19  21
ENDBRANCH  15  19
ENDBRANCH   4  13
BRANCH   2  25
HETATM   25  C   UNL     1       2.252   2.451   0.021  1.00  0.00     0.094 C 
HETATM   26  C   UNL     1       1.817   3.390   1.183  1.00  0.00     0.039 C 
HETATM   27  C   UNL     1       2.109   4.581   0.203  1.00  0.00     0.006 C 
HETATM   28  C   UNL     1       1.673   3.549  -0.912  1.00  0.00     0.039 C 
BRANCH  27  29
HETATM   29  C   UNL     1       1.189   5.785   0.406  1.00  0.00     0.175 C 
BRANCH  29  30
HETATM   30  O   UNL     1       1.243   6.642  -0.730  1.00  0.00    -0.400 OA
HETATM   31  H   UNL     1       2.185   6.863  -0.879  1.00  0.00     0.209 HD
ENDBRANCH  29  30
ENDBRANCH  27  29
BRANCH  27  32
HETATM   32  C   UNL     1       3.587   5.017   0.218  1.00  0.00     0.175 C 
BRANCH  32  33
HETATM   33  O   UNL     1       3.891   5.738  -0.972  1.00  0.00    -0.400 OA
HETATM   34  H   UNL     1       4.024   5.084  -1.683  1.00  0.00     0.209 HD
ENDBRANCH  32  33
ENDBRANCH  27  32
ENDBRANCH   2  25
TORSDOF 10
