REMARK  5 active torsions:
REMARK  status: ('A' for Active; 'I' for Inactive)
REMARK    1  A    between atoms: C_8  and  N_9 
REMARK       I    between atoms: N_9  and  C_10 
REMARK       I    between atoms: C_10  and  N_12 
REMARK    2  A    between atoms: N_12  and  C_13 
REMARK    3  A    between atoms: C_13  and  C_18 
REMARK       I    between atoms: C_18  and  N_20 
REMARK    4  A    between atoms: N_20  and  C_21 
REMARK    5  A    between atoms: C_21  and  C_22 
ROOT
HETATM    1  N   UNL     1       2.344  -2.484  -0.649  1.00  0.00    -0.313 N 
HETATM    2  C   UNL     1       0.969  -2.489  -0.772  1.00  0.00     0.299 C 
HETATM    3  O   UNL     1       0.290  -1.587  -1.254  1.00  0.00    -0.254 OA
HETATM    4  N   UNL     1       0.380  -3.620  -0.236  1.00  0.00    -0.226 NA
HETATM    5  H   UNL     1       2.775  -3.353  -0.378  1.00  0.00     0.170 HD
HETATM    6  H   UNL     1       0.851  -4.473  -0.502  1.00  0.00     0.133 HD
ENDROOT
BRANCH   4   7
HETATM    7  C   UNL     1      -1.099  -3.718  -0.286  1.00  0.00     0.100 C 
HETATM    8  C   UNL     1      -1.784  -2.502   0.375  1.00  0.00     0.035 C 
HETATM    9  C   UNL     1      -2.984  -3.022   1.165  1.00  0.00     0.002 C 
HETATM   10  C   UNL     1      -3.011  -4.528   0.973  1.00  0.00     0.002 C 
HETATM   11  C   UNL     1      -1.590  -4.898   0.572  1.00  0.00     0.035 C 
BRANCH   7  12
HETATM   12  C   UNL     1      -1.492  -4.004  -1.777  1.00  0.00     0.241 C 
HETATM   13  O   UNL     1      -0.731  -4.633  -2.518  1.00  0.00    -0.271 OA
HETATM   14  N   UNL     1      -2.777  -3.679  -2.151  1.00  0.00    -0.359 N 
HETATM   15  H   UNL     1      -3.280  -2.983  -1.617  1.00  0.00     0.162 HD
BRANCH  14  16
HETATM   16  C   UNL     1      -3.267  -3.940  -3.484  1.00  0.00     0.127 C 
BRANCH  16  17
HETATM   17  C   UNL     1      -4.759  -4.084  -3.444  1.00  0.00     0.003 A 
HETATM   18  C   UNL     1      -5.407  -5.165  -2.610  1.00  0.00     0.007 A 
HETATM   19  C   UNL     1      -5.426  -5.264  -4.108  1.00  0.00     0.007 A 
ENDBRANCH  16  17
ENDBRANCH  14  16
ENDBRANCH   7  12
ENDBRANCH   4   7
BRANCH   1  20
HETATM   20  C   UNL     1       3.195  -1.387  -0.976  1.00  0.00     0.044 A 
HETATM   21  C   UNL     1       4.585  -1.560  -1.073  1.00  0.00    -0.020 A 
HETATM   22  C   UNL     1       5.304  -2.852  -0.827  1.00  0.00     0.052 C 
HETATM   23  C   UNL     1       5.350  -0.434  -1.395  1.00  0.00     0.096 A 
HETATM   24  N   UNL     1       4.857   0.801  -1.624  1.00  0.00    -0.375 N 
HETATM   25  C   UNL     1       3.525   0.934  -1.514  1.00  0.00     0.090 A 
ATOM     26  HN  UNL     1       5.460   1.587  -1.866  1.00  0.00     0.164 HD
HETATM   27  C   UNL     1       2.675  -0.108  -1.189  1.00  0.00     0.047 A 
ENDBRANCH   1  20
TORSDOF 5
