REMARK  1 active torsions:
REMARK  status: ('A' for Active; 'I' for Inactive)
REMARK    1  A    between atoms: C_2  and  C_9 
ROOT
HETATM    1  C   UNL     1       1.122  -0.050   0.233  1.00  0.00     0.054 C 
HETATM    2  C   UNL     1       2.630  -0.041   0.012  1.00  0.00     0.139 C 
HETATM    3  N   UNL     1       3.265  -1.203   0.611  1.00  0.00    -0.321 N 
HETATM    4  C   UNL     1       4.306  -0.871   1.439  1.00  0.00     0.324 C 
HETATM    5  O   UNL     1       5.032  -1.671   2.000  1.00  0.00    -0.247 OA
HETATM    6  N   UNL     1       4.356   0.473   1.555  1.00  0.00    -0.277 N 
HETATM    7  C   UNL     1       3.318   1.042   0.886  1.00  0.00     0.258 C 
HETATM    8  O   UNL     1       3.019   2.227   0.956  1.00  0.00    -0.270 OA
HETATM    9  H   UNL     1       3.078  -2.168   0.384  1.00  0.00     0.165 HD
HETATM   10  H   UNL     1       4.975   0.960   2.180  1.00  0.00     0.173 HD
ENDROOT
BRANCH   2  11
HETATM   11  C   UNL     1       2.977   0.087  -1.467  1.00  0.00    -0.018 A 
HETATM   12  C   UNL     1       3.140   1.339  -2.075  1.00  0.00     0.027 A 
HETATM   13  C   UNL     1       3.462   1.404  -3.422  1.00  0.00     0.088 A 
HETATM   14  N   UNL     1       3.614   0.321  -4.210  1.00  0.00    -0.375 N 
HETATM   15  C   UNL     1       3.430  -0.879  -3.626  1.00  0.00     0.088 A 
ATOM     16  HN  UNL     1       3.856   0.406  -5.197  1.00  0.00     0.164 HD
HETATM   17  C   UNL     1       3.109  -1.046  -2.286  1.00  0.00     0.027 A 
ENDBRANCH   2  11
TORSDOF 1
