REMARK  4 active torsions:
REMARK  status: ('A' for Active; 'I' for Inactive)
REMARK    1  A    between atoms: C_2  and  N_4 
REMARK    2  A    between atoms: C_7  and  C_8 
REMARK    3  A    between atoms: C_8  and  N_9 
REMARK       I    between atoms: N_9  and  C_10 
REMARK       I    between atoms: C_10  and  N_12 
REMARK    4  A    between atoms: N_12  and  C_13 
ROOT
HETATM    1  N   UNL     1       4.919  -3.002  -1.845  1.00  0.00    -0.342 N 
HETATM    2  C   UNL     1       5.758  -3.194  -2.924  1.00  0.00     0.321 C 
HETATM    3  O   UNL     1       6.735  -3.929  -2.840  1.00  0.00    -0.247 OA
HETATM    4  N   UNL     1       5.335  -2.510  -4.037  1.00  0.00    -0.293 N 
HETATM    5  H   UNL     1       4.379  -2.145  -1.795  1.00  0.00     0.164 HD
HETATM    6  H   UNL     1       4.485  -1.976  -3.982  1.00  0.00     0.172 HD
ENDROOT
BRANCH   1   7
HETATM    7  C   UNL     1       5.297  -3.586  -0.573  1.00  0.00     0.130 C 
BRANCH   7   8
HETATM    8  C   UNL     1       4.343  -3.271   0.583  1.00  0.00     0.033 C 
HETATM    9  C   UNL     1       2.913  -3.720   0.309  1.00  0.00     0.038 C 
HETATM   10  C   UNL     1       2.179  -2.467  -0.165  1.00  0.00     0.273 C 
HETATM   11  N   UNL     1       3.163  -1.367  -0.139  1.00  0.00     0.092 N 
HETATM   12  C   UNL     1       4.185  -1.777   0.838  1.00  0.00     0.279 C 
BRANCH  11  13
HETATM   13  C   UNL     1       2.552  -0.058   0.173  1.00  0.00     0.215 C 
HETATM   14  C   UNL     1       3.604   1.056   0.282  1.00  0.00     0.042 C 
HETATM   15  C   UNL     1       1.539   0.343  -0.908  1.00  0.00     0.042 C 
ENDBRANCH  11  13
ENDBRANCH   7   8
ENDBRANCH   1   7
BRANCH   4  16
HETATM   16  C   UNL     1       5.971  -2.596  -5.265  1.00  0.00     0.132 A 
HETATM   17  C   UNL     1       5.522  -1.955  -6.449  1.00  0.00     0.084 A 
HETATM   18  C   UNL     1       6.426  -2.336  -7.412  1.00  0.00     0.076 A 
HETATM   19  C   UNL     1       6.589  -2.093  -8.855  1.00  0.00     0.079 C 
HETATM   20  O   UNL     1       7.363  -3.136  -6.847  1.00  0.00    -0.241 OA
HETATM   21  N   UNL     1       7.083  -3.291  -5.511  1.00  0.00    -0.245 N 
ATOM     22  HN  UNL     1       7.622  -3.834  -4.836  1.00  0.00     0.196 HD
ENDBRANCH   4  16
TORSDOF 4
