REMARK  5 active torsions:
REMARK  status: ('A' for Active; 'I' for Inactive)
REMARK    1  A    between atoms: C_2  and  C_3 
REMARK    2  A    between atoms: C_3  and  N_6 
REMARK       I    between atoms: N_6  and  C_7 
REMARK    3  A    between atoms: C_7  and  C_9 
REMARK    4  A    between atoms: C_9  and  C_10 
REMARK    5  A    between atoms: C_13  and  N_16 
ROOT
HETATM    1  C   UNL     1       7.324  -0.611   1.570  1.00  0.00     0.026 A 
HETATM    2  C   UNL     1       8.136   0.321   2.186  1.00  0.00     0.078 A 
HETATM    3  S   UNL     1       8.538   1.563   1.074  1.00  0.00    -0.064 SA
HETATM    4  C   UNL     1       7.696   0.722  -0.159  1.00  0.00     0.155 A 
HETATM    5  N   UNL     1       7.058  -0.349   0.239  1.00  0.00    -0.339 N 
ATOM      6  HN  UNL     1       6.448  -0.913  -0.352  1.00  0.00     0.168 HD
ENDROOT
BRANCH   1   7
HETATM    7  C   UNL     1       6.737  -1.846   2.162  1.00  0.00     0.160 C 
BRANCH   7   8
HETATM    8  C   UNL     1       5.234  -1.760   2.352  1.00  0.00     0.223 C 
HETATM    9  N   UNL     1       4.536  -1.077   1.377  1.00  0.00    -0.352 N 
HETATM   10  H   UNL     1       5.072  -0.797   0.552  1.00  0.00     0.163 HD
HETATM   11  O   UNL     1       4.701  -2.324   3.307  1.00  0.00    -0.273 OA
BRANCH   9  12
HETATM   12  C   UNL     1       3.077  -0.906   1.340  1.00  0.00     0.025 C 
HETATM   13  C   UNL     1       2.570  -0.260   2.644  1.00  0.00     0.038 C 
HETATM   14  C   UNL     1       2.401  -2.276   1.146  1.00  0.00     0.038 C 
BRANCH  12  15
HETATM   15  C   UNL     1       2.678  -0.017   0.126  1.00  0.00     0.026 C 
HETATM   16  C   UNL     1       3.236   1.403   0.128  1.00  0.00     0.007 C 
ENDBRANCH  12  15
ENDBRANCH   9  12
ENDBRANCH   7   8
ENDBRANCH   1   7
BRANCH   4  17
HETATM   17  N   UNL     1       7.790   1.178  -1.451  1.00  0.00    -0.278 N 
HETATM   18  C   UNL     1       8.567   2.276  -1.973  1.00  0.00     0.155 C 
HETATM   19  C   UNL     1       8.637   2.001  -3.467  1.00  0.00     0.145 C 
HETATM   20  N   UNL     1       7.609   1.031  -3.693  1.00  0.00    -0.341 N 
HETATM   21  C   UNL     1       7.191   0.457  -2.492  1.00  0.00     0.324 C 
HETATM   22  H   UNL     1       7.478   0.491  -4.543  1.00  0.00     0.164 HD
HETATM   23  O   UNL     1       6.459  -0.520  -2.466  1.00  0.00    -0.247 OA
ENDBRANCH   4  17
TORSDOF 5
