REMARK  7 active torsions:
REMARK  status: ('A' for Active; 'I' for Inactive)
REMARK    1  A    between atoms: O_2  and  C_3 
REMARK    2  A    between atoms: C_3  and  C_4 
REMARK    3  A    between atoms: C_4  and  O_5 
REMARK    4  A    between atoms: O_5  and  C_6 
REMARK    5  A    between atoms: C_9  and  C_10 
REMARK    6  A    between atoms: C_10  and  N_11 
REMARK       I    between atoms: N_11  and  C_12 
REMARK    7  A    between atoms: C_12  and  C_14 
ROOT
HETATM    1  C   UNL     1      10.238   2.461  -3.212  1.00  0.00     0.162 C 
ENDROOT
BRANCH   1   2
HETATM    2  C   UNL     1       8.866   2.305  -2.629  1.00  0.00    -0.025 A 
HETATM    3  C   UNL     1       8.658   2.355  -1.250  1.00  0.00     0.014 A 
HETATM    4  C   UNL     1       7.359   2.349  -0.748  1.00  0.00     0.057 A 
HETATM    5  C   UNL     1       6.304   2.257  -1.640  1.00  0.00     0.141 A 
HETATM    6  N   UNL     1       6.461   2.173  -2.975  1.00  0.00    -0.346 N 
HETATM    7  C   UNL     1       7.736   2.202  -3.438  1.00  0.00     0.099 A 
ATOM      8  HN  UNL     1       5.663   2.092  -3.605  1.00  0.00     0.167 HD
BRANCH   5   9
HETATM    9  O   UNL     1       5.044   2.370  -1.092  1.00  0.00    -0.334 OA
BRANCH   9  10
HETATM   10  C   UNL     1       4.016   1.769  -1.880  1.00  0.00     0.203 C 
BRANCH  10  11
HETATM   11  C   UNL     1       2.689   2.012  -1.159  1.00  0.00     0.193 C 
BRANCH  11  12
HETATM   12  O   UNL     1       1.623   1.340  -1.828  1.00  0.00    -0.394 OA
HETATM   13  C   UNL     1       0.379   1.564  -1.173  1.00  0.00     0.201 C 
ENDBRANCH  11  12
ENDBRANCH  10  11
ENDBRANCH   9  10
ENDBRANCH   5   9
ENDBRANCH   1   2
BRANCH   1  14
HETATM   14  N   UNL     1      10.986   1.227  -3.349  1.00  0.00    -0.356 N 
HETATM   15  C   UNL     1      12.245   1.314  -3.896  1.00  0.00     0.223 C 
HETATM   16  O   UNL     1      12.655   2.350  -4.422  1.00  0.00    -0.273 OA
HETATM   17  H   UNL     1      10.775   0.458  -2.723  1.00  0.00     0.162 HD
BRANCH  15  18
HETATM   18  C   UNL     1      13.168   0.106  -3.784  1.00  0.00     0.096 C 
HETATM   19  C   UNL     1      12.749  -1.128  -4.575  1.00  0.00     0.025 C 
HETATM   20  C   UNL     1      11.843  -2.109  -3.836  1.00  0.00     0.103 C 
HETATM   21  C   UNL     1      12.064  -2.214  -2.346  1.00  0.00     0.217 C 
HETATM   22  O   UNL     1      11.718  -3.193  -1.692  1.00  0.00    -0.274 OA
HETATM   23  N   UNL     1      12.538  -1.100  -1.711  1.00  0.00    -0.360 N 
HETATM   24  C   UNL     1      13.497  -0.222  -2.340  1.00  0.00     0.136 C 
HETATM   25  H   UNL     1      12.660  -1.270  -0.717  1.00  0.00     0.162 HD
ENDBRANCH  15  18
ENDBRANCH   1  14
TORSDOF 7
