REMARK  2 active torsions:
REMARK  status: ('A' for Active; 'I' for Inactive)
REMARK    1  A    between atoms: C_2  and  N_8 
REMARK       I    between atoms: N_8  and  C_9 
REMARK       I    between atoms: C_9  and  N_11 
REMARK    2  A    between atoms: N_11  and  C_12 
ROOT
HETATM    1  N   UNL     1       3.278   0.353   1.402  1.00  0.00    -0.334 N 
HETATM    2  C   UNL     1       3.060  -0.424   2.531  1.00  0.00     0.322 C 
HETATM    3  O   UNL     1       2.340  -1.414   2.509  1.00  0.00    -0.247 OA
HETATM    4  N   UNL     1       3.766   0.032   3.614  1.00  0.00    -0.289 N 
HETATM    5  H   UNL     1       3.475   1.326   1.587  1.00  0.00     0.165 HD
HETATM    6  H   UNL     1       4.630   0.524   3.468  1.00  0.00     0.172 HD
ENDROOT
BRANCH   1   7
HETATM    7  C   UNL     1       2.617   0.038   0.110  1.00  0.00     0.035 C 
HETATM    8  C   UNL     1       1.083   0.142   0.269  1.00  0.00     0.039 C 
HETATM    9  C   UNL     1       3.083   1.062  -0.951  1.00  0.00     0.057 C 
HETATM   10  C   UNL     1       2.679   0.651  -2.365  1.00  0.00     0.170 C 
HETATM   11  O   UNL     1       3.172  -0.648  -2.675  1.00  0.00    -0.391 OA
HETATM   12  C   UNL     1       2.647  -1.648  -1.806  1.00  0.00     0.170 C 
HETATM   13  C   UNL     1       3.044  -1.371  -0.366  1.00  0.00     0.057 C 
ENDBRANCH   1   7
BRANCH   4  14
HETATM   14  C   UNL     1       3.565  -0.555   4.836  1.00  0.00     0.152 A 
HETATM   15  N   UNL     1       2.537  -1.257   5.237  1.00  0.00    -0.346 N 
HETATM   16  C   UNL     1       2.763  -1.719   6.514  1.00  0.00     0.097 A 
ATOM     17  HN  UNL     1       1.696  -1.435   4.688  1.00  0.00     0.167 HD
HETATM   18  C   UNL     1       3.955  -1.321   7.082  1.00  0.00     0.070 A 
HETATM   19  S   UNL     1       4.813  -0.321   5.977  1.00  0.00    -0.064 SA
ENDBRANCH   4  14
TORSDOF 2
