REMARK  8 active torsions:
REMARK  status: ('A' for Active; 'I' for Inactive)
REMARK    1  A    between atoms: N_2  and  C_10 
REMARK    2  A    between atoms: C_4  and  N_5 
REMARK    3  A    between atoms: C_9  and  C_21 
REMARK    4  A    between atoms: C_16  and  C_25 
REMARK    5  A    between atoms: C_16  and  C_26 
REMARK    6  A    between atoms: C_21  and  C_29 
REMARK    7  A    between atoms: C_25  and  O_27 
REMARK    8  A    between atoms: C_26  and  O_28 
ROOT
HETATM    1  C   UNL     1       0.504  -0.653  -0.003  1.00  0.00     0.122 A 
HETATM    2  N   UNL     1       1.793   1.119  -0.043  1.00  0.00    -0.322 N 
HETATM    3  C   UNL     1       0.485   0.734   0.113  1.00  0.00     0.140 A 
HETATM    4  C   UNL     1      -0.731  -1.355   0.132  1.00  0.00     0.136 A 
HETATM    5  N   UNL     1       1.801  -1.102  -0.198  1.00  0.00    -0.346 N 
ATOM      6  HN  UNL     1       2.113  -2.067  -0.310  1.00  0.00     0.167 HD
HETATM    7  C   UNL     1       2.541  -0.018  -0.207  1.00  0.00     0.185 A 
HETATM    8  N   UNL     1      -0.589   1.510   0.338  1.00  0.00    -0.336 N 
ATOM      9  HN  UNL     1      -0.563   2.527   0.408  1.00  0.00     0.168 HD
HETATM   10  N   UNL     1      -1.828  -0.580   0.383  1.00  0.00    -0.337 N 
ATOM     11  HN  UNL     1      -2.741  -1.015   0.513  1.00  0.00     0.168 HD
HETATM   12  C   UNL     1      -1.703   0.764   0.459  1.00  0.00     0.183 A 
ENDROOT
BRANCH   4  13
HETATM   13  N   UNL     1      -0.876  -2.744   0.088  1.00  0.00    -0.350 N 
HETATM   14  C   UNL     1      -2.216  -3.328   0.398  1.00  0.00     0.178 C 
HETATM   15  C   UNL     1      -2.053  -4.807   0.830  1.00  0.00     0.240 C 
HETATM   16  O   UNL     1      -2.761  -5.350   1.678  1.00  0.00    -0.271 OA
HETATM   17  N   UNL     1      -1.160  -5.570   0.107  1.00  0.00    -0.358 N 
HETATM   18  C   UNL     1       0.067  -4.975  -0.391  1.00  0.00     0.142 C 
HETATM   19  H   UNL     1      -1.111  -6.523   0.448  1.00  0.00     0.162 HD
HETATM   20  C   UNL     1      -0.056  -3.513  -0.856  1.00  0.00     0.145 C 
BRANCH  14  21
HETATM   21  C   UNL     1      -3.161  -3.280  -0.829  1.00  0.00     0.039 C 
BRANCH  21  22
HETATM   22  C   UNL     1      -4.573  -3.871  -0.605  1.00  0.00    -0.020 C 
HETATM   23  C   UNL     1      -5.381  -3.113   0.447  1.00  0.00     0.009 C 
HETATM   24  C   UNL     1      -5.347  -3.890  -1.927  1.00  0.00     0.009 C 
ENDBRANCH  21  22
ENDBRANCH  14  21
ENDBRANCH   4  13
BRANCH   2  25
HETATM   25  C   UNL     1       2.419   2.415  -0.029  1.00  0.00     0.094 C 
HETATM   26  C   UNL     1       2.176   3.253   1.264  1.00  0.00     0.039 C 
HETATM   27  C   UNL     1       2.284   4.531   0.355  1.00  0.00     0.006 C 
HETATM   28  C   UNL     1       1.705   3.584  -0.764  1.00  0.00     0.039 C 
BRANCH  27  29
HETATM   29  C   UNL     1       1.382   5.681   0.806  1.00  0.00     0.175 C 
BRANCH  29  30
HETATM   30  O   UNL     1       1.228   6.629  -0.247  1.00  0.00    -0.400 OA
HETATM   31  H   UNL     1       2.128   6.907  -0.517  1.00  0.00     0.209 HD
ENDBRANCH  29  30
ENDBRANCH  27  29
BRANCH  27  32
HETATM   32  C   UNL     1       3.733   5.022   0.171  1.00  0.00     0.175 C 
BRANCH  32  33
HETATM   33  O   UNL     1       3.817   5.857  -0.980  1.00  0.00    -0.400 OA
HETATM   34  H   UNL     1       3.815   5.277  -1.764  1.00  0.00     0.209 HD
ENDBRANCH  32  33
ENDBRANCH  27  32
ENDBRANCH   2  25
TORSDOF 8
