REMARK  7 active torsions:
REMARK  status: ('A' for Active; 'I' for Inactive)
REMARK    1  A    between atoms: C_5  and  O_6 
REMARK    2  A    between atoms: O_6  and  C_7 
REMARK    3  A    between atoms: C_7  and  C_8 
REMARK    4  A    between atoms: C_8  and  N_9 
REMARK    5  A    between atoms: C_10  and  C_11 
REMARK    6  A    between atoms: C_11  and  N_12 
REMARK    7  A    between atoms: N_12  and  C_13 
ROOT
HETATM    1  N   UNL     1       9.719  -2.007  -1.007  1.00  0.00    -0.331 N 
HETATM    2  C   UNL     1      11.089  -2.081  -1.189  1.00  0.00     0.102 A 
HETATM    3  N   UNL     1      11.496  -3.336  -1.167  1.00  0.00    -0.343 N 
ATOM      4  HN  UNL     1      12.458  -3.670  -1.220  1.00  0.00     0.167 HD
HETATM    5  C   UNL     1      10.364  -4.098  -1.059  1.00  0.00     0.060 A 
HETATM    6  C   UNL     1      10.236  -5.497  -1.061  1.00  0.00     0.032 A 
HETATM    7  C   UNL     1       8.961  -6.059  -0.950  1.00  0.00     0.002 A 
HETATM    8  C   UNL     1       7.836  -5.244  -0.830  1.00  0.00     0.002 A 
HETATM    9  C   UNL     1       7.944  -3.846  -0.824  1.00  0.00     0.032 A 
HETATM   10  C   UNL     1       9.232  -3.296  -0.948  1.00  0.00     0.062 A 
ENDROOT
BRANCH   1  11
HETATM   11  C   UNL     1       8.922  -0.793  -0.927  1.00  0.00     0.157 C 
BRANCH  11  12
HETATM   12  C   UNL     1       9.203   0.017   0.336  1.00  0.00     0.196 C 
BRANCH  12  13
HETATM   13  O   UNL     1       8.374   1.184   0.375  1.00  0.00    -0.350 OA
BRANCH  13  14
HETATM   14  C   UNL     1       8.686   2.058   1.388  1.00  0.00     0.068 A 
HETATM   15  C   UNL     1       8.425   3.407   1.136  1.00  0.00     0.038 A 
HETATM   16  C   UNL     1       8.680   4.373   2.116  1.00  0.00     0.026 A 
HETATM   17  C   UNL     1       9.186   3.984   3.355  1.00  0.00     0.034 A 
HETATM   18 CL   UNL     1       9.480   5.162   4.573  1.00  0.00    -0.084 Cl
HETATM   19  C   UNL     1       9.446   2.642   3.617  1.00  0.00     0.026 A 
HETATM   20  C   UNL     1       9.193   1.679   2.635  1.00  0.00     0.038 A 
ENDBRANCH  13  14
ENDBRANCH  12  13
ENDBRANCH  11  12
ENDBRANCH   1  11
BRANCH   2  21
HETATM   21  C   UNL     1      11.993  -0.911  -1.400  1.00  0.00     0.198 C 
BRANCH  21  22
HETATM   22  N   UNL     1      12.515  -0.474  -0.125  1.00  0.00    -0.361 N 
HETATM   23  H   UNL     1      12.727  -1.179   0.570  1.00  0.00     0.162 HD
BRANCH  22  24
HETATM   24  C   UNL     1      13.040   0.784   0.014  1.00  0.00     0.348 C 
HETATM   25  O   UNL     1      13.016   1.656  -0.840  1.00  0.00    -0.284 OA
ENDBRANCH  22  24
ENDBRANCH  21  22
ENDBRANCH   2  21
TORSDOF 7
