REMARK  2 active torsions:
REMARK  status: ('A' for Active; 'I' for Inactive)
REMARK    1  A    between atoms: C_7  and  N_8 
REMARK       I    between atoms: N_8  and  C_9 
REMARK    2  A    between atoms: C_9  and  C_11 
ROOT
HETATM    1 CL   UNL     1       1.101   0.145   0.095  1.00  0.00    -0.081 Cl
HETATM    2  C   UNL     1       2.821   0.127  -0.021  1.00  0.00     0.073 A 
HETATM    3  C   UNL     1       3.456  -1.098  -0.151  1.00  0.00     0.113 A 
HETATM    4  N   UNL     1       4.791  -1.238  -0.249  1.00  0.00    -0.371 N 
ATOM      5  HN  UNL     1       5.225  -2.156  -0.342  1.00  0.00     0.164 HD
HETATM    6  C   UNL     1       5.534  -0.104  -0.218  1.00  0.00     0.119 A 
HETATM    7  C   UNL     1       5.017   1.185  -0.090  1.00  0.00     0.074 A 
HETATM    8  C   UNL     1       3.617   1.281   0.008  1.00  0.00     0.085 A 
HETATM    9 CL   UNL     1       2.882   2.850   0.172  1.00  0.00    -0.080 Cl
ENDROOT
BRANCH   7  10
HETATM   10  N   UNL     1       5.826   2.359  -0.052  1.00  0.00    -0.322 N 
HETATM   11  C   UNL     1       7.200   2.394  -0.117  1.00  0.00     0.251 C 
HETATM   12  O   UNL     1       7.931   1.409  -0.228  1.00  0.00    -0.270 OA
HETATM   13  H   UNL     1       5.351   3.258   0.043  1.00  0.00     0.169 HD
BRANCH  11  14
HETATM   14  C   UNL     1       7.834   3.788  -0.026  1.00  0.00     0.213 C 
HETATM   15  C   UNL     1       8.761   3.853   1.180  1.00  0.00     0.044 C 
HETATM   16  C   UNL     1       8.850   5.327   1.507  1.00  0.00     0.029 C 
HETATM   17  C   UNL     1       7.883   5.980   0.538  1.00  0.00     0.168 C 
HETATM   18  O   UNL     1       6.992   4.930   0.114  1.00  0.00    -0.376 OA
ENDBRANCH  11  14
ENDBRANCH   7  10
TORSDOF 2
