REMARK  6 active torsions:
REMARK  status: ('A' for Active; 'I' for Inactive)
REMARK    1  A    between atoms: C_2  and  C_3 
REMARK    2  A    between atoms: C_2  and  N_13 
REMARK    3  A    between atoms: C_3  and  C_4 
REMARK       I    between atoms: N_13  and  C_14 
REMARK    4  A    between atoms: C_14  and  C_16 
REMARK    5  A    between atoms: C_16  and  C_17 
REMARK    6  A    between atoms: C_17  and  C_18 
ROOT
HETATM    1  C   UNL     1       1.034  -0.205   0.117  1.00  0.00     0.032 C 
HETATM    2  C   UNL     1       2.554  -0.054  -0.041  1.00  0.00     0.084 C 
ENDROOT
BRANCH   2   3
HETATM    3  C   UNL     1       2.915   1.155  -0.932  1.00  0.00     0.067 C 
BRANCH   3   4
HETATM    4  C   UNL     1       2.419   1.078  -2.340  1.00  0.00    -0.009 A 
HETATM    5  C   UNL     1       3.052   0.449  -3.447  1.00  0.00     0.030 A 
HETATM    6  C   UNL     1       4.333  -0.305  -3.489  1.00  0.00     0.070 C 
HETATM    7  N   UNL     1       2.357   0.621  -4.576  1.00  0.00    -0.303 N 
HETATM    8  N   UNL     1       1.311   1.379  -4.210  1.00  0.00    -0.300 N 
ATOM      9  HN  UNL     1       2.573   0.259  -5.505  1.00  0.00     0.186 HD
HETATM   10  C   UNL     1       0.383   1.824  -5.222  1.00  0.00     0.177 C 
HETATM   11  C   UNL     1       1.283   1.666  -2.871  1.00  0.00     0.032 A 
HETATM   12  C   UNL     1       0.227   2.479  -2.214  1.00  0.00     0.070 C 
ENDBRANCH   3   4
ENDBRANCH   2   3
BRANCH   2  13
HETATM   13  N   UNL     1       3.124   0.046   1.313  1.00  0.00    -0.357 N 
HETATM   14  C   UNL     1       4.430   0.386   1.592  1.00  0.00     0.217 C 
HETATM   15  O   UNL     1       5.263   0.727   0.762  1.00  0.00    -0.274 OA
HETATM   16  H   UNL     1       2.637  -0.470   2.035  1.00  0.00     0.162 HD
BRANCH  14  17
HETATM   17  C   UNL     1       4.773   0.310   3.061  1.00  0.00     0.103 C 
BRANCH  17  18
HETATM   18  C   UNL     1       4.908  -1.143   3.501  1.00  0.00     0.014 C 
BRANCH  18  19
HETATM   19  C   UNL     1       5.378  -1.275   4.947  1.00  0.00    -0.014 C 
HETATM   20  C   UNL     1       5.482  -2.743   5.385  1.00  0.00     0.004 C 
HETATM   21  C   UNL     1       4.981  -2.797   6.827  1.00  0.00     0.000 C 
HETATM   22  C   UNL     1       4.788  -1.351   7.257  1.00  0.00     0.000 C 
HETATM   23  C   UNL     1       4.436  -0.635   5.966  1.00  0.00     0.004 C 
ENDBRANCH  18  19
ENDBRANCH  17  18
ENDBRANCH  14  17
ENDBRANCH   2  13
TORSDOF 6
