REMARK  5 active torsions:
REMARK  status: ('A' for Active; 'I' for Inactive)
REMARK    1  A    between atoms: C_2  and  C_3 
REMARK    2  A    between atoms: C_2  and  N_16 
REMARK       I    between atoms: C_3  and  N_5 
REMARK    3  A    between atoms: N_5  and  C_6 
REMARK    4  A    between atoms: C_6  and  C_7 
REMARK    5  A    between atoms: C_7  and  N_10 
ROOT
HETATM    1  C   UNL     1       1.720  -0.472  -1.735  1.00  0.00     0.242 C 
HETATM    2  O   UNL     1       0.791   0.120  -2.276  1.00  0.00    -0.271 OA
HETATM    3  N   UNL     1       2.939  -0.677  -2.358  1.00  0.00    -0.357 N 
HETATM    4  H   UNL     1       3.743  -0.954  -1.803  1.00  0.00     0.162 HD
ENDROOT
BRANCH   3   5
HETATM    5  C   UNL     1       3.157  -0.324  -3.756  1.00  0.00     0.163 C 
BRANCH   5   6
HETATM    6  C   UNL     1       2.668  -1.409  -4.801  1.00  0.00     0.168 C 
HETATM    7  C   UNL     1       3.443  -2.713  -4.465  1.00  0.00     0.050 C 
HETATM    8  C   UNL     1       1.175  -1.718  -4.583  1.00  0.00     0.050 C 
BRANCH   6   9
HETATM    9  N   UNL     1       3.010  -0.985  -6.193  1.00  0.00     0.103 N 
HETATM   10  C   UNL     1       2.555   0.350  -6.641  1.00  0.00     0.299 C 
HETATM   11  C   UNL     1       1.131   0.395  -7.218  1.00  0.00     0.198 C 
HETATM   12  O   UNL     1       0.987  -0.522  -8.310  1.00  0.00    -0.388 OA
HETATM   13  C   UNL     1       1.319  -1.854  -7.906  1.00  0.00     0.198 C 
HETATM   14  C   UNL     1       2.730  -1.937  -7.293  1.00  0.00     0.299 C 
ENDBRANCH   6   9
ENDBRANCH   5   6
ENDBRANCH   3   5
BRANCH   1  15
HETATM   15  C   UNL     1       1.624  -1.023  -0.325  1.00  0.00     0.196 C 
HETATM   16  C   UNL     1       0.172  -1.291   0.072  1.00  0.00     0.044 C 
BRANCH  15  17
HETATM   17  N   UNL     1       2.263  -0.090   0.580  1.00  0.00    -0.273 N 
HETATM   18  C   UNL     1       2.001   1.235   0.736  1.00  0.00     0.202 A 
HETATM   19  N   UNL     1       2.840   1.746   1.602  1.00  0.00    -0.346 N 
HETATM   20  C   UNL     1       3.612   0.674   1.948  1.00  0.00     0.198 A 
ATOM     21  HN  UNL     1       2.902   2.708   1.936  1.00  0.00     0.167 HD
HETATM   22  N   UNL     1       3.307  -0.473   1.335  1.00  0.00    -0.292 N 
ATOM     23  HN  UNL     1       3.747  -1.390   1.417  1.00  0.00     0.188 HD
ENDBRANCH  15  17
ENDBRANCH   1  15
TORSDOF 5
