REMARK  4 active torsions:
REMARK  status: ('A' for Active; 'I' for Inactive)
REMARK    1  A    between atoms: C_2  and  C_4 
REMARK    2  A    between atoms: N_9  and  C_10 
REMARK    3  A    between atoms: C_10  and  C_11 
REMARK       I    between atoms: C_11  and  N_13 
REMARK    4  A    between atoms: N_13  and  C_14 
ROOT
HETATM    1  C   UNL     1       0.972  -1.590   1.558  1.00  0.00     0.236 C 
HETATM    2  O   UNL     1       0.741  -0.553   0.951  1.00  0.00    -0.272 OA
HETATM    3  N   UNL     1       0.641  -1.754   2.889  1.00  0.00    -0.346 N 
HETATM    4  H   UNL     1       0.882  -2.612   3.364  1.00  0.00     0.163 HD
ENDROOT
BRANCH   1   5
HETATM    5  C   UNL     1       1.667  -2.756   0.898  1.00  0.00     0.232 C 
BRANCH   5   6
HETATM    6  N   UNL     1       0.754  -3.706   0.287  1.00  0.00    -0.336 N 
HETATM    7  C   UNL     1       0.222  -3.693  -0.987  1.00  0.00     0.087 A 
HETATM    8  N   UNL     1      -0.476  -4.796  -1.196  1.00  0.00    -0.354 N 
HETATM    9  C   UNL     1      -0.375  -5.545  -0.062  1.00  0.00     0.106 A 
ATOM     10  HN  UNL     1      -0.991  -5.039  -2.042  1.00  0.00     0.166 HD
HETATM   11  C   UNL     1       0.378  -4.888   0.877  1.00  0.00     0.110 A 
BRANCH   7  12
HETATM   12  C   UNL     1       0.362  -2.595  -2.010  1.00  0.00     0.045 C 
HETATM   13  C   UNL     1       0.822  -3.176  -3.357  1.00  0.00     0.017 C 
HETATM   14  C   UNL     1      -0.976  -1.865  -2.159  1.00  0.00     0.017 C 
ENDBRANCH   7  12
ENDBRANCH   5   6
ENDBRANCH   1   5
BRANCH   3  15
HETATM   15  C   UNL     1       0.080  -0.666   3.707  1.00  0.00     0.176 C 
HETATM   16  C   UNL     1      -1.289  -0.220   3.199  1.00  0.00     0.035 C 
HETATM   17  C   UNL     1      -1.967   0.780   4.129  1.00  0.00     0.004 C 
HETATM   18  C   UNL     1      -1.570   2.226   3.847  1.00  0.00     0.020 C 
HETATM   19  C   UNL     1      -0.138   2.422   3.371  1.00  0.00     0.122 C 
HETATM   20  N   UNL     1       0.853   1.724   4.160  1.00  0.00    -0.359 N 
HETATM   21  C   UNL     1       1.169   0.400   4.018  1.00  0.00     0.240 C 
HETATM   22  H   UNL     1       1.686   2.260   4.378  1.00  0.00     0.162 HD
HETATM   23  O   UNL     1       2.330   0.062   4.280  1.00  0.00    -0.271 OA
ENDBRANCH   3  15
TORSDOF 4
