REMARK  4 active torsions:
REMARK  status: ('A' for Active; 'I' for Inactive)
REMARK    1  A    between atoms: C_6  and  C_8 
REMARK       I    between atoms: C_8  and  N_10 
REMARK    2  A    between atoms: N_10  and  C_11 
REMARK    3  A    between atoms: C_11  and  C_12 
REMARK    4  A    between atoms: C_12  and  C_13 
ROOT
HETATM    1  C   UNL     1       3.043  -3.169  -2.125  1.00  0.00     0.221 C 
HETATM    2  O   UNL     1       3.625  -3.859  -1.292  1.00  0.00    -0.273 OA
HETATM    3  N   UNL     1       2.741  -3.641  -3.382  1.00  0.00    -0.360 N 
HETATM    4  H   UNL     1       2.137  -3.104  -3.993  1.00  0.00     0.162 HD
ENDROOT
BRANCH   3   5
HETATM    5  C   UNL     1       3.069  -4.997  -3.793  1.00  0.00     0.130 C 
BRANCH   5   6
HETATM    6  C   UNL     1       2.047  -6.028  -3.308  1.00  0.00     0.097 C 
BRANCH   6   7
HETATM    7  C   UNL     1       0.708  -5.796  -3.910  1.00  0.00     0.098 A 
HETATM    8  N   UNL     1       0.404  -5.727  -5.189  1.00  0.00    -0.288 N 
HETATM    9  N   UNL     1      -0.945  -5.480  -5.293  1.00  0.00    -0.295 N 
ATOM     10  HN  UNL     1       1.055  -5.837  -5.967  1.00  0.00     0.188 HD
HETATM   11  C   UNL     1      -1.432  -5.412  -4.077  1.00  0.00     0.198 A 
ATOM     12  HN  UNL     1      -1.472  -5.370  -6.159  1.00  0.00     0.187 HD
HETATM   13  N   UNL     1      -0.432  -5.604  -3.175  1.00  0.00    -0.340 N 
HETATM   14  H   UNL     1      -0.510  -5.603  -2.167  1.00  0.00     0.168 HD
ENDBRANCH   6   7
ENDBRANCH   5   6
ENDBRANCH   3   5
BRANCH   1  15
HETATM   15  C   UNL     1       2.513  -1.764  -1.830  1.00  0.00     0.078 C 
HETATM   16  C   UNL     1       3.043  -0.722  -2.824  1.00  0.00     0.014 C 
HETATM   17  C   UNL     1       2.567   0.690  -2.487  1.00  0.00     0.001 C 
HETATM   18  C   UNL     1       2.889   1.077  -1.045  1.00  0.00     0.004 C 
HETATM   19  C   UNL     1       2.378   0.054  -0.024  1.00  0.00    -0.018 C 
HETATM   20  C   UNL     1       0.855   0.106   0.126  1.00  0.00     0.010 C 
HETATM   21  C   UNL     1       2.862  -1.355  -0.388  1.00  0.00     0.018 C 
ENDBRANCH   1  15
TORSDOF 4
