REMARK  4 active torsions:
REMARK  status: ('A' for Active; 'I' for Inactive)
REMARK    1  A    between atoms: C_7  and  N_8 
REMARK       I    between atoms: N_8  and  C_9 
REMARK    2  A    between atoms: C_9  and  C_11 
REMARK    3  A    between atoms: C_11  and  N_12 
REMARK    4  A    between atoms: C_16  and  C_19 
ROOT
HETATM    1  C   UNL     1       2.566  -3.572   2.730  1.00  0.00     0.234 C 
ENDROOT
BRANCH   1   2
HETATM    2  C   UNL     1       3.094  -2.453   1.835  1.00  0.00     0.236 C 
HETATM    3  N   UNL     1       2.608  -2.476   0.540  1.00  0.00    -0.355 N 
HETATM    4  H   UNL     1       1.746  -2.998   0.384  1.00  0.00     0.162 HD
HETATM    5  O   UNL     1       3.865  -1.595   2.257  1.00  0.00    -0.272 OA
BRANCH   3   6
HETATM    6  C   UNL     1       2.997  -1.464  -0.433  1.00  0.00     0.088 C 
HETATM    7  C   UNL     1       2.201  -0.148  -0.277  1.00  0.00     0.004 C 
HETATM    8  C   UNL     1       0.684  -0.337  -0.402  1.00  0.00     0.012 C 
HETATM    9  C   UNL     1       2.713   0.883  -1.297  1.00  0.00     0.006 C 
HETATM   10  C   UNL     1       2.692   0.363  -2.735  1.00  0.00     0.001 C 
HETATM   11  C   UNL     1       3.417  -0.973  -2.874  1.00  0.00     0.002 C 
HETATM   12  C   UNL     1       2.927  -2.011  -1.864  1.00  0.00     0.025 C 
ENDBRANCH   3   6
ENDBRANCH   1   2
BRANCH   1  13
HETATM   13  N   UNL     1       1.382  -3.156   3.476  1.00  0.00    -0.315 N 
HETATM   14  C   UNL     1       1.531  -2.594   4.730  1.00  0.00     0.095 C 
HETATM   15  C   UNL     1       0.464  -2.246   5.456  1.00  0.00     0.018 C 
HETATM   16  C   UNL     1      -0.858  -2.496   4.943  1.00  0.00     0.023 C 
HETATM   17  C   UNL     1      -1.049  -3.020   3.717  1.00  0.00     0.115 C 
HETATM   18  C   UNL     1       0.135  -3.319   2.869  1.00  0.00     0.263 C 
HETATM   19  O   UNL     1       0.027  -3.693   1.704  1.00  0.00    -0.267 OA
BRANCH  17  20
HETATM   20  C   UNL     1      -2.396  -3.355   3.192  1.00  0.00     0.422 C 
HETATM   21  F   UNL     1      -2.442  -3.927   1.966  1.00  0.00    -0.166 F 
HETATM   22  F   UNL     1      -3.035  -4.218   4.033  1.00  0.00    -0.166 F 
HETATM   23  F   UNL     1      -3.188  -2.249   3.131  1.00  0.00    -0.166 F 
ENDBRANCH  17  20
ENDBRANCH   1  13
TORSDOF 4
