REMARK  6 active torsions:
REMARK  status: ('A' for Active; 'I' for Inactive)
REMARK    1  A    between atoms: C_2  and  N_3 
REMARK    2  A    between atoms: N_6  and  C_7 
REMARK    3  A    between atoms: C_7  and  C_8 
REMARK    4  A    between atoms: C_8  and  O_9 
REMARK    5  A    between atoms: C_8  and  C_10 
REMARK    6  A    between atoms: C_10  and  N_11 
ROOT
HETATM    1  C   UNL     1       4.231  -2.976   3.532  1.00  0.00     0.167 C 
ENDROOT
BRANCH   1   2
HETATM    2  N   UNL     1       3.478  -2.551   2.369  1.00  0.00    -0.295 N 
HETATM    3  C   UNL     1       3.695  -1.362   1.623  1.00  0.00     0.330 A 
HETATM    4  N   UNL     1       2.670  -1.300   0.658  1.00  0.00    -0.298 N 
HETATM    5  O   UNL     1       4.585  -0.538   1.768  1.00  0.00    -0.246 OA
HETATM    6  C   UNL     1       1.880  -2.449   0.761  1.00  0.00     0.065 A 
HETATM    7  C   UNL     1       2.388  -3.233   1.799  1.00  0.00     0.066 A 
HETATM    8  C   UNL     1       0.781  -2.835   0.019  1.00  0.00     0.032 A 
HETATM    9  C   UNL     1       1.827  -4.453   2.121  1.00  0.00     0.032 A 
HETATM   10  C   UNL     1       0.722  -4.870   1.366  1.00  0.00     0.002 A 
HETATM   11  C   UNL     1       0.203  -4.069   0.330  1.00  0.00     0.002 A 
BRANCH   4  12
HETATM   12  C   UNL     1       2.378  -0.130  -0.126  1.00  0.00     0.130 C 
HETATM   13  C   UNL     1       1.388   0.786   0.581  1.00  0.00     0.027 C 
ENDBRANCH   4  12
ENDBRANCH   1   2
BRANCH   1  14
HETATM   14  C   UNL     1       4.640  -1.811   4.457  1.00  0.00     0.164 C 
BRANCH  14  15
HETATM   15  O   UNL     1       3.477  -1.256   5.084  1.00  0.00    -0.392 OA
HETATM   16  H   UNL     1       3.819  -0.749   5.847  1.00  0.00     0.210 HD
ENDBRANCH  14  15
BRANCH  14  17
HETATM   17  C   UNL     1       5.623  -2.253   5.556  1.00  0.00     0.305 C 
BRANCH  17  18
HETATM   18  N   UNL     1       6.031  -1.136   6.449  1.00  0.00     0.096 N 
HETATM   19  C   UNL     1       6.775  -0.041   5.770  1.00  0.00     0.303 C 
HETATM   20  C   UNL     1       8.219  -0.405   5.341  1.00  0.00     0.146 C 
HETATM   21  C   UNL     1       8.952   0.818   4.798  1.00  0.00     0.041 C 
HETATM   22  O   UNL     1       8.975  -0.917   6.455  1.00  0.00    -0.378 OA
HETATM   23  C   UNL     1       8.310  -2.050   7.035  1.00  0.00     0.146 C 
HETATM   24  C   UNL     1       9.162  -2.607   8.164  1.00  0.00     0.041 C 
HETATM   25  C   UNL     1       6.906  -1.641   7.538  1.00  0.00     0.303 C 
ENDBRANCH  17  18
ENDBRANCH  14  17
ENDBRANCH   1  14
TORSDOF 6
