REMARK  5 active torsions:
REMARK  status: ('A' for Active; 'I' for Inactive)
REMARK    1  A    between atoms: C_2  and  C_4 
REMARK    2  A    between atoms: C_4  and  C_5 
REMARK    3  A    between atoms: C_5  and  C_6 
REMARK       I    between atoms: C_6  and  N_8 
REMARK    4  A    between atoms: N_8  and  C_9 
REMARK    5  A    between atoms: C_12  and  N_16 
ROOT
HETATM    1  C   UNL     1       6.932   2.251   3.958  1.00  0.00     0.107 A 
HETATM    2  C   UNL     1       6.484   3.550   4.144  1.00  0.00     0.051 A 
HETATM    3  C   UNL     1       7.011   4.296   5.197  1.00  0.00     0.034 A 
HETATM    4  C   UNL     1       7.950   3.746   6.073  1.00  0.00     0.046 A 
HETATM    5  C   UNL     1       8.357   2.447   5.743  1.00  0.00     0.119 A 
HETATM    6  N   UNL     1       7.907   1.703   4.697  1.00  0.00    -0.350 N 
ATOM      7  HN  UNL     1       8.289   0.781   4.487  1.00  0.00     0.166 HD
ENDROOT
BRANCH   1   8
HETATM    8  N   UNL     1       6.391   1.434   2.965  1.00  0.00    -0.313 N 
HETATM    9  C   UNL     1       5.037   1.391   2.723  1.00  0.00     0.223 C 
HETATM   10  O   UNL     1       4.189   1.968   3.405  1.00  0.00    -0.273 OA
HETATM   11  H   UNL     1       6.928   0.596   2.788  1.00  0.00     0.170 HD
BRANCH   9  12
HETATM   12  C   UNL     1       4.660   0.514   1.550  1.00  0.00     0.103 C 
BRANCH  12  13
HETATM   13  C   UNL     1       3.275   0.882   1.001  1.00  0.00     0.013 C 
BRANCH  13  14
HETATM   14  C   UNL     1       3.147   2.348   0.527  1.00  0.00    -0.022 C 
HETATM   15  C   UNL     1       4.091   2.669  -0.630  1.00  0.00     0.009 C 
HETATM   16  C   UNL     1       1.701   2.650   0.135  1.00  0.00     0.009 C 
ENDBRANCH  13  14
ENDBRANCH  12  13
ENDBRANCH   9  12
ENDBRANCH   1   8
BRANCH   4  17
HETATM   17  N   UNL     1       8.435   4.470   7.143  1.00  0.00    -0.376 N 
HETATM   18  C   UNL     1       9.704   4.156   7.818  1.00  0.00     0.149 C 
HETATM   19  C   UNL     1       9.448   3.645   9.242  1.00  0.00     0.187 C 
HETATM   20  O   UNL     1       8.663   4.580   9.998  1.00  0.00    -0.388 OA
HETATM   21  C   UNL     1       7.388   4.786   9.365  1.00  0.00     0.187 C 
HETATM   22  C   UNL     1       7.542   5.339   7.936  1.00  0.00     0.149 C 
ENDBRANCH   4  17
TORSDOF 5
