REMARK  4 active torsions:
REMARK  status: ('A' for Active; 'I' for Inactive)
REMARK    1  A    between atoms: C_4  and  N_5 
REMARK       I    between atoms: N_5  and  C_6 
REMARK       I    between atoms: C_6  and  N_8 
REMARK    2  A    between atoms: N_8  and  C_9 
REMARK    3  A    between atoms: C_9  and  C_10 
REMARK    4  A    between atoms: C_10  and  N_13 
ROOT
HETATM    1  N   UNL     1       6.811   1.981  -1.945  1.00  0.00    -0.293 N 
HETATM    2  C   UNL     1       6.824   3.332  -1.737  1.00  0.00     0.321 C 
HETATM    3  O   UNL     1       6.724   4.088  -2.699  1.00  0.00    -0.247 OA
HETATM    4  N   UNL     1       6.968   3.749  -0.451  1.00  0.00    -0.340 N 
HETATM    5  H   UNL     1       6.735   1.712  -2.913  1.00  0.00     0.172 HD
HETATM    6  H   UNL     1       6.921   3.041   0.277  1.00  0.00     0.164 HD
ENDROOT
BRANCH   4   7
HETATM    7  C   UNL     1       6.983   5.135  -0.055  1.00  0.00     0.165 C 
BRANCH   7   8
HETATM    8  C   UNL     1       8.404   5.802   0.035  1.00  0.00     0.168 C 
HETATM    9  C   UNL     1       9.224   5.000   1.082  1.00  0.00     0.050 C 
HETATM   10  C   UNL     1       9.130   5.703  -1.320  1.00  0.00     0.050 C 
BRANCH   8  11
HETATM   11  N   UNL     1       8.260   7.201   0.534  1.00  0.00     0.103 N 
HETATM   12  C   UNL     1       9.503   7.996   0.655  1.00  0.00     0.299 C 
HETATM   13  C   UNL     1       9.228   9.310   1.417  1.00  0.00     0.198 C 
HETATM   14  O   UNL     1       8.183  10.083   0.812  1.00  0.00    -0.388 OA
HETATM   15  C   UNL     1       6.999   9.291   0.673  1.00  0.00     0.198 C 
HETATM   16  C   UNL     1       7.278   8.047  -0.179  1.00  0.00     0.299 C 
ENDBRANCH   8  11
ENDBRANCH   7   8
ENDBRANCH   4   7
BRANCH   1  17
HETATM   17  C   UNL     1       6.907   0.985  -0.993  1.00  0.00     0.132 A 
HETATM   18  C   UNL     1       6.933  -0.398  -1.275  1.00  0.00     0.084 A 
HETATM   19  C   UNL     1       7.045  -0.996  -0.044  1.00  0.00     0.076 A 
HETATM   20  C   UNL     1       7.143  -2.383   0.433  1.00  0.00     0.079 C 
HETATM   21  O   UNL     1       7.078  -0.040   0.917  1.00  0.00    -0.241 OA
HETATM   22  N   UNL     1       6.987   1.198   0.327  1.00  0.00    -0.245 N 
ATOM     23  HN  UNL     1       6.981   2.101   0.801  1.00  0.00     0.196 HD
ENDBRANCH   1  17
TORSDOF 4
