REMARK  3 active torsions:
REMARK  status: ('A' for Active; 'I' for Inactive)
REMARK       I    between atoms: C_2  and  N_3 
REMARK       I    between atoms: C_2  and  N_13 
REMARK    1  A    between atoms: N_3  and  C_4 
REMARK    2  A    between atoms: N_13  and  C_14 
REMARK    3  A    between atoms: C_17  and  N_21 
ROOT
HETATM    1  O   UNL     1       2.120  -0.422   1.944  1.00  0.00    -0.247 OA
HETATM    2  C   UNL     1       2.800  -0.028   1.004  1.00  0.00     0.321 C 
HETATM    3  N   UNL     1       3.207   1.277   0.859  1.00  0.00    -0.336 N 
HETATM    4  N   UNL     1       3.214  -0.807  -0.052  1.00  0.00    -0.308 N 
HETATM    5  H   UNL     1       3.555   1.541  -0.048  1.00  0.00     0.164 HD
HETATM    6  H   UNL     1       3.369  -0.306  -0.914  1.00  0.00     0.170 HD
ENDROOT
BRANCH   4   7
HETATM    7  C   UNL     1       2.768  -2.131  -0.186  1.00  0.00     0.051 A 
HETATM    8  C   UNL     1       2.335  -2.549  -1.429  1.00  0.00     0.035 A 
HETATM    9  C   UNL     1       1.762  -3.807  -1.546  1.00  0.00     0.051 A 
HETATM   10  C   UNL     1       1.685  -4.657  -0.441  1.00  0.00     0.103 A 
HETATM   11  N   UNL     1       2.191  -4.295   0.753  1.00  0.00    -0.350 N 
HETATM   12  C   UNL     1       2.690  -3.038   0.870  1.00  0.00     0.119 A 
ATOM     13  HN  UNL     1       2.199  -4.942   1.541  1.00  0.00     0.166 HD
BRANCH  10  14
HETATM   14  N   UNL     1       1.126  -5.905  -0.601  1.00  0.00    -0.367 N 
HETATM   15  C   UNL     1       1.533  -7.009   0.254  1.00  0.00     0.124 C 
HETATM   16  C   UNL     1       1.671  -8.237  -0.656  1.00  0.00     0.020 C 
HETATM   17  C   UNL     1       0.410  -8.477  -1.498  1.00  0.00     0.003 C 
HETATM   18  C   UNL     1      -0.046  -7.211  -2.227  1.00  0.00     0.020 C 
HETATM   19  C   UNL     1      -0.169  -6.047  -1.249  1.00  0.00     0.124 C 
ENDBRANCH  10  14
ENDBRANCH   4   7
BRANCH   3  20
HETATM   20  C   UNL     1       2.554   2.320   1.631  1.00  0.00     0.121 C 
HETATM   21  C   UNL     1       2.600   2.108   3.153  1.00  0.00     0.057 C 
HETATM   22  C   UNL     1       2.813   3.497   3.754  1.00  0.00     0.275 C 
HETATM   23  N   UNL     1       2.666   4.406   2.621  1.00  0.00     0.095 N 
HETATM   24  C   UNL     1       3.289   5.709   2.800  1.00  0.00     0.273 C 
HETATM   25  C   UNL     1       3.227   3.682   1.477  1.00  0.00     0.245 C 
HETATM   26  C   UNL     1       3.067   6.554   1.538  1.00  0.00     0.030 C 
HETATM   27  C   UNL     1       3.535   5.833   0.269  1.00  0.00     0.004 C 
HETATM   28  C   UNL     1       2.929   4.430   0.182  1.00  0.00     0.038 C 
ENDBRANCH   3  20
TORSDOF 3
