REMARK  3 active torsions:
REMARK  status: ('A' for Active; 'I' for Inactive)
REMARK    1  A    between atoms: C_8  and  N_9 
REMARK       I    between atoms: N_9  and  C_10 
REMARK       I    between atoms: C_10  and  N_12 
REMARK    2  A    between atoms: N_12  and  C_13 
REMARK    3  A    between atoms: C_13  and  C_14 
ROOT
HETATM    1  N   UNL     1       5.412   2.239  -0.083  1.00  0.00    -0.295 N 
HETATM    2  C   UNL     1       6.766   2.392  -0.098  1.00  0.00     0.321 C 
HETATM    3  O   UNL     1       7.236   3.530  -0.096  1.00  0.00    -0.247 OA
HETATM    4  N   UNL     1       7.535   1.270  -0.092  1.00  0.00    -0.342 N 
HETATM    5  H   UNL     1       4.921   3.120  -0.060  1.00  0.00     0.172 HD
HETATM    6  H   UNL     1       7.041   0.401  -0.270  1.00  0.00     0.164 HD
ENDROOT
BRANCH   1   7
HETATM    7  C   UNL     1       4.660   1.063  -0.065  1.00  0.00     0.109 A 
HETATM    8  N   UNL     1       5.296  -0.125  -0.102  1.00  0.00    -0.346 N 
HETATM    9  C   UNL     1       4.554  -1.253  -0.057  1.00  0.00     0.007 A 
ATOM     10  HN  UNL     1       6.313  -0.171  -0.163  1.00  0.00     0.167 HD
HETATM   11  C   UNL     1       3.167  -1.235   0.009  1.00  0.00     0.031 A 
HETATM   12  C   UNL     1       5.319  -2.540  -0.060  1.00  0.00     0.068 C 
HETATM   13  C   UNL     1       2.507  -0.005   0.028  1.00  0.00    -0.057 A 
HETATM   14  C   UNL     1       1.010   0.059   0.088  1.00  0.00     0.048 C 
HETATM   15  C   UNL     1       3.275   1.162  -0.006  1.00  0.00     0.055 A 
ENDBRANCH   1   7
BRANCH   4  16
HETATM   16  C   UNL     1       8.967   1.346  -0.128  1.00  0.00     0.129 C 
BRANCH  16  17
HETATM   17  C   UNL     1       9.698   0.048   0.062  1.00  0.00     0.003 A 
HETATM   18  C   UNL     1       9.695  -1.026  -1.002  1.00  0.00     0.007 A 
HETATM   19  C   UNL     1       9.054  -1.291   0.331  1.00  0.00     0.007 A 
ENDBRANCH  16  17
ENDBRANCH   4  16
TORSDOF 3
