REMARK  4 active torsions:
REMARK  status: ('A' for Active; 'I' for Inactive)
REMARK    1  A    between atoms: C_2  and  C_4 
REMARK    2  A    between atoms: C_4  and  N_5 
REMARK       I    between atoms: N_5  and  C_6 
REMARK    3  A    between atoms: C_6  and  C_8 
REMARK    4  A    between atoms: C_8  and  C_9 
ROOT
HETATM    1  C   UNL     1       7.146   4.038   0.481  1.00  0.00     0.041 C 
HETATM    2  C   UNL     1       7.278   4.926  -0.525  1.00  0.00     0.018 C 
HETATM    3  C   UNL     1       6.712   4.705  -1.905  1.00  0.00     0.069 C 
HETATM    4  N   UNL     1       7.947   6.126  -0.403  1.00  0.00    -0.349 N 
ATOM      5  HN  UNL     1       7.995   6.783  -1.182  1.00  0.00     0.167 HD
HETATM    6  C   UNL     1       8.510   6.392   0.727  1.00  0.00     0.080 C 
HETATM    7  C   UNL     1       9.308   7.653   0.912  1.00  0.00     0.089 C 
HETATM    8  N   UNL     1       8.434   5.575   1.815  1.00  0.00    -0.313 N 
HETATM    9  C   UNL     1       7.681   4.442   1.805  1.00  0.00     0.255 C 
HETATM   10  O   UNL     1       7.457   3.793   2.822  1.00  0.00    -0.268 OA
HETATM   11  H   UNL     1       8.818   5.854   2.705  1.00  0.00     0.170 HD
ENDROOT
BRANCH   1  12
HETATM   12  C   UNL     1       6.564   2.658   0.411  1.00  0.00     0.149 C 
BRANCH  12  13
HETATM   13  C   UNL     1       5.079   2.679   0.719  1.00  0.00     0.222 C 
HETATM   14  N   UNL     1       4.771   2.434   2.038  1.00  0.00    -0.360 N 
HETATM   15  H   UNL     1       5.528   2.387   2.714  1.00  0.00     0.162 HD
HETATM   16  O   UNL     1       4.237   2.899  -0.147  1.00  0.00    -0.273 OA
BRANCH  14  17
HETATM   17  C   UNL     1       3.407   2.399   2.523  1.00  0.00     0.126 C 
BRANCH  17  18
HETATM   18  C   UNL     1       2.796   0.989   2.479  1.00  0.00    -0.005 C 
HETATM   19  C   UNL     1       3.555   0.018   3.387  1.00  0.00     0.011 C 
HETATM   20  C   UNL     1       1.324   1.043   2.896  1.00  0.00     0.011 C 
ENDBRANCH  17  18
ENDBRANCH  14  17
ENDBRANCH  12  13
ENDBRANCH   1  12
TORSDOF 4
