REMARK  8 active torsions:
REMARK  status: ('A' for Active; 'I' for Inactive)
REMARK    1  A    between atoms: N_2  and  C_3 
REMARK    2  A    between atoms: N_13  and  C_14 
REMARK    3  A    between atoms: C_14  and  C_15 
REMARK    4  A    between atoms: C_15  and  O_16 
REMARK    5  A    between atoms: C_15  and  C_17 
REMARK    6  A    between atoms: C_17  and  N_18 
REMARK    7  A    between atoms: N_18  and  C_20 
REMARK    8  A    between atoms: C_20  and  C_21 
ROOT
HETATM    1  C   UNL     1       3.166  -1.213  -0.704  1.00  0.00     0.112 A 
HETATM    2  N   UNL     1       4.521  -1.207  -0.721  1.00  0.00    -0.341 N 
ATOM      3  HN  UNL     1       5.026  -0.332  -0.863  1.00  0.00     0.167 HD
HETATM    4  C   UNL     1       5.200  -2.355  -0.551  1.00  0.00     0.183 A 
HETATM    5  N   UNL     1       4.703  -3.571  -0.363  1.00  0.00    -0.337 N 
ATOM      6  HN  UNL     1       5.278  -4.406  -0.250  1.00  0.00     0.168 HD
HETATM    7  C   UNL     1       3.359  -3.581  -0.338  1.00  0.00     0.137 A 
HETATM    8  N   UNL     1       2.626  -4.722  -0.187  1.00  0.00    -0.336 N 
ATOM      9  HN  UNL     1       2.972  -5.674  -0.069  1.00  0.00     0.168 HD
HETATM   10  C   UNL     1       1.377  -4.321  -0.227  1.00  0.00     0.185 A 
HETATM   11  N   UNL     1       1.280  -2.965  -0.382  1.00  0.00    -0.335 N 
HETATM   12  C   UNL     1       2.558  -2.451  -0.481  1.00  0.00     0.118 A 
ENDROOT
BRANCH  11  13
HETATM   13  C   UNL     1       0.050  -2.202  -0.397  1.00  0.00     0.163 C 
BRANCH  13  14
HETATM   14  C   UNL     1      -1.278  -2.966  -0.242  1.00  0.00     0.164 C 
BRANCH  14  15
HETATM   15  O   UNL     1      -1.347  -3.617   1.034  1.00  0.00    -0.392 OA
HETATM   16  H   UNL     1      -1.296  -2.943   1.735  1.00  0.00     0.210 HD
ENDBRANCH  14  15
BRANCH  14  17
HETATM   17  C   UNL     1      -2.475  -1.992  -0.359  1.00  0.00     0.305 C 
BRANCH  17  18
HETATM   18  N   UNL     1      -2.511  -1.213  -1.611  1.00  0.00     0.090 N 
HETATM   19  C   UNL     1      -2.700  -2.099  -2.767  1.00  0.00     0.310 C 
BRANCH  18  20
HETATM   20  C   UNL     1      -3.582  -0.198  -1.587  1.00  0.00     0.310 C 
BRANCH  20  21
HETATM   21  C   UNL     1      -3.373   0.890  -0.550  1.00  0.00    -0.030 A 
HETATM   22  C   UNL     1      -2.222   1.693  -0.573  1.00  0.00     0.009 A 
HETATM   23  C   UNL     1      -2.042   2.701   0.378  1.00  0.00     0.001 A 
HETATM   24  C   UNL     1      -3.014   2.922   1.352  1.00  0.00     0.000 A 
HETATM   25  C   UNL     1      -4.164   2.136   1.379  1.00  0.00     0.001 A 
HETATM   26  C   UNL     1      -4.343   1.124   0.434  1.00  0.00     0.009 A 
ENDBRANCH  20  21
ENDBRANCH  18  20
ENDBRANCH  17  18
ENDBRANCH  14  17
ENDBRANCH  13  14
ENDBRANCH  11  13
BRANCH   1  27
HETATM   27  N   UNL     1       2.629   0.024  -1.019  1.00  0.00    -0.281 NA
HETATM   28  C   UNL     1       1.513   0.615  -0.328  1.00  0.00     0.114 C 
HETATM   29  H   UNL     1       3.438   0.646  -1.042  1.00  0.00     0.128 HD
ENDBRANCH   1  27
TORSDOF 8
