REMARK  7 active torsions:
REMARK  status: ('A' for Active; 'I' for Inactive)
REMARK    1  A    between atoms: C_2  and  O_4 
REMARK    2  A    between atoms: O_4  and  C_5 
REMARK    3  A    between atoms: C_5  and  C_6 
REMARK    4  A    between atoms: C_6  and  S_7 
REMARK    5  A    between atoms: S_7  and  C_8 
REMARK    6  A    between atoms: C_11  and  N_12 
REMARK    7  A    between atoms: C_14  and  N_15 
ROOT
HETATM    1  C   UNL     1       7.042   3.094   3.488  1.00  0.00     0.146 A 
HETATM    2  N   UNL     1       8.130   2.889   4.247  1.00  0.00    -0.328 N 
ATOM      3  HN  UNL     1       8.673   2.028   4.183  1.00  0.00     0.169 HD
HETATM    4  C   UNL     1       8.466   3.867   5.088  1.00  0.00     0.082 A 
HETATM    5  C   UNL     1       7.754   5.036   5.184  1.00  0.00     0.084 A 
HETATM    6  C   UNL     1       6.643   5.147   4.378  1.00  0.00     0.082 A 
HETATM    7  N   UNL     1       6.270   4.191   3.524  1.00  0.00    -0.328 N 
ATOM      8  HN  UNL     1       5.445   4.289   2.932  1.00  0.00     0.169 HD
ENDROOT
BRANCH   1   9
HETATM    9  S   UNL     1       6.703   1.827   2.293  1.00  0.00    -0.092 SA
BRANCH   9  10
HETATM   10  C   UNL     1       4.894   1.966   2.133  1.00  0.00     0.108 C 
BRANCH  10  11
HETATM   11  C   UNL     1       4.441   1.000   1.038  1.00  0.00     0.178 C 
BRANCH  11  12
HETATM   12  O   UNL     1       3.027   1.103   0.845  1.00  0.00    -0.386 OA
BRANCH  12  13
HETATM   13  C   UNL     1       2.514   0.156  -0.102  1.00  0.00     0.113 C 
HETATM   14  C   UNL     1       0.993   0.256  -0.066  1.00  0.00     0.039 C 
HETATM   15  C   UNL     1       3.018   0.436  -1.517  1.00  0.00     0.039 C 
ENDBRANCH  12  13
ENDBRANCH  11  12
ENDBRANCH  10  11
ENDBRANCH   9  10
ENDBRANCH   1   9
BRANCH   4  16
HETATM   16  N   UNL     1       9.625   3.672   5.837  1.00  0.00    -0.288 NA
HETATM   17  H   UNL     1       9.967   2.734   5.634  1.00  0.00     0.125 HD
HETATM   18  H   UNL     1       9.472   3.813   6.829  1.00  0.00     0.125 HD
ENDBRANCH   4  16
BRANCH   6  19
HETATM   19  N   UNL     1       5.890   6.321   4.379  1.00  0.00    -0.288 NA
HETATM   20  H   UNL     1       5.601   6.600   5.309  1.00  0.00     0.125 HD
HETATM   21  H   UNL     1       5.099   6.189   3.752  1.00  0.00     0.125 HD
ENDBRANCH   6  19
TORSDOF 7
