REMARK  5 active torsions:
REMARK  status: ('A' for Active; 'I' for Inactive)
REMARK    1  A    between atoms: C_2  and  C_4 
REMARK    2  A    between atoms: C_8  and  C_9 
REMARK    3  A    between atoms: C_9  and  C_10 
REMARK    4  A    between atoms: C_10  and  N_11 
REMARK    5  A    between atoms: N_11  and  C_12 
ROOT
HETATM    1  C   UNL     1       3.767  -4.305  -4.003  1.00  0.00     0.107 A 
HETATM    2  N   UNL     1       3.777  -3.015  -3.646  1.00  0.00    -0.247 N 
ATOM      3  HN  UNL     1       3.393  -2.215  -4.148  1.00  0.00     0.196 HD
HETATM    4  O   UNL     1       4.442  -3.032  -2.417  1.00  0.00    -0.223 OA
HETATM    5  C   UNL     1       4.765  -4.337  -2.165  1.00  0.00     0.149 A 
HETATM    6  N   UNL     1       4.400  -5.149  -3.129  1.00  0.00    -0.327 N 
ATOM      7  HN  UNL     1       4.550  -6.155  -3.208  1.00  0.00     0.169 HD
ENDROOT
BRANCH   5   8
HETATM    8  C   UNL     1       5.489  -4.600  -0.894  1.00  0.00     0.117 C 
BRANCH   8   9
HETATM    9  C   UNL     1       5.085  -5.914  -0.207  1.00  0.00     0.278 C 
BRANCH   9  10
HETATM   10  N   UNL     1       5.522  -7.107  -0.933  1.00  0.00     0.089 N 
HETATM   11  H   UNL     1       6.524  -7.086  -1.115  1.00  0.00     0.316 HD
BRANCH  10  12
HETATM   12  C   UNL     1       5.122  -8.389  -0.331  1.00  0.00     0.229 C 
HETATM   13  C   UNL     1       5.576  -9.536  -1.254  1.00  0.00     0.037 C 
HETATM   14  C   UNL     1       4.903  -9.530  -2.629  1.00  0.00     0.012 C 
HETATM   15  C   UNL     1       3.377  -9.574  -2.603  1.00  0.00     0.074 C 
HETATM   16  S   UNL     1       2.568  -8.369  -1.513  1.00  0.00    -0.167 SA
HETATM   17  C   UNL     1       3.617  -8.561  -0.038  1.00  0.00     0.109 C 
ENDBRANCH  10  12
ENDBRANCH   9  10
ENDBRANCH   8   9
ENDBRANCH   5   8
BRANCH   1  18
HETATM   18  C   UNL     1       3.104  -4.795  -5.248  1.00  0.00     0.047 C 
HETATM   19  C   UNL     1       4.078  -5.559  -6.146  1.00  0.00     0.017 C 
HETATM   20  C   UNL     1       1.895  -5.672  -4.913  1.00  0.00     0.017 C 
ENDBRANCH   1  18
TORSDOF 5
