REMARK  5 active torsions:
REMARK  status: ('A' for Active; 'I' for Inactive)
REMARK    1  A    between atoms: N_7  and  C_8 
REMARK    2  A    between atoms: C_8  and  C_9 
REMARK    3  A    between atoms: C_9  and  N_10 
REMARK       I    between atoms: N_10  and  C_11 
REMARK    4  A    between atoms: C_11  and  C_13 
REMARK    5  A    between atoms: C_13  and  N_14 
ROOT
HETATM    1  N   UNL     1       3.006  -5.005  -3.832  1.00  0.00    -0.358 N 
HETATM    2  C   UNL     1       2.593  -6.080  -3.075  1.00  0.00     0.235 C 
HETATM    3  O   UNL     1       1.908  -5.971  -2.060  1.00  0.00    -0.272 OA
HETATM    4  H   UNL     1       3.470  -5.184  -4.716  1.00  0.00     0.162 HD
ENDROOT
BRANCH   1   5
HETATM    5  C   UNL     1       2.593  -3.646  -3.527  1.00  0.00     0.152 C 
BRANCH   5   6
HETATM    6  C   UNL     1       3.134  -3.122  -2.179  1.00  0.00     0.292 C 
BRANCH   6   7
HETATM    7  N   UNL     1       2.679  -1.757  -1.841  1.00  0.00     0.090 N 
HETATM    8  C   UNL     1       3.186  -0.754  -2.787  1.00  0.00     0.276 C 
HETATM    9  C   UNL     1       2.671   0.655  -2.453  1.00  0.00     0.010 C 
HETATM   10  C   UNL     1       3.019   1.029  -1.008  1.00  0.00     0.012 C 
HETATM   11  C   UNL     1       3.239   1.674  -3.438  1.00  0.00     0.011 C 
HETATM   12  C   UNL     1       2.553  -0.049  -0.021  1.00  0.00     0.010 C 
HETATM   13  C   UNL     1       1.028  -0.057   0.138  1.00  0.00     0.011 C 
HETATM   14  C   UNL     1       3.080  -1.425  -0.461  1.00  0.00     0.276 C 
ENDBRANCH   6   7
ENDBRANCH   5   6
ENDBRANCH   1   5
BRANCH   2  15
HETATM   15  C   UNL     1       3.138  -7.428  -3.531  1.00  0.00     0.234 C 
BRANCH  15  16
HETATM   16  N   UNL     1       4.458  -7.686  -2.959  1.00  0.00    -0.316 N 
HETATM   17  C   UNL     1       4.579  -7.876  -1.590  1.00  0.00     0.095 A 
HETATM   18  C   UNL     1       5.770  -8.128  -1.028  1.00  0.00     0.017 A 
HETATM   19  C   UNL     1       6.941  -8.255  -1.854  1.00  0.00     0.007 A 
HETATM   20  C   UNL     1       6.865  -8.054  -3.176  1.00  0.00     0.074 A 
HETATM   21  C   UNL     1       5.561  -7.693  -3.804  1.00  0.00     0.247 A 
HETATM   22  O   UNL     1       5.523  -7.434  -5.006  1.00  0.00    -0.268 OA
ENDBRANCH  15  16
ENDBRANCH   2  15
TORSDOF 5
