REMARK  4 active torsions:
REMARK  status: ('A' for Active; 'I' for Inactive)
REMARK    1  A    between atoms: C_2  and  N_3 
REMARK    2  A    between atoms: C_2  and  C_16 
REMARK       I    between atoms: N_3  and  C_4 
REMARK    3  A    between atoms: C_4  and  C_6 
REMARK    4  A    between atoms: C_6  and  N_7 
REMARK       I    between atoms: C_16  and  N_18 
ROOT
HETATM    1  N   UNL     1       3.006   1.405   0.188  1.00  0.00    -0.347 N 
HETATM    2  C   UNL     1       3.085   2.227  -0.913  1.00  0.00     0.238 C 
HETATM    3  O   UNL     1       2.892   1.799  -2.054  1.00  0.00    -0.272 OA
HETATM    4  H   UNL     1       3.098   1.818   1.119  1.00  0.00     0.163 HD
ENDROOT
BRANCH   1   5
HETATM    5  C   UNL     1       2.580   0.006   0.066  1.00  0.00     0.172 C 
HETATM    6  C   UNL     1       1.054  -0.074   0.097  1.00  0.00     0.042 C 
BRANCH   5   7
HETATM    7  C   UNL     1       3.199  -0.967   1.115  1.00  0.00     0.242 C 
HETATM    8  O   UNL     1       2.467  -1.601   1.882  1.00  0.00    -0.271 OA
HETATM    9  N   UNL     1       4.574  -1.189   1.091  1.00  0.00    -0.350 N 
HETATM   10  C   UNL     1       5.561  -0.397   0.359  1.00  0.00     0.126 C 
HETATM   11  C   UNL     1       5.138  -2.249   1.931  1.00  0.00     0.126 C 
HETATM   12  C   UNL     1       6.471  -1.285  -0.484  1.00  0.00     0.020 C 
HETATM   13  C   UNL     1       7.100  -2.395   0.353  1.00  0.00     0.003 C 
HETATM   14  C   UNL     1       6.027  -3.180   1.105  1.00  0.00     0.020 C 
ENDBRANCH   5   7
ENDBRANCH   1   5
BRANCH   2  15
HETATM   15  C   UNL     1       3.551   3.656  -0.720  1.00  0.00     0.253 C 
BRANCH  15  16
HETATM   16  N   UNL     1       3.152   4.275   0.526  1.00  0.00    -0.271 N 
HETATM   17  N   UNL     1       3.585   3.758   1.698  1.00  0.00    -0.285 N 
HETATM   18  C   UNL     1       3.164   4.678   2.572  1.00  0.00     0.093 A 
ATOM     19  HN  UNL     1       4.098   2.893   1.870  1.00  0.00     0.188 HD
HETATM   20  C   UNL     1       3.426   4.595   4.021  1.00  0.00     0.090 C 
HETATM   21  N   UNL     1       2.488   5.727   2.017  1.00  0.00    -0.334 N 
HETATM   22  C   UNL     1       2.498   5.465   0.727  1.00  0.00     0.096 A 
ATOM     23  HN  UNL     1       2.072   6.528   2.492  1.00  0.00     0.168 HD
HETATM   24  C   UNL     1       1.929   6.326  -0.336  1.00  0.00     0.091 C 
ENDBRANCH  15  16
ENDBRANCH   2  15
TORSDOF 4
