REMARK  7 active torsions:
REMARK  status: ('A' for Active; 'I' for Inactive)
REMARK    1  A    between atoms: N_1  and  C_9 
REMARK    2  A    between atoms: C_6  and  N_8 
REMARK    3  A    between atoms: C_14  and  C_22 
REMARK    4  A    between atoms: C_14  and  C_23 
REMARK    5  A    between atoms: C_19  and  O_21 
REMARK    6  A    between atoms: C_22  and  O_24 
REMARK    7  A    between atoms: C_23  and  O_25 
ROOT
HETATM    1  N   UNL     1       1.572   1.134  -0.000  1.00  0.00    -0.322 N 
HETATM    2  C   UNL     1       0.317  -0.650  -0.076  1.00  0.00     0.122 A 
HETATM    3  C   UNL     1       0.255   0.744  -0.054  1.00  0.00     0.140 A 
HETATM    4  N   UNL     1       1.627  -1.088  -0.010  1.00  0.00    -0.346 N 
ATOM      5  HN  UNL     1       1.960  -2.052   0.002  1.00  0.00     0.167 HD
HETATM    6  C   UNL     1      -0.900  -1.380  -0.147  1.00  0.00     0.135 A 
HETATM    7  C   UNL     1       2.346   0.005   0.034  1.00  0.00     0.185 A 
HETATM    8  N   UNL     1      -0.857   1.496  -0.074  1.00  0.00    -0.336 N 
ATOM      9  HN  UNL     1      -0.868   2.516  -0.069  1.00  0.00     0.168 HD
HETATM   10  N   UNL     1      -2.045  -0.636  -0.136  1.00  0.00    -0.337 N 
ATOM     11  HN  UNL     1      -2.957  -1.093  -0.154  1.00  0.00     0.168 HD
HETATM   12  C   UNL     1      -1.957   0.716  -0.101  1.00  0.00     0.183 A 
ENDROOT
BRANCH   1  13
HETATM   13  C   UNL     1       2.200   2.423   0.018  1.00  0.00     0.094 C 
HETATM   14  C   UNL     1       1.753   3.378   1.162  1.00  0.00     0.039 C 
HETATM   15  C   UNL     1       2.060   4.560   0.167  1.00  0.00     0.006 C 
HETATM   16  C   UNL     1       1.659   3.513  -0.944  1.00  0.00     0.039 C 
BRANCH  15  17
HETATM   17  C   UNL     1       1.191   5.814   0.294  1.00  0.00     0.175 C 
BRANCH  17  18
HETATM   18  O   UNL     1      -0.172   5.486   0.526  1.00  0.00    -0.400 OA
HETATM   19  H   UNL     1      -0.566   5.251  -0.333  1.00  0.00     0.209 HD
ENDBRANCH  17  18
ENDBRANCH  15  17
BRANCH  15  20
HETATM   20  C   UNL     1       3.546   4.982   0.176  1.00  0.00     0.175 C 
BRANCH  20  21
HETATM   21  O   UNL     1       3.868   5.639  -1.044  1.00  0.00    -0.400 OA
HETATM   22  H   UNL     1       4.144   4.959  -1.683  1.00  0.00     0.209 HD
ENDBRANCH  20  21
ENDBRANCH  15  20
ENDBRANCH   1  13
BRANCH   6  23
HETATM   23  N   UNL     1      -0.954  -2.786  -0.151  1.00  0.00    -0.362 N 
HETATM   24  C   UNL     1      -2.301  -3.380  -0.091  1.00  0.00     0.162 C 
HETATM   25  C   UNL     1      -2.238  -4.887   0.301  1.00  0.00     0.073 C 
HETATM   26  C   UNL     1      -1.180  -5.649  -0.527  1.00  0.00     0.041 C 
HETATM   27  C   UNL     1      -3.610  -5.526  -0.001  1.00  0.00     0.047 C 
HETATM   28  C   UNL     1       0.148  -4.914  -0.691  1.00  0.00     0.023 C 
HETATM   29  C   UNL     1      -0.027  -3.448  -1.073  1.00  0.00     0.124 C 
BRANCH  25  30
HETATM   30  O   UNL     1      -2.104  -5.111   1.719  1.00  0.00    -0.384 OA
HETATM   31  C   UNL     1      -0.974  -4.582   2.387  1.00  0.00     0.202 C 
ENDBRANCH  25  30
ENDBRANCH   6  23
TORSDOF 7
