REMARK  3 active torsions:
REMARK  status: ('A' for Active; 'I' for Inactive)
REMARK       I    between atoms: N_6  and  C_7 
REMARK    1  A    between atoms: C_7  and  C_9 
REMARK    2  A    between atoms: C_9  and  C_10 
REMARK    3  A    between atoms: C_13  and  N_16 
ROOT
HETATM    1  C   UNL     1       6.773  -5.112  -0.201  1.00  0.00     0.026 A 
HETATM    2  C   UNL     1       7.670  -5.868   0.534  1.00  0.00     0.078 A 
HETATM    3  S   UNL     1       6.843  -7.015   1.478  1.00  0.00    -0.064 SA
HETATM    4  C   UNL     1       5.357  -6.474   0.844  1.00  0.00     0.155 A 
HETATM    5  N   UNL     1       5.438  -5.431   0.032  1.00  0.00    -0.339 N 
ATOM      6  HN  UNL     1       4.640  -4.935  -0.364  1.00  0.00     0.168 HD
ENDROOT
BRANCH   1   7
HETATM    7  C   UNL     1       7.122  -4.003  -1.141  1.00  0.00     0.168 C 
BRANCH   7   8
HETATM    8  C   UNL     1       6.669  -2.611  -0.694  1.00  0.00     0.321 C 
HETATM    9  N   UNL     1       5.774  -2.590   0.367  1.00  0.00    -0.009 N 
HETATM   10  C   UNL     1       5.401  -1.303   2.446  1.00  0.00     0.185 A 
HETATM   11  H   UNL     1       5.301  -3.457   0.614  1.00  0.00     0.290 HD
HETATM   12  C   UNL     1       5.276  -1.349   0.914  1.00  0.00     0.289 A 
HETATM   13  C   UNL     1       4.428  -0.874   4.674  1.00  0.00     0.018 A 
HETATM   14  C   UNL     1       4.120  -1.498   3.301  1.00  0.00     0.049 A 
HETATM   15  C   UNL     1       3.404  -2.843   3.518  1.00  0.00     0.007 C 
HETATM   16  O   UNL     1       7.098  -1.602  -1.249  1.00  0.00    -0.265 OA
ENDBRANCH   7   8
ENDBRANCH   1   7
BRANCH   4  17
HETATM   17  N   UNL     1       4.161  -7.073   1.197  1.00  0.00    -0.278 N 
HETATM   18  C   UNL     1       2.849  -6.558   0.870  1.00  0.00     0.155 C 
HETATM   19  C   UNL     1       1.896  -7.704   1.194  1.00  0.00     0.145 C 
HETATM   20  N   UNL     1       2.695  -8.606   1.968  1.00  0.00    -0.341 N 
HETATM   21  C   UNL     1       4.046  -8.300   1.866  1.00  0.00     0.324 C 
HETATM   22  H   UNL     1       2.438  -9.550   2.233  1.00  0.00     0.164 HD
HETATM   23  O   UNL     1       4.903  -9.060   2.283  1.00  0.00    -0.247 OA
ENDBRANCH   4  17
TORSDOF 3
