REMARK  5 active torsions:
REMARK  status: ('A' for Active; 'I' for Inactive)
REMARK    1  A    between atoms: C_2  and  C_5 
REMARK    2  A    between atoms: N_10  and  C_11 
REMARK    3  A    between atoms: C_11  and  C_12 
REMARK       I    between atoms: C_12  and  N_14 
REMARK    4  A    between atoms: N_14  and  C_15 
REMARK    5  A    between atoms: C_15  and  C_16 
ROOT
HETATM    1  C   UNL     1       2.045  -0.189   6.460  1.00  0.00     0.063 A 
HETATM    2  C   UNL     1       2.775  -0.251   7.713  1.00  0.00     0.023 A 
HETATM    3  C   UNL     1       4.056  -0.644   7.749  1.00  0.00     0.075 A 
HETATM    4  C   UNL     1       4.763  -1.025   6.497  1.00  0.00     0.247 A 
HETATM    5  O   UNL     1       5.927  -1.417   6.540  1.00  0.00    -0.268 OA
HETATM    6  N   UNL     1       4.027  -0.893   5.325  1.00  0.00    -0.315 N 
HETATM    7  C   UNL     1       2.693  -0.508   5.326  1.00  0.00     0.110 A 
ENDROOT
BRANCH   6   8
HETATM    8  C   UNL     1       4.722  -1.058   4.050  1.00  0.00     0.234 C 
BRANCH   8   9
HETATM    9  C   UNL     1       4.729  -2.481   3.495  1.00  0.00     0.235 C 
HETATM   10  O   UNL     1       4.236  -2.733   2.395  1.00  0.00    -0.272 OA
HETATM   11  N   UNL     1       5.408  -3.430   4.237  1.00  0.00    -0.359 N 
HETATM   12  H   UNL     1       5.915  -3.127   5.068  1.00  0.00     0.162 HD
BRANCH  11  13
HETATM   13  C   UNL     1       5.641  -4.734   3.647  1.00  0.00     0.129 C 
BRANCH  13  14
HETATM   14  C   UNL     1       6.449  -5.700   4.502  1.00  0.00     0.029 C 
HETATM   15  C   UNL     1       7.886  -5.282   4.757  1.00  0.00     0.034 C 
HETATM   16  C   UNL     1       8.664  -6.588   4.786  1.00  0.00     0.168 C 
HETATM   17  O   UNL     1       7.770  -7.640   4.407  1.00  0.00    -0.391 OA
HETATM   18  C   UNL     1       6.628  -7.036   3.798  1.00  0.00     0.173 C 
ENDBRANCH  13  14
ENDBRANCH  11  13
ENDBRANCH   8   9
ENDBRANCH   6   8
BRANCH   1  19
HETATM   19  C   UNL     1       0.617   0.286   6.445  1.00  0.00     0.418 C 
HETATM   20  F   UNL     1       0.178   0.684   7.667  1.00  0.00    -0.166 F 
HETATM   21  F   UNL     1      -0.231  -0.683   6.020  1.00  0.00    -0.166 F 
HETATM   22  F   UNL     1       0.454   1.345   5.609  1.00  0.00    -0.166 F 
ENDBRANCH   1  19
TORSDOF 5
