REMARK  7 active torsions:
REMARK  status: ('A' for Active; 'I' for Inactive)
REMARK    1  A    between atoms: O_1  and  C_2 
REMARK    2  A    between atoms: C_2  and  C_3 
REMARK    3  A    between atoms: C_3  and  C_4 
REMARK    4  A    between atoms: N_13  and  C_14 
REMARK    5  A    between atoms: C_14  and  C_15 
REMARK    6  A    between atoms: C_15  and  O_16 
REMARK    7  A    between atoms: O_16  and  C_17 
ROOT
HETATM    1  C   UNL     1       4.523   1.100   0.814  1.00  0.00     0.086 A 
HETATM    2  N   UNL     1       5.226   2.216   0.815  1.00  0.00    -0.344 N 
ATOM      3  HN  UNL     1       4.865   3.170   0.816  1.00  0.00     0.167 HD
HETATM    4  C   UNL     1       6.541   1.832   0.815  1.00  0.00     0.060 A 
HETATM    5  C   UNL     1       7.699   2.629   0.829  1.00  0.00     0.032 A 
HETATM    6  C   UNL     1       8.950   2.000   0.852  1.00  0.00     0.002 A 
HETATM    7  C   UNL     1       9.046   0.609   0.862  1.00  0.00     0.002 A 
HETATM    8  C   UNL     1       7.903  -0.201   0.848  1.00  0.00     0.032 A 
HETATM    9  C   UNL     1       6.659   0.446   0.825  1.00  0.00     0.062 A 
HETATM   10  N   UNL     1       5.355  -0.003   0.809  1.00  0.00    -0.333 N 
ENDROOT
BRANCH  10  11
HETATM   11  C   UNL     1       4.947  -1.396   0.840  1.00  0.00     0.157 C 
BRANCH  11  12
HETATM   12  C   UNL     1       4.767  -1.900   2.268  1.00  0.00     0.196 C 
BRANCH  12  13
HETATM   13  O   UNL     1       4.293  -3.251   2.248  1.00  0.00    -0.348 OA
BRANCH  13  14
HETATM   14  C   UNL     1       4.088  -3.854   3.467  1.00  0.00     0.090 A 
HETATM   15  C   UNL     1       4.298  -3.225   4.701  1.00  0.00     0.038 A 
HETATM   16  C   UNL     1       4.078  -3.910   5.901  1.00  0.00     0.003 A 
HETATM   17  C   UNL     1       3.643  -5.231   5.885  1.00  0.00     0.002 A 
HETATM   18  C   UNL     1       3.423  -5.870   4.666  1.00  0.00     0.026 A 
HETATM   19  C   UNL     1       3.642  -5.187   3.464  1.00  0.00     0.067 A 
HETATM   20 CL   UNL     1       3.346  -6.037   1.988  1.00  0.00    -0.081 Cl
ENDBRANCH  13  14
ENDBRANCH  12  13
ENDBRANCH  11  12
ENDBRANCH  10  11
BRANCH   1  21
HETATM   21  C   UNL     1       3.028   1.045   0.862  1.00  0.00     0.102 C 
BRANCH  21  22
HETATM   22  C   UNL     1       2.401   1.122  -0.525  1.00  0.00     0.171 C 
BRANCH  22  23
HETATM   23  O   UNL     1       2.642  -0.078  -1.255  1.00  0.00    -0.400 OA
HETATM   24  H   UNL     1       2.337   0.084  -2.166  1.00  0.00     0.209 HD
ENDBRANCH  22  23
ENDBRANCH  21  22
ENDBRANCH   1  21
TORSDOF 7
