REMARK  3 active torsions:
REMARK  status: ('A' for Active; 'I' for Inactive)
REMARK       I    between atoms: N_2  and  C_3 
REMARK    1  A    between atoms: C_3  and  C_5 
REMARK    2  A    between atoms: C_9  and  N_10 
REMARK       I    between atoms: N_10  and  C_11 
REMARK       I    between atoms: C_11  and  N_13 
REMARK    3  A    between atoms: N_13  and  C_14 
ROOT
HETATM    1  C   UNL     1       6.912   0.228  -2.277  1.00  0.00     0.102 A 
HETATM    2  C   UNL     1       5.646   0.786  -2.429  1.00  0.00     0.035 A 
HETATM    3  C   UNL     1       4.906   1.048  -1.286  1.00  0.00     0.006 A 
HETATM    4  C   UNL     1       5.448   0.720  -0.046  1.00  0.00     0.049 A 
HETATM    5  C   UNL     1       6.728   0.169   0.016  1.00  0.00     0.109 A 
HETATM    6  N   UNL     1       7.494  -0.048  -1.072  1.00  0.00    -0.338 N 
ATOM      7  HN  UNL     1       8.450  -0.397  -1.000  1.00  0.00     0.167 HD
ENDROOT
BRANCH   5   8
HETATM    8  N   UNL     1       7.305  -0.163   1.249  1.00  0.00    -0.295 N 
HETATM    9  C   UNL     1       6.600  -0.853   2.206  1.00  0.00     0.322 C 
HETATM   10  O   UNL     1       5.468  -1.299   2.054  1.00  0.00    -0.247 OA
HETATM   11  N   UNL     1       7.298  -0.984   3.386  1.00  0.00    -0.335 N 
HETATM   12  H   UNL     1       8.279  -0.757   3.380  1.00  0.00     0.164 HD
HETATM   13  H   UNL     1       8.288  -0.366   1.189  1.00  0.00     0.172 HD
BRANCH  11  14
HETATM   14  C   UNL     1       6.776  -1.795   4.477  1.00  0.00     0.109 C 
HETATM   15  C   UNL     1       5.425  -1.289   5.017  1.00  0.00     0.029 C 
HETATM   16  C   UNL     1       5.353  -0.715   6.433  1.00  0.00     0.006 C 
HETATM   17  C   UNL     1       6.633  -0.633   7.256  1.00  0.00     0.027 C 
HETATM   18  C   UNL     1       7.801  -1.394   6.733  1.00  0.00    -0.029 C 
HETATM   19  C   UNL     1       7.864  -1.904   5.499  1.00  0.00    -0.006 C 
ENDBRANCH  11  14
ENDBRANCH   5   8
BRANCH   1  20
HETATM   20  C   UNL     1       7.679  -0.157  -3.505  1.00  0.00     0.267 C 
HETATM   21  N   UNL     1       8.865  -0.822  -3.272  1.00  0.00    -0.360 N 
HETATM   22  C   UNL     1       9.655  -1.341  -4.355  1.00  0.00     0.149 C 
HETATM   23  H   UNL     1       9.075  -1.062  -2.308  1.00  0.00     0.162 HD
HETATM   24  O   UNL     1       7.249   0.085  -4.628  1.00  0.00    -0.266 OA
ENDBRANCH   1  20
TORSDOF 3
