REMARK  5 active torsions:
REMARK  status: ('A' for Active; 'I' for Inactive)
REMARK    1  A    between atoms: O_2  and  C_3 
REMARK    2  A    between atoms: C_3  and  C_4 
REMARK    3  A    between atoms: C_4  and  N_5 
REMARK    4  A    between atoms: C_8  and  C_13 
REMARK       I    between atoms: C_13  and  N_15 
REMARK    5  A    between atoms: N_15  and  C_16 
ROOT
HETATM    1  N   UNL     1       4.805  -1.719   2.164  1.00  0.00    -0.255 N 
HETATM    2  N   UNL     1       5.671  -1.234   3.144  1.00  0.00    -0.290 N 
ATOM      3  HN  UNL     1       5.942  -0.251   3.181  1.00  0.00     0.187 HD
HETATM    4  C   UNL     1       6.116  -2.101   4.010  1.00  0.00     0.116 A 
HETATM    5  C   UNL     1       5.740  -3.528   4.045  1.00  0.00     0.042 A 
HETATM    6  C   UNL     1       4.937  -3.970   3.082  1.00  0.00     0.078 A 
HETATM    7  C   UNL     1       4.451  -3.061   2.031  1.00  0.00     0.262 A 
HETATM    8  O   UNL     1       3.753  -3.521   1.132  1.00  0.00    -0.267 OA
ENDROOT
BRANCH   4   9
HETATM    9  C   UNL     1       7.105  -1.663   5.094  1.00  0.00     0.269 C 
HETATM   10  O   UNL     1       7.577  -2.502   5.852  1.00  0.00    -0.266 OA
HETATM   11  N   UNL     1       7.402  -0.318   5.126  1.00  0.00    -0.351 N 
HETATM   12  H   UNL     1       6.982   0.277   4.416  1.00  0.00     0.163 HD
BRANCH  11  13
HETATM   13  C   UNL     1       8.339   0.211   6.066  1.00  0.00     0.085 A 
HETATM   14  C   UNL     1       7.864   0.702   7.408  1.00  0.00     0.027 A 
HETATM   15  C   UNL     1       8.400   1.674   6.397  1.00  0.00     0.027 A 
ENDBRANCH  11  13
ENDBRANCH   4   9
BRANCH   1  16
HETATM   16  C   UNL     1       4.317  -0.767   1.167  1.00  0.00     0.178 C 
BRANCH  16  17
HETATM   17  C   UNL     1       2.794  -0.590   1.215  1.00  0.00     0.189 C 
BRANCH  17  18
HETATM   18  O   UNL     1       2.376   0.349   0.219  1.00  0.00    -0.394 OA
HETATM   19  C   UNL     1       0.957   0.469   0.195  1.00  0.00     0.201 C 
ENDBRANCH  17  18
ENDBRANCH  16  17
ENDBRANCH   1  16
TORSDOF 5
