REMARK  6 active torsions:
REMARK  status: ('A' for Active; 'I' for Inactive)
REMARK    1  A    between atoms: C_5  and  O_6 
REMARK    2  A    between atoms: O_6  and  C_7 
REMARK    3  A    between atoms: C_7  and  C_8 
REMARK    4  A    between atoms: C_8  and  O_9 
REMARK    5  A    between atoms: C_8  and  C_10 
REMARK    6  A    between atoms: C_10  and  N_11 
ROOT
HETATM    1  C   UNL     1       8.779   0.815  -1.099  1.00  0.00     0.161 C 
ENDROOT
BRANCH   1   2
HETATM    2  C   UNL     1       7.330   1.158  -0.696  1.00  0.00     0.209 C 
BRANCH   2   3
HETATM    3  O   UNL     1       6.568  -0.047  -0.603  1.00  0.00    -0.348 OA
BRANCH   3   4
HETATM    4  C   UNL     1       5.233   0.058  -0.306  1.00  0.00     0.074 A 
HETATM    5  C   UNL     1       4.566   1.260  -0.047  1.00  0.00     0.038 A 
HETATM    6  C   UNL     1       3.195   1.272   0.237  1.00  0.00     0.009 A 
HETATM    7  C   UNL     1       2.467   0.082   0.273  1.00  0.00    -0.061 A 
HETATM    8  C   UNL     1       0.995   0.080   0.567  1.00  0.00     0.048 C 
HETATM    9  C   UNL     1       3.135  -1.123   0.035  1.00  0.00     0.016 A 
HETATM   10  C   UNL     1       4.509  -1.147  -0.268  1.00  0.00    -0.028 A 
HETATM   11  C   UNL     1       5.150  -2.483  -0.533  1.00  0.00     0.051 C 
ENDBRANCH   3   4
ENDBRANCH   2   3
ENDBRANCH   1   2
BRANCH   1  12
HETATM   12  O   UNL     1       8.820   0.197  -2.397  1.00  0.00    -0.392 OA
HETATM   13  H   UNL     1       8.116   0.575  -2.950  1.00  0.00     0.210 HD
ENDBRANCH   1  12
BRANCH   1  14
HETATM   14  C   UNL     1       9.630   2.096  -1.141  1.00  0.00     0.166 C 
BRANCH  14  15
HETATM   15  N   UNL     1      11.036   1.838  -1.431  1.00  0.00    -0.307 N 
HETATM   16  C   UNL     1      11.487   1.818  -2.723  1.00  0.00     0.186 A 
HETATM   17  N   UNL     1      12.709   1.625  -3.080  1.00  0.00    -0.355 N 
HETATM   18  C   UNL     1      13.632   1.404  -2.088  1.00  0.00     0.017 A 
ATOM     19  HN  UNL     1      12.981   1.636  -4.063  1.00  0.00     0.166 HD
HETATM   20  C   UNL     1      15.045   1.237  -2.583  1.00  0.00     0.069 C 
HETATM   21  C   UNL     1      13.321   1.338  -0.780  1.00  0.00     0.028 A 
HETATM   22  C   UNL     1      14.269   1.086   0.352  1.00  0.00     0.056 C 
HETATM   23  C   UNL     1      11.895   1.542  -0.401  1.00  0.00     0.256 A 
HETATM   24  O   UNL     1      11.540   1.461   0.773  1.00  0.00    -0.267 OA
ENDBRANCH  14  15
ENDBRANCH   1  14
TORSDOF 6
