REMARK  2 active torsions:
REMARK  status: ('A' for Active; 'I' for Inactive)
REMARK    1  A    between atoms: C_8  and  N_9 
REMARK       I    between atoms: N_9  and  C_10 
REMARK       I    between atoms: C_10  and  N_12 
REMARK    2  A    between atoms: N_12  and  C_13 
ROOT
HETATM    1  N   UNL     1       3.595   3.370  -1.361  1.00  0.00    -0.305 N 
HETATM    2  C   UNL     1       2.315   3.882  -1.338  1.00  0.00     0.321 C 
HETATM    3  O   UNL     1       1.476   3.727  -2.216  1.00  0.00    -0.247 OA
HETATM    4  N   UNL     1       2.007   4.606  -0.207  1.00  0.00    -0.338 N 
HETATM    5  H   UNL     1       4.269   3.758  -0.718  1.00  0.00     0.171 HD
HETATM    6  H   UNL     1       2.680   4.653   0.547  1.00  0.00     0.164 HD
ENDROOT
BRANCH   1   7
HETATM    7  C   UNL     1       4.085   2.511  -2.352  1.00  0.00     0.092 A 
HETATM    8  C   UNL     1       5.453   2.209  -2.640  1.00  0.00     0.058 A 
HETATM    9  C   UNL     1       6.703   2.718  -2.034  1.00  0.00     0.072 C 
HETATM   10  N   UNL     1       5.564   1.333  -3.651  1.00  0.00    -0.263 N 
HETATM   11  O   UNL     1       4.281   1.046  -4.038  1.00  0.00    -0.240 OA
ATOM     12  HN  UNL     1       6.425   0.958  -4.049  1.00  0.00     0.194 HD
HETATM   13  C   UNL     1       3.395   1.727  -3.263  1.00  0.00     0.101 A 
HETATM   14  C   UNL     1       1.981   1.418  -3.566  1.00  0.00     0.081 C 
ENDBRANCH   1   7
BRANCH   4  15
HETATM   15  C   UNL     1       0.600   4.933   0.065  1.00  0.00     0.091 C 
HETATM   16  C   UNL     1       0.418   6.114   1.014  1.00  0.00     0.051 C 
HETATM   17  C   UNL     1       0.551   5.740   2.482  1.00  0.00     0.171 C 
HETATM   18  O   UNL     1      -0.164   4.559   2.841  1.00  0.00    -0.380 OA
HETATM   19  C   UNL     1       0.110   3.397   2.045  1.00  0.00     0.062 C 
HETATM   20  C   UNL     1       1.541   2.869   2.275  1.00  0.00     0.038 C 
HETATM   21  C   UNL     1      -0.812   2.263   2.560  1.00  0.00     0.038 C 
HETATM   22  C   UNL     1      -0.200   3.726   0.579  1.00  0.00     0.063 C 
HETATM   23  C   UNL     1       1.415   1.791   3.339  1.00  0.00     0.003 C 
HETATM   24  C   UNL     1       0.101   1.122   3.000  1.00  0.00     0.003 C 
ENDBRANCH   4  15
TORSDOF 2
