REMARK  6 active torsions:
REMARK  status: ('A' for Active; 'I' for Inactive)
REMARK    1  A    between atoms: O_2  and  C_3 
REMARK    2  A    between atoms: C_3  and  C_4 
REMARK    3  A    between atoms: C_4  and  N_5 
REMARK    4  A    between atoms: C_8  and  C_13 
REMARK       I    between atoms: C_13  and  N_15 
REMARK    5  A    between atoms: N_15  and  C_16 
REMARK    6  A    between atoms: C_16  and  C_22 
ROOT
HETATM    1  C   UNL     1       7.719  -4.122   2.959  1.00  0.00     0.270 C 
HETATM    2  O   UNL     1       7.948  -5.193   3.499  1.00  0.00    -0.266 OA
HETATM    3  N   UNL     1       8.564  -3.033   3.014  1.00  0.00    -0.338 N 
HETATM    4  H   UNL     1       8.174  -2.146   2.706  1.00  0.00     0.164 HD
ENDROOT
BRANCH   1   5
HETATM    5  C   UNL     1       6.452  -3.955   2.118  1.00  0.00     0.116 A 
HETATM    6  N   UNL     1       5.909  -2.783   1.965  1.00  0.00    -0.290 N 
HETATM    7  N   UNL     1       4.734  -2.740   1.203  1.00  0.00    -0.255 N 
ATOM      8  HN  UNL     1       6.316  -1.943   2.376  1.00  0.00     0.187 HD
HETATM    9  C   UNL     1       4.099  -3.866   0.680  1.00  0.00     0.262 A 
HETATM   10  C   UNL     1       4.806  -5.148   0.848  1.00  0.00     0.078 A 
HETATM   11  O   UNL     1       3.016  -3.873   0.099  1.00  0.00    -0.267 OA
HETATM   12  C   UNL     1       5.947  -5.211   1.532  1.00  0.00     0.042 A 
BRANCH   7  13
HETATM   13  C   UNL     1       4.097  -1.435   1.020  1.00  0.00     0.178 C 
BRANCH  13  14
HETATM   14  C   UNL     1       4.964  -0.441   0.247  1.00  0.00     0.189 C 
BRANCH  14  15
HETATM   15  O   UNL     1       5.221  -0.914  -1.079  1.00  0.00    -0.394 OA
HETATM   16  C   UNL     1       6.059  -0.018  -1.796  1.00  0.00     0.201 C 
ENDBRANCH  14  15
ENDBRANCH  13  14
ENDBRANCH   7  13
ENDBRANCH   1   5
BRANCH   3  17
HETATM   17  C   UNL     1       9.843  -3.074   3.793  1.00  0.00     0.131 C 
HETATM   18  C   UNL     1      10.551  -1.701   3.637  1.00  0.00     0.040 C 
HETATM   19  C   UNL     1      10.972  -1.392   2.197  1.00  0.00     0.003 C 
HETATM   20  C   UNL     1      11.818  -2.505   1.586  1.00  0.00     0.000 C 
HETATM   21  C   UNL     1      11.165  -3.872   1.741  1.00  0.00     0.003 C 
HETATM   22  C   UNL     1      10.801  -4.147   3.200  1.00  0.00     0.040 C 
BRANCH  17  23
HETATM   23  C   UNL     1       9.617  -3.370   5.326  1.00  0.00     0.412 C 
HETATM   24  F   UNL     1       8.304  -3.339   5.661  1.00  0.00    -0.168 F 
HETATM   25  F   UNL     1      10.106  -4.572   5.703  1.00  0.00    -0.168 F 
HETATM   26  F   UNL     1      10.224  -2.441   6.107  1.00  0.00    -0.168 F 
ENDBRANCH  17  23
ENDBRANCH   3  17
TORSDOF 6
