REMARK  3 active torsions:
REMARK  status: ('A' for Active; 'I' for Inactive)
REMARK    1  A    between atoms: N_6  and  C_7 
REMARK    2  A    between atoms: C_7  and  C_8 
REMARK       I    between atoms: C_8  and  N_10 
REMARK    3  A    between atoms: N_10  and  C_11 
ROOT
HETATM    1  C   UNL     1       5.557  -3.291   0.277  1.00  0.00     0.237 C 
HETATM    2  O   UNL     1       4.399  -3.701   0.274  1.00  0.00    -0.272 OA
HETATM    3  N   UNL     1       6.660  -4.109   0.174  1.00  0.00    -0.355 N 
HETATM    4  H   UNL     1       7.532  -3.626  -0.052  1.00  0.00     0.162 HD
ENDROOT
BRANCH   1   5
HETATM    5  C   UNL     1       5.884  -1.826   0.492  1.00  0.00     0.250 C 
BRANCH   5   6
HETATM    6  N   UNL     1       6.683  -1.263  -0.586  1.00  0.00    -0.294 N 
HETATM    7  N   UNL     1       7.938  -1.728  -0.811  1.00  0.00    -0.308 N 
HETATM    8  C   UNL     1       8.381  -0.961  -1.815  1.00  0.00     0.127 A 
ATOM      9  HN  UNL     1       8.427  -2.482  -0.330  1.00  0.00     0.186 HD
HETATM   10  C   UNL     1       7.430  -0.006  -2.197  1.00  0.00     0.044 A 
HETATM   11 BR   UNL     1       7.651   1.277  -3.532  1.00  0.00    -0.048 Br
HETATM   12  C   UNL     1       6.345  -0.208  -1.387  1.00  0.00     0.131 A 
ENDBRANCH   5   6
ENDBRANCH   1   5
BRANCH   3  13
HETATM   13  C   UNL     1       6.632  -5.539  -0.086  1.00  0.00     0.084 C 
HETATM   14  C   UNL     1       5.952  -6.362   1.013  1.00  0.00     0.025 C 
HETATM   15  C   UNL     1       6.146  -7.856   0.747  1.00  0.00     0.002 C 
HETATM   16  C   UNL     1       5.673  -8.264  -0.649  1.00  0.00     0.000 C 
HETATM   17  C   UNL     1       6.239  -7.370  -1.753  1.00  0.00     0.002 C 
HETATM   18  C   UNL     1       6.033  -5.886  -1.452  1.00  0.00     0.025 C 
ENDBRANCH   3  13
TORSDOF 3
