REMARK  7 active torsions:
REMARK  status: ('A' for Active; 'I' for Inactive)
REMARK    1  A    between atoms: O_2  and  C_3 
REMARK    2  A    between atoms: C_3  and  C_4 
REMARK    3  A    between atoms: C_4  and  N_5 
REMARK    4  A    between atoms: C_8  and  C_9 
REMARK    5  A    between atoms: C_9  and  N_10 
REMARK       I    between atoms: N_10  and  C_11 
REMARK    6  A    between atoms: C_11  and  C_13 
REMARK    7  A    between atoms: C_13  and  C_14 
ROOT
HETATM    1  N   UNL     1       3.168   6.066  -3.517  1.00  0.00    -0.360 N 
HETATM    2  C   UNL     1       3.097   5.536  -4.786  1.00  0.00     0.222 C 
HETATM    3  O   UNL     1       3.822   4.631  -5.188  1.00  0.00    -0.273 OA
HETATM    4  H   UNL     1       2.679   6.937  -3.326  1.00  0.00     0.162 HD
ENDROOT
BRANCH   2   5
HETATM    5  C   UNL     1       2.042   6.148  -5.676  1.00  0.00     0.149 C 
BRANCH   5   6
HETATM    6  C   UNL     1       2.713   7.161  -6.545  1.00  0.00     0.041 A 
HETATM    7  C   UNL     1       3.289   6.951  -7.746  1.00  0.00     0.018 A 
HETATM    8  C   UNL     1       3.424   5.588  -8.379  1.00  0.00     0.069 C 
HETATM    9  N   UNL     1       3.832   7.957  -8.513  1.00  0.00    -0.349 N 
HETATM   10  C   UNL     1       3.784   9.162  -8.051  1.00  0.00     0.080 A 
ATOM     11  HN  UNL     1       4.259   7.757  -9.418  1.00  0.00     0.167 HD
HETATM   12  C   UNL     1       4.331  10.313  -8.842  1.00  0.00     0.089 C 
HETATM   13  N   UNL     1       3.257   9.483  -6.838  1.00  0.00    -0.313 N 
HETATM   14  C   UNL     1       2.753   8.536  -6.000  1.00  0.00     0.255 A 
HETATM   15  H   UNL     1       3.291  10.428  -6.481  1.00  0.00     0.170 HD
HETATM   16  O   UNL     1       2.369   8.800  -4.863  1.00  0.00    -0.268 OA
ENDBRANCH   5   6
ENDBRANCH   2   5
BRANCH   1  17
HETATM   17  C   UNL     1       4.089   5.544  -2.525  1.00  0.00     0.127 C 
BRANCH  17  18
HETATM   18  C   UNL     1       3.438   4.480  -1.615  1.00  0.00     0.007 C 
HETATM   19  C   UNL     1       4.444   3.953  -0.575  1.00  0.00     0.036 C 
HETATM   20  C   UNL     1       5.471   2.983  -1.180  1.00  0.00     0.273 C 
HETATM   21  N   UNL     1       4.877   1.874  -1.942  1.00  0.00     0.090 N 
HETATM   22  C   UNL     1       3.956   2.391  -2.961  1.00  0.00     0.273 C 
HETATM   23  C   UNL     1       2.856   3.283  -2.383  1.00  0.00     0.036 C 
BRANCH  21  24
HETATM   24  C   UNL     1       4.304   0.834  -1.069  1.00  0.00     0.298 C 
BRANCH  24  25
HETATM   25  C   UNL     1       3.686  -0.349  -1.833  1.00  0.00     0.197 C 
BRANCH  25  26
HETATM   26  O   UNL     1       3.246  -1.359  -0.920  1.00  0.00    -0.394 OA
HETATM   27  C   UNL     1       2.645  -2.439  -1.627  1.00  0.00     0.201 C 
ENDBRANCH  25  26
ENDBRANCH  24  25
ENDBRANCH  21  24
ENDBRANCH  17  18
ENDBRANCH   1  17
TORSDOF 7
