REMARK  3 active torsions:
REMARK  status: ('A' for Active; 'I' for Inactive)
REMARK    1  A    between atoms: C_5  and  C_6 
REMARK    2  A    between atoms: C_6  and  N_7 
REMARK       I    between atoms: N_7  and  C_8 
REMARK       I    between atoms: C_8  and  N_10 
REMARK    3  A    between atoms: N_10  and  C_11 
ROOT
HETATM    1  N   UNL     1       5.326   0.148  -3.817  1.00  0.00    -0.342 N 
HETATM    2  C   UNL     1       6.276   1.046  -3.387  1.00  0.00     0.321 C 
HETATM    3  O   UNL     1       6.748   1.031  -2.256  1.00  0.00    -0.247 OA
HETATM    4  N   UNL     1       6.559   1.977  -4.356  1.00  0.00    -0.295 N 
HETATM    5  H   UNL     1       5.329  -0.062  -4.805  1.00  0.00     0.164 HD
HETATM    6  H   UNL     1       5.767   2.259  -4.916  1.00  0.00     0.172 HD
ENDROOT
BRANCH   1   7
HETATM    7  C   UNL     1       4.764  -0.839  -2.912  1.00  0.00     0.129 C 
BRANCH   7   8
HETATM    8  C   UNL     1       3.230  -0.770  -2.858  1.00  0.00     0.007 C 
HETATM    9  C   UNL     1       2.695   0.618  -2.463  1.00  0.00     0.036 C 
HETATM   10  C   UNL     1       2.946   0.940  -0.985  1.00  0.00     0.272 C 
HETATM   11  N   UNL     1       2.436  -0.081  -0.061  1.00  0.00     0.084 N 
HETATM   12  C   UNL     1       0.983  -0.028   0.079  1.00  0.00     0.309 C 
HETATM   13  C   UNL     1       2.914  -1.421  -0.412  1.00  0.00     0.272 C 
HETATM   14  C   UNL     1       2.673  -1.813  -1.874  1.00  0.00     0.036 C 
ENDBRANCH   7   8
ENDBRANCH   1   7
BRANCH   4  15
HETATM   15  C   UNL     1       7.440   3.039  -4.125  1.00  0.00     0.108 A 
HETATM   16  C   UNL     1       8.655   2.854  -3.475  1.00  0.00     0.049 A 
HETATM   17  C   UNL     1       9.458   3.965  -3.232  1.00  0.00     0.005 A 
HETATM   18  C   UNL     1       9.011   5.220  -3.623  1.00  0.00     0.017 A 
HETATM   19  C   UNL     1       7.796   5.305  -4.284  1.00  0.00     0.089 A 
HETATM   20  N   UNL     1       7.019   4.237  -4.578  1.00  0.00    -0.352 N 
ATOM     21  HN  UNL     1       6.158   4.333  -5.116  1.00  0.00     0.166 HD
ENDBRANCH   4  15
TORSDOF 3
