REMARK  2 active torsions:
REMARK  status: ('A' for Active; 'I' for Inactive)
REMARK    1  A    between atoms: C_8  and  N_9 
REMARK       I    between atoms: N_9  and  C_10 
REMARK       I    between atoms: C_10  and  N_12 
REMARK    2  A    between atoms: N_12  and  C_13 
ROOT
HETATM    1  N   UNL     1       2.233  -2.470   0.060  1.00  0.00    -0.306 N 
HETATM    2  C   UNL     1       0.873  -2.533   0.262  1.00  0.00     0.321 C 
HETATM    3  O   UNL     1       0.210  -1.711   0.881  1.00  0.00    -0.247 OA
HETATM    4  N   UNL     1       0.293  -3.623  -0.346  1.00  0.00    -0.335 N 
HETATM    5  H   UNL     1       2.699  -3.299  -0.281  1.00  0.00     0.171 HD
HETATM    6  H   UNL     1       0.863  -4.419  -0.586  1.00  0.00     0.164 HD
ENDROOT
BRANCH   1   7
HETATM    7  C   UNL     1       3.071  -1.404   0.474  1.00  0.00     0.077 A 
HETATM    8  C   UNL     1       4.449  -1.613   0.506  1.00  0.00     0.158 A 
HETATM    9  F   UNL     1       4.969  -2.797   0.149  1.00  0.00    -0.202 F 
HETATM   10  C   UNL     1       5.276  -0.590   0.941  1.00  0.00     0.132 A 
HETATM   11  N   UNL     1       4.828   0.628   1.321  1.00  0.00    -0.372 N 
HETATM   12  C   UNL     1       3.492   0.820   1.257  1.00  0.00     0.090 A 
ATOM     13  HN  UNL     1       5.463   1.361   1.638  1.00  0.00     0.164 HD
HETATM   14  C   UNL     1       2.590  -0.149   0.843  1.00  0.00     0.050 A 
ENDBRANCH   1   7
BRANCH   4  15
HETATM   15  C   UNL     1      -1.139  -3.831  -0.222  1.00  0.00     0.109 C 
HETATM   16  C   UNL     1      -1.487  -4.652   1.027  1.00  0.00     0.029 C 
HETATM   17  C   UNL     1      -2.010  -6.079   0.839  1.00  0.00     0.006 C 
HETATM   18  C   UNL     1      -2.320  -6.574  -0.574  1.00  0.00     0.027 C 
HETATM   19  C   UNL     1      -2.145  -5.596  -1.682  1.00  0.00    -0.029 C 
HETATM   20  C   UNL     1      -1.607  -4.383  -1.525  1.00  0.00    -0.006 C 
ENDBRANCH   4  15
TORSDOF 2
