REMARK  3 active torsions:
REMARK  status: ('A' for Active; 'I' for Inactive)
REMARK       I    between atoms: C_2  and  N_3 
REMARK       I    between atoms: C_2  and  N_13 
REMARK    1  A    between atoms: N_3  and  C_4 
REMARK    2  A    between atoms: C_8  and  C_10 
REMARK    3  A    between atoms: N_13  and  C_14 
ROOT
HETATM    1  O   UNL     1       3.359   1.407   1.686  1.00  0.00    -0.247 OA
HETATM    2  C   UNL     1       3.419   0.568   0.787  1.00  0.00     0.322 C 
HETATM    3  N   UNL     1       2.905  -0.688   0.879  1.00  0.00    -0.338 N 
HETATM    4  N   UNL     1       4.156   0.815  -0.345  1.00  0.00    -0.294 N 
HETATM    5  H   UNL     1       2.871  -1.210   0.011  1.00  0.00     0.164 HD
HETATM    6  H   UNL     1       4.812   1.574  -0.231  1.00  0.00     0.172 HD
ENDROOT
BRANCH   3   7
HETATM    7  C   UNL     1       2.199  -1.253   2.016  1.00  0.00     0.090 C 
HETATM    8  C   UNL     1       1.980  -2.755   1.777  1.00  0.00     0.051 C 
HETATM    9  C   UNL     1       0.885  -2.999   0.738  1.00  0.00     0.170 C 
HETATM   10  O   UNL     1      -0.313  -2.313   1.096  1.00  0.00    -0.385 OA
HETATM   11  C   UNL     1      -0.110  -0.895   1.133  1.00  0.00     0.127 C 
HETATM   12  C   UNL     1       0.861  -0.561   2.263  1.00  0.00     0.057 C 
BRANCH  11  13
HETATM   13  C   UNL     1      -1.438  -0.225   1.335  1.00  0.00     0.015 A 
HETATM   14  C   UNL     1      -2.516  -0.351   0.288  1.00  0.00     0.007 A 
HETATM   15  C   UNL     1      -1.810   0.962   0.479  1.00  0.00     0.007 A 
ENDBRANCH  11  13
ENDBRANCH   3   7
BRANCH   4  16
HETATM   16  C   UNL     1       4.353  -0.129  -1.361  1.00  0.00     0.123 A 
HETATM   17  C   UNL     1       5.639  -0.388  -1.784  1.00  0.00     0.051 A 
HETATM   18  C   UNL     1       5.848  -1.504  -2.586  1.00  0.00     0.022 A 
HETATM   19  C   UNL     1       4.754  -2.253  -2.978  1.00  0.00     0.107 A 
HETATM   20  N   UNL     1       3.499  -1.948  -2.598  1.00  0.00    -0.310 N 
HETATM   21  N   UNL     1       3.305  -0.887  -1.767  1.00  0.00    -0.286 N 
ATOM     22  HN  UNL     1       2.708  -2.502  -2.927  1.00  0.00     0.186 HD
ATOM     23  HN  UNL     1       2.363  -0.661  -1.447  1.00  0.00     0.188 HD
ENDBRANCH   4  16
TORSDOF 3
