REMARK  5 active torsions:
REMARK  status: ('A' for Active; 'I' for Inactive)
REMARK    1  A    between atoms: C_2  and  C_3 
REMARK    2  A    between atoms: C_7  and  C_8 
REMARK    3  A    between atoms: C_10  and  C_11 
REMARK    4  A    between atoms: C_11  and  C_12 
REMARK       I    between atoms: C_12  and  N_14 
REMARK    5  A    between atoms: N_14  and  C_15 
ROOT
HETATM    1  C   UNL     1       2.044   2.890   3.898  1.00  0.00     0.122 C 
HETATM    2  C   UNL     1       2.935   4.148   4.137  1.00  0.00     0.047 C 
HETATM    3  C   UNL     1       1.799   4.722   5.008  1.00  0.00     0.007 C 
HETATM    4  C   UNL     1       1.347   3.265   5.246  1.00  0.00     0.047 C 
HETATM    5  C   UNL     1       1.159   2.947   2.737  1.00  0.00     0.091 C 
HETATM    6  N   UNL     1       0.429   2.972   1.834  1.00  0.00    -0.195 NA
ENDROOT
BRANCH   1   7
HETATM    7  N   UNL     1       2.774   1.588   3.953  1.00  0.00    -0.339 N 
HETATM    8  C   UNL     1       3.759   1.276   3.033  1.00  0.00     0.223 C 
HETATM    9  O   UNL     1       4.134   2.077   2.180  1.00  0.00    -0.273 OA
HETATM   10  H   UNL     1       2.410   0.837   4.531  1.00  0.00     0.164 HD
BRANCH   8  11
HETATM   11  C   UNL     1       4.385  -0.095   3.180  1.00  0.00     0.146 C 
BRANCH  11  12
HETATM   12  C   UNL     1       3.758  -1.204   2.399  1.00  0.00     0.007 A 
HETATM   13  C   UNL     1       3.064  -1.230   1.146  1.00  0.00     0.041 A 
HETATM   14  N   UNL     1       2.722  -2.482   0.810  1.00  0.00    -0.265 N 
HETATM   15  O   UNL     1       3.194  -3.295   1.807  1.00  0.00    -0.242 OA
ATOM     16  HN  UNL     1       2.211  -2.772  -0.024  1.00  0.00     0.194 HD
HETATM   17  C   UNL     1       3.814  -2.545   2.748  1.00  0.00     0.084 A 
BRANCH  13  18
HETATM   18  C   UNL     1       2.681  -0.142   0.198  1.00  0.00     0.055 C 
HETATM   19  C   UNL     1       3.726   0.098  -0.881  1.00  0.00     0.011 C 
ENDBRANCH  13  18
BRANCH  17  20
HETATM   20  C   UNL     1       4.401  -3.309   3.877  1.00  0.00     0.063 C 
HETATM   21  C   UNL     1       3.392  -3.507   4.997  1.00  0.00     0.012 C 
ENDBRANCH  17  20
ENDBRANCH  11  12
ENDBRANCH   8  11
ENDBRANCH   1   7
TORSDOF 5
