REMARK  4 active torsions:
REMARK  status: ('A' for Active; 'I' for Inactive)
REMARK    1  A    between atoms: C_2  and  C_3 
REMARK    2  A    between atoms: C_2  and  N_16 
REMARK    3  A    between atoms: C_3  and  N_4 
REMARK       I    between atoms: N_4  and  C_5 
REMARK       I    between atoms: C_5  and  N_7 
REMARK    4  A    between atoms: N_7  and  C_8 
ROOT
HETATM    1  N   UNL     1       2.214   0.483  -2.576  1.00  0.00    -0.341 N 
HETATM    2  C   UNL     1       2.014   1.476  -3.490  1.00  0.00     0.321 C 
HETATM    3  O   UNL     1       2.070   2.673  -3.285  1.00  0.00    -0.247 OA
HETATM    4  N   UNL     1       1.790   0.925  -4.782  1.00  0.00    -0.293 N 
HETATM    5  H   UNL     1       2.411  -0.430  -2.938  1.00  0.00     0.164 HD
HETATM    6  H   UNL     1       1.836  -0.070  -4.919  1.00  0.00     0.172 HD
ENDROOT
BRANCH   1   7
HETATM    7  C   UNL     1       2.817   0.838  -1.306  1.00  0.00     0.159 C 
BRANCH   7   8
HETATM    8  C   UNL     1       2.428  -0.014  -0.059  1.00  0.00     0.236 C 
HETATM    9  C   UNL     1       2.945   0.824   1.141  1.00  0.00     0.044 C 
BRANCH   8  10
HETATM   10  N   UNL     1       3.000  -1.391  -0.012  1.00  0.00     0.098 N 
HETATM   11  C   UNL     1       2.544  -2.330  -1.063  1.00  0.00     0.299 C 
HETATM   12  C   UNL     1       1.077  -2.772  -0.932  1.00  0.00     0.198 C 
HETATM   13  O   UNL     1       0.827  -3.374   0.341  1.00  0.00    -0.388 OA
HETATM   14  C   UNL     1       1.229  -2.514   1.414  1.00  0.00     0.198 C 
HETATM   15  C   UNL     1       2.706  -2.098   1.272  1.00  0.00     0.299 C 
ENDBRANCH   8  10
ENDBRANCH   7   8
ENDBRANCH   1   7
BRANCH   4  16
HETATM   16  C   UNL     1       1.546   1.724  -5.893  1.00  0.00     0.127 A 
HETATM   17  C   UNL     1       1.199   3.057  -5.911  1.00  0.00     0.076 A 
HETATM   18  C   UNL     1       1.073   3.401  -7.273  1.00  0.00     0.025 A 
HETATM   19  C   UNL     1       0.740   4.733  -7.830  1.00  0.00     0.070 C 
HETATM   20  N   UNL     1       1.312   2.356  -8.074  1.00  0.00    -0.302 N 
HETATM   21  N   UNL     1       1.592   1.352  -7.218  1.00  0.00    -0.281 N 
ATOM     22  HN  UNL     1       1.288   2.326  -9.093  1.00  0.00     0.186 HD
HETATM   23  C   UNL     1       2.006   0.073  -7.748  1.00  0.00     0.179 C 
ENDBRANCH   4  16
TORSDOF 4
