REMARK  3 active torsions:
REMARK  status: ('A' for Active; 'I' for Inactive)
REMARK    1  A    between atoms: C_5  and  N_8 
REMARK    2  A    between atoms: C_11  and  N_14 
REMARK       I    between atoms: N_14  and  C_15 
REMARK       I    between atoms: C_15  and  N_17 
REMARK    3  A    between atoms: N_17  and  C_18 
ROOT
HETATM    1  N   UNL     1       6.785  -0.947  -5.876  1.00  0.00    -0.338 N 
HETATM    2  C   UNL     1       7.374  -0.231  -6.894  1.00  0.00     0.322 C 
HETATM    3  O   UNL     1       6.743   0.508  -7.640  1.00  0.00    -0.247 OA
HETATM    4  N   UNL     1       8.716  -0.508  -6.981  1.00  0.00    -0.295 N 
HETATM    5  H   UNL     1       7.368  -1.056  -5.058  1.00  0.00     0.164 HD
HETATM    6  H   UNL     1       8.958  -1.470  -6.793  1.00  0.00     0.172 HD
ENDROOT
BRANCH   1   7
HETATM    7  C   UNL     1       5.337  -0.911  -5.687  1.00  0.00     0.089 C 
HETATM    8  C   UNL     1       4.878   0.377  -4.995  1.00  0.00     0.055 C 
HETATM    9  C   UNL     1       5.166   0.340  -3.493  1.00  0.00     0.275 C 
HETATM   10  N   UNL     1       4.589  -0.835  -2.813  1.00  0.00     0.093 N 
HETATM   11  C   UNL     1       5.150  -2.051  -3.432  1.00  0.00     0.275 C 
HETATM   12  C   UNL     1       4.866  -2.156  -4.931  1.00  0.00     0.055 C 
BRANCH  10  13
HETATM   13  C   UNL     1       3.101  -0.818  -2.729  1.00  0.00     0.226 C 
HETATM   14  C   UNL     1       2.551   0.417  -1.977  1.00  0.00     0.066 C 
HETATM   15  C   UNL     1       2.876   0.366  -0.480  1.00  0.00     0.274 C 
HETATM   16  N   UNL     1       2.386  -0.847   0.191  1.00  0.00     0.084 N 
HETATM   17  C   UNL     1       0.936  -0.833   0.370  1.00  0.00     0.309 C 
HETATM   18  C   UNL     1       2.848  -2.051  -0.515  1.00  0.00     0.274 C 
HETATM   19  C   UNL     1       2.511  -2.053  -2.009  1.00  0.00     0.066 C 
ENDBRANCH  10  13
ENDBRANCH   1   7
BRANCH   4  20
HETATM   20  C   UNL     1       9.519   0.049  -7.979  1.00  0.00     0.109 A 
HETATM   21  C   UNL     1       9.459   1.399  -8.292  1.00  0.00     0.055 A 
HETATM   22  C   UNL     1      10.276   1.896  -9.305  1.00  0.00    -0.057 A 
HETATM   23  C   UNL     1      10.295   3.355  -9.641  1.00  0.00     0.048 C 
HETATM   24  C   UNL     1      11.085   0.997 -10.001  1.00  0.00     0.031 A 
HETATM   25  C   UNL     1      11.093  -0.343  -9.620  1.00  0.00     0.007 A 
HETATM   26  C   UNL     1      11.889  -1.353 -10.390  1.00  0.00     0.068 C 
HETATM   27  N   UNL     1      10.353  -0.814  -8.589  1.00  0.00    -0.346 N 
ATOM     28  HN  UNL     1      10.425  -1.785  -8.286  1.00  0.00     0.167 HD
ENDBRANCH   4  20
TORSDOF 3
