REMARK  7 active torsions:
REMARK  status: ('A' for Active; 'I' for Inactive)
REMARK    1  A    between atoms: C_2  and  C_5 
REMARK    2  A    between atoms: C_9  and  N_10 
REMARK    3  A    between atoms: N_10  and  C_11 
REMARK    4  A    between atoms: C_11  and  C_12 
REMARK    5  A    between atoms: C_12  and  O_13 
REMARK    6  A    between atoms: O_13  and  C_14 
REMARK    7  A    between atoms: C_14  and  C_15 
ROOT
HETATM    1  C   UNL     1       2.322  -0.736   1.442  1.00  0.00     0.117 A 
HETATM    2  C   UNL     1       2.600   0.168   2.468  1.00  0.00     0.034 A 
HETATM    3  C   UNL     1       3.034  -0.322   3.691  1.00  0.00     0.005 A 
HETATM    4  C   UNL     1       3.189  -1.694   3.853  1.00  0.00     0.042 A 
HETATM    5  C   UNL     1       2.923  -2.552   2.788  1.00  0.00     0.080 A 
HETATM    6  N   UNL     1       2.484  -2.084   1.605  1.00  0.00    -0.343 N 
ATOM      7  HN  UNL     1       2.275  -2.726   0.840  1.00  0.00     0.167 HD
ENDROOT
BRANCH   5   8
HETATM    8  N   UNL     1       3.089  -3.929   3.004  1.00  0.00    -0.277 NA
HETATM    9  H   UNL     1       4.016  -4.083   3.390  1.00  0.00     0.129 HD
BRANCH   8  10
HETATM   10  C   UNL     1       2.835  -4.784   1.841  1.00  0.00     0.120 C 
BRANCH  10  11
HETATM   11  C   UNL     1       3.026  -6.255   2.238  1.00  0.00     0.182 C 
BRANCH  11  12
HETATM   12  O   UNL     1       2.811  -7.113   1.115  1.00  0.00    -0.387 OA
BRANCH  12  13
HETATM   13  C   UNL     1       2.982  -8.485   1.479  1.00  0.00     0.199 C 
BRANCH  13  14
HETATM   14  C   UNL     1       2.731  -9.391   0.277  1.00  0.00     0.145 C 
HETATM   15  C   UNL     1       1.320  -9.297  -0.286  1.00  0.00     0.036 C 
HETATM   16  C   UNL     1       0.984 -10.712  -0.712  1.00  0.00     0.029 C 
HETATM   17  C   UNL     1       2.203 -11.531  -0.342  1.00  0.00     0.168 C 
HETATM   18  O   UNL     1       2.909 -10.769   0.641  1.00  0.00    -0.384 OA
ENDBRANCH  13  14
ENDBRANCH  12  13
ENDBRANCH  11  12
ENDBRANCH  10  11
ENDBRANCH   8  10
ENDBRANCH   5   8
BRANCH   1  19
HETATM   19  C   UNL     1       1.824  -0.218   0.100  1.00  0.00     0.432 C 
HETATM   20  F   UNL     1       1.654   1.140   0.075  1.00  0.00    -0.165 F 
HETATM   21  F   UNL     1       0.616  -0.735  -0.264  1.00  0.00    -0.165 F 
HETATM   22  F   UNL     1       2.677  -0.490  -0.930  1.00  0.00    -0.165 F 
ENDBRANCH   1  19
TORSDOF 7
