REMARK  5 active torsions:
REMARK  status: ('A' for Active; 'I' for Inactive)
REMARK    1  A    between atoms: C_2  and  C_3 
REMARK    2  A    between atoms: C_2  and  N_10 
REMARK    3  A    between atoms: C_3  and  N_4 
REMARK    4  A    between atoms: N_10  and  S_11 
REMARK    5  A    between atoms: S_11  and  N_14 
ROOT
HETATM    1  N   UNL     1       3.298   0.527   1.231  1.00  0.00    -0.201 NA
HETATM    2  H   UNL     1       2.872   0.127   2.072  1.00  0.00     0.141 HD
ENDROOT
BRANCH   1   3
HETATM    3  C   UNL     1       2.569   0.017   0.004  1.00  0.00     0.088 C 
HETATM    4  C   UNL     1       1.071   0.306   0.146  1.00  0.00     0.029 C 
BRANCH   3   5
HETATM    5  C   UNL     1       3.103   0.558  -1.335  1.00  0.00     0.168 C 
BRANCH   5   6
HETATM    6  N   UNL     1       2.930   1.985  -1.515  1.00  0.00    -0.302 N 
HETATM    7  C   UNL     1       3.474   2.996  -0.778  1.00  0.00     0.111 A 
HETATM    8  C   UNL     1       2.951   4.167  -1.270  1.00  0.00     0.037 A 
HETATM    9  C   UNL     1       2.127   3.761  -2.331  1.00  0.00     0.108 A 
HETATM   10  N   UNL     1       2.106   2.431  -2.486  1.00  0.00    -0.310 N 
ATOM     11  HN  UNL     1       1.589   1.884  -3.175  1.00  0.00     0.186 HD
ENDBRANCH   5   6
ENDBRANCH   3   5
ENDBRANCH   1   3
BRANCH   1  12
HETATM   12  S   UNL     1       4.930   0.114   1.287  1.00  0.00     0.281 S 
HETATM   13  O   UNL     1       4.964  -1.321   1.427  1.00  0.00    -0.194 OA
HETATM   14  O   UNL     1       5.621   0.778   0.206  1.00  0.00    -0.194 OA
BRANCH  12  15
HETATM   15  N   UNL     1       5.414   0.803   2.744  1.00  0.00    -0.198 NA
HETATM   16  C   UNL     1       5.329   2.278   2.921  1.00  0.00     0.108 C 
HETATM   17  C   UNL     1       6.456   3.027   2.212  1.00  0.00     0.015 C 
HETATM   18  C   UNL     1       7.843   2.437   2.474  1.00  0.00     0.002 C 
HETATM   19  C   UNL     1       7.868   0.914   2.389  1.00  0.00     0.015 C 
HETATM   20  C   UNL     1       6.739   0.301   3.213  1.00  0.00     0.108 C 
ENDBRANCH  12  15
ENDBRANCH   1  12
TORSDOF 5
