REMARK  3 active torsions:
REMARK  status: ('A' for Active; 'I' for Inactive)
REMARK    1  A    between atoms: O_1  and  C_2 
REMARK    2  A    between atoms: C_2  and  C_3 
REMARK    3  A    between atoms: C_3  and  N_4 
ROOT
HETATM    1  N   UNL     1       2.701   1.493   1.963  1.00  0.00    -0.338 N 
HETATM    2  C   UNL     1       3.444   2.638   1.860  1.00  0.00     0.184 A 
HETATM    3  N   UNL     1       2.958   3.604   2.604  1.00  0.00    -0.350 N 
ATOM      4  HN  UNL     1       3.314   4.555   2.694  1.00  0.00     0.166 HD
HETATM    5  C   UNL     1       1.867   3.059   3.235  1.00  0.00     0.060 A 
HETATM    6  C   UNL     1       1.002   3.633   4.178  1.00  0.00     0.032 A 
HETATM    7  C   UNL     1      -0.049   2.862   4.688  1.00  0.00     0.002 A 
HETATM    8  C   UNL     1      -0.244   1.548   4.256  1.00  0.00     0.002 A 
HETATM    9  C   UNL     1       0.609   0.957   3.316  1.00  0.00     0.032 A 
HETATM   10  C   UNL     1       1.665   1.739   2.834  1.00  0.00     0.062 A 
ENDROOT
BRANCH   1  11
HETATM   11  C   UNL     1       3.046   0.215   1.369  1.00  0.00     0.167 C 
BRANCH  11  12
HETATM   12  C   UNL     1       2.461  -0.044  -0.038  1.00  0.00     0.074 C 
HETATM   13  C   UNL     1       2.936   0.991  -1.075  1.00  0.00     0.039 C 
HETATM   14  C   UNL     1       2.505   0.642  -2.501  1.00  0.00     0.003 C 
HETATM   15  C   UNL     1       2.937  -0.766  -2.896  1.00  0.00     0.000 C 
HETATM   16  C   UNL     1       2.429  -1.800  -1.900  1.00  0.00     0.003 C 
HETATM   17  C   UNL     1       2.875  -1.466  -0.477  1.00  0.00     0.039 C 
BRANCH  12  18
HETATM   18  O   UNL     1       1.029  -0.033   0.023  1.00  0.00    -0.388 OA
HETATM   19  H   UNL     1       0.734   0.878   0.207  1.00  0.00     0.210 HD
ENDBRANCH  12  18
ENDBRANCH  11  12
ENDBRANCH   1  11
TORSDOF 3
