REMARK  7 active torsions:
REMARK  status: ('A' for Active; 'I' for Inactive)
REMARK    1  A    between atoms: O_2  and  C_3 
REMARK    2  A    between atoms: C_3  and  C_4 
REMARK    3  A    between atoms: C_4  and  N_5 
REMARK    4  A    between atoms: C_8  and  C_9 
REMARK    5  A    between atoms: C_9  and  N_10 
REMARK       I    between atoms: N_10  and  C_11 
REMARK    6  A    between atoms: C_11  and  C_13 
REMARK    7  A    between atoms: C_13  and  N_14 
ROOT
HETATM    1  N   UNL     1       4.120  -6.389  -3.093  1.00  0.00    -0.359 N 
HETATM    2  C   UNL     1       3.923  -7.636  -2.543  1.00  0.00     0.235 C 
HETATM    3  O   UNL     1       4.444  -8.009  -1.494  1.00  0.00    -0.272 OA
HETATM    4  H   UNL     1       3.460  -6.075  -3.803  1.00  0.00     0.162 HD
ENDROOT
BRANCH   1   5
HETATM    5  C   UNL     1       5.029  -5.422  -2.514  1.00  0.00     0.127 C 
BRANCH   5   6
HETATM    6  C   UNL     1       4.381  -4.544  -1.426  1.00  0.00     0.007 C 
HETATM    7  C   UNL     1       3.254  -3.650  -1.972  1.00  0.00     0.036 C 
HETATM    8  C   UNL     1       3.782  -2.488  -2.825  1.00  0.00     0.273 C 
HETATM    9  N   UNL     1       4.820  -1.677  -2.164  1.00  0.00     0.090 N 
HETATM   10  C   UNL     1       5.911  -2.531  -1.679  1.00  0.00     0.273 C 
HETATM   11  C   UNL     1       5.443  -3.658  -0.754  1.00  0.00     0.036 C 
BRANCH   9  12
HETATM   12  C   UNL     1       4.243  -0.789  -1.133  1.00  0.00     0.298 C 
BRANCH  12  13
HETATM   13  C   UNL     1       5.261   0.165  -0.483  1.00  0.00     0.197 C 
BRANCH  13  14
HETATM   14  O   UNL     1       4.604   1.013   0.464  1.00  0.00    -0.394 OA
HETATM   15  C   UNL     1       5.545   1.854   1.123  1.00  0.00     0.201 C 
ENDBRANCH  13  14
ENDBRANCH  12  13
ENDBRANCH   9  12
ENDBRANCH   5   6
ENDBRANCH   1   5
BRANCH   2  16
HETATM   16  C   UNL     1       2.945  -8.515  -3.318  1.00  0.00     0.235 C 
BRANCH  16  17
HETATM   17  N   UNL     1       1.592  -8.323  -2.812  1.00  0.00    -0.301 N 
HETATM   18  C   UNL     1       1.127  -9.115  -1.788  1.00  0.00     0.097 A 
HETATM   19  C   UNL     1      -0.097  -8.942  -1.291  1.00  0.00     0.034 A 
HETATM   20  C   UNL     1      -0.861  -7.863  -1.928  1.00  0.00     0.094 A 
HETATM   21  N   UNL     1      -0.441  -7.095  -2.873  1.00  0.00    -0.319 N 
HETATM   22  C   UNL     1       0.838  -7.272  -3.343  1.00  0.00     0.326 A 
ATOM     23  HN  UNL     1      -1.044  -6.371  -3.264  1.00  0.00     0.170 HD
HETATM   24  O   UNL     1       1.316  -6.526  -4.197  1.00  0.00    -0.246 OA
ENDBRANCH  16  17
ENDBRANCH   2  16
TORSDOF 7
