REMARK  3 active torsions:
REMARK  status: ('A' for Active; 'I' for Inactive)
REMARK    1  A    between atoms: O_2  and  C_3 
REMARK    2  A    between atoms: C_9  and  N_10 
REMARK       I    between atoms: N_10  and  C_11 
REMARK       I    between atoms: C_11  and  N_13 
REMARK    3  A    between atoms: N_13  and  C_14 
ROOT
HETATM    1  N   UNL     1       4.601  -1.125  -1.254  1.00  0.00    -0.292 N 
HETATM    2  C   UNL     1       4.419  -1.846  -0.097  1.00  0.00     0.322 C 
HETATM    3  O   UNL     1       4.273  -1.394   1.034  1.00  0.00    -0.247 OA
HETATM    4  N   UNL     1       4.398  -3.206  -0.314  1.00  0.00    -0.336 N 
HETATM    5  H   UNL     1       5.000  -1.571  -2.063  1.00  0.00     0.172 HD
HETATM    6  H   UNL     1       4.676  -3.585  -1.208  1.00  0.00     0.164 HD
ENDROOT
BRANCH   1   7
HETATM    7  C   UNL     1       4.448   0.274  -1.329  1.00  0.00     0.143 A 
HETATM    8  C   UNL     1       4.946   0.956  -2.454  1.00  0.00     0.112 A 
HETATM    9  C   UNL     1       4.746   2.337  -2.518  1.00  0.00     0.042 A 
HETATM   10  C   UNL     1       4.097   2.995  -1.478  1.00  0.00     0.020 A 
HETATM   11  C   UNL     1       3.652   2.244  -0.410  1.00  0.00     0.090 A 
HETATM   12  N   UNL     1       3.807   0.913  -0.328  1.00  0.00    -0.350 N 
ATOM     13  HN  UNL     1       3.448   0.395   0.474  1.00  0.00     0.166 HD
BRANCH   8  14
HETATM   14  O   UNL     1       5.588   0.223  -3.424  1.00  0.00    -0.352 OA
HETATM   15  C   UNL     1       6.500   0.964  -4.236  1.00  0.00     0.210 C 
ENDBRANCH   8  14
ENDBRANCH   1   7
BRANCH   4  16
HETATM   16  C   UNL     1       4.256  -4.145   0.804  1.00  0.00     0.110 C 
HETATM   17  C   UNL     1       5.624  -4.468   1.417  1.00  0.00     0.029 C 
HETATM   18  C   UNL     1       6.464  -5.319   0.466  1.00  0.00     0.028 C 
HETATM   19  C   UNL     1       5.675  -6.516  -0.054  1.00  0.00     0.167 C 
HETATM   20  O   UNL     1       4.427  -6.115  -0.620  1.00  0.00    -0.389 OA
HETATM   21  C   UNL     1       3.595  -5.447   0.339  1.00  0.00     0.192 C 
ENDBRANCH   4  16
TORSDOF 3
