REMARK  8 active torsions:
REMARK  status: ('A' for Active; 'I' for Inactive)
REMARK    1  A    between atoms: C_2  and  N_3 
REMARK    2  A    between atoms: C_7  and  C_8 
REMARK    3  A    between atoms: C_8  and  N_9 
REMARK    4  A    between atoms: N_9  and  C_10 
REMARK    5  A    between atoms: C_10  and  C_11 
REMARK    6  A    between atoms: C_11  and  O_12 
REMARK    7  A    between atoms: C_11  and  C_13 
REMARK    8  A    between atoms: C_13  and  N_14 
ROOT
HETATM    1  C   UNL     1      -3.334   4.525  -2.142  1.00  0.00     0.164 C 
ENDROOT
BRANCH   1   2
HETATM    2  C   UNL     1      -2.268   3.689  -2.885  1.00  0.00     0.302 C 
BRANCH   2   3
HETATM    3  N   UNL     1      -1.247   3.253  -1.925  1.00  0.00     0.088 N 
HETATM    4  H   UNL     1      -0.764   4.053  -1.505  1.00  0.00     0.316 HD
BRANCH   3   5
HETATM    5  C   UNL     1      -0.188   2.449  -2.544  1.00  0.00     0.303 C 
BRANCH   5   6
HETATM    6  C   UNL     1       0.845   2.121  -1.451  1.00  0.00     0.177 C 
HETATM    7  O   UNL     1       1.379   3.367  -0.943  1.00  0.00    -0.381 OA
HETATM    8  C   UNL     1       2.334   3.110   0.096  1.00  0.00     0.198 C 
HETATM    9  C   UNL     1       3.481   2.212  -0.404  1.00  0.00     0.298 C 
HETATM   10  N   UNL     1       3.031   0.935  -1.011  1.00  0.00     0.092 N 
HETATM   11  C   UNL     1       1.984   1.247  -2.010  1.00  0.00     0.306 C 
BRANCH  10  12
HETATM   12  C   UNL     1       2.615  -0.017   0.031  1.00  0.00     0.268 C 
HETATM   13  C   UNL     1       2.130  -1.361  -0.503  1.00  0.00     0.037 C 
ENDBRANCH  10  12
ENDBRANCH   5   6
ENDBRANCH   3   5
ENDBRANCH   2   3
ENDBRANCH   1   2
BRANCH   1  14
HETATM   14  O   UNL     1      -3.841   3.733  -1.058  1.00  0.00    -0.392 OA
HETATM   15  H   UNL     1      -3.074   3.223  -0.728  1.00  0.00     0.210 HD
ENDBRANCH   1  14
BRANCH   1  16
HETATM   16  C   UNL     1      -2.730   5.824  -1.598  1.00  0.00     0.163 C 
BRANCH  16  17
HETATM   17  N   UNL     1      -3.703   6.669  -0.942  1.00  0.00    -0.339 N 
HETATM   18  C   UNL     1      -3.992   6.636   0.394  1.00  0.00     0.184 A 
HETATM   19  N   UNL     1      -4.821   7.597   0.731  1.00  0.00    -0.350 N 
HETATM   20  C   UNL     1      -5.096   8.256  -0.443  1.00  0.00     0.060 A 
ATOM     21  HN  UNL     1      -5.182   7.808   1.661  1.00  0.00     0.166 HD
HETATM   22  C   UNL     1      -5.922   9.364  -0.671  1.00  0.00     0.039 A 
HETATM   23  C   UNL     1      -4.412   7.692  -1.511  1.00  0.00     0.062 A 
HETATM   24  C   UNL     1      -6.042   9.888  -1.974  1.00  0.00    -0.054 A 
HETATM   25  C   UNL     1      -6.926  11.087  -2.176  1.00  0.00     0.049 C 
HETATM   26  C   UNL     1      -5.342   9.290  -3.045  1.00  0.00    -0.054 A 
HETATM   27  C   UNL     1      -5.422   9.795  -4.462  1.00  0.00     0.049 C 
HETATM   28  C   UNL     1      -4.512   8.175  -2.818  1.00  0.00     0.039 A 
ENDBRANCH  16  17
ENDBRANCH   1  16
TORSDOF 8
