REMARK  4 active torsions:
REMARK  status: ('A' for Active; 'I' for Inactive)
REMARK    1  A    between atoms: C_2  and  N_3 
REMARK    2  A    between atoms: C_2  and  C_20 
REMARK       I    between atoms: N_3  and  C_4 
REMARK       I    between atoms: C_4  and  N_6 
REMARK    3  A    between atoms: N_6  and  C_7 
REMARK    4  A    between atoms: C_10  and  N_14 
ROOT
HETATM    1  C   UNL     1       2.895   0.291  -5.055  1.00  0.00     0.051 A 
HETATM    2  C   UNL     1       2.954  -1.051  -5.406  1.00  0.00     0.035 A 
HETATM    3  C   UNL     1       2.889  -1.433  -6.746  1.00  0.00     0.051 A 
HETATM    4  C   UNL     1       2.765  -0.482  -7.753  1.00  0.00     0.103 A 
HETATM    5  N   UNL     1       2.688   0.831  -7.430  1.00  0.00    -0.350 N 
ATOM      6  HN  UNL     1       2.566   1.540  -8.153  1.00  0.00     0.166 HD
HETATM    7  C   UNL     1       2.777   1.183  -6.114  1.00  0.00     0.119 A 
ENDROOT
BRANCH   1   8
HETATM    8  N   UNL     1       2.964   0.748  -3.715  1.00  0.00    -0.308 N 
HETATM    9  C   UNL     1       2.760  -0.046  -2.606  1.00  0.00     0.321 C 
HETATM   10  N   UNL     1       2.978   0.607  -1.412  1.00  0.00    -0.336 N 
HETATM   11  O   UNL     1       2.425  -1.224  -2.626  1.00  0.00    -0.247 OA
HETATM   12  H   UNL     1       3.047   1.615  -1.386  1.00  0.00     0.164 HD
HETATM   13  H   UNL     1       3.009   1.746  -3.565  1.00  0.00     0.170 HD
BRANCH  10  14
HETATM   14  C   UNL     1       2.629  -0.064  -0.151  1.00  0.00     0.111 C 
HETATM   15  C   UNL     1       1.140   0.144   0.139  1.00  0.00     0.035 C 
BRANCH  14  16
HETATM   16  C   UNL     1       3.548   0.392   0.999  1.00  0.00     0.143 C 
HETATM   17  C   UNL     1       3.375  -0.388   2.304  1.00  0.00     0.036 C 
HETATM   18  C   UNL     1       3.333   0.669   3.387  1.00  0.00     0.029 C 
HETATM   19  C   UNL     1       3.766   1.935   2.685  1.00  0.00     0.168 C 
HETATM   20  O   UNL     1       3.338   1.779   1.328  1.00  0.00    -0.384 OA
ENDBRANCH  14  16
ENDBRANCH  10  14
ENDBRANCH   1   8
BRANCH   4  21
HETATM   21  N   UNL     1       2.757  -0.850  -9.080  1.00  0.00    -0.367 N 
HETATM   22  C   UNL     1       3.466  -2.026  -9.567  1.00  0.00     0.124 C 
HETATM   23  C   UNL     1       4.304  -1.637 -10.785  1.00  0.00     0.020 C 
HETATM   24  C   UNL     1       3.457  -0.946 -11.850  1.00  0.00     0.003 C 
HETATM   25  C   UNL     1       2.698   0.245 -11.263  1.00  0.00     0.020 C 
HETATM   26  C   UNL     1       1.894  -0.152 -10.025  1.00  0.00     0.124 C 
ENDBRANCH   4  21
TORSDOF 4
