REMARK  7 active torsions:
REMARK  status: ('A' for Active; 'I' for Inactive)
REMARK    1  A    between atoms: N_2  and  C_13 
REMARK    2  A    between atoms: N_4  and  C_7 
REMARK    3  A    between atoms: C_13  and  C_17 
REMARK    4  A    between atoms: C_17  and  C_22 
REMARK    5  A    between atoms: C_19  and  C_24 
REMARK    6  A    between atoms: C_22  and  O_23 
REMARK    7  A    between atoms: C_24  and  O_27 
ROOT
HETATM    1  C   UNL     1       0.387  -0.718   0.044  1.00  0.00     0.122 A 
HETATM    2  N   UNL     1       1.494   1.190   0.079  1.00  0.00    -0.326 N 
HETATM    3  C   UNL     1       0.221   0.662   0.074  1.00  0.00     0.140 A 
HETATM    4  N   UNL     1       1.737  -1.027   0.076  1.00  0.00    -0.346 N 
ATOM      5  HN  UNL     1       2.159  -1.956   0.065  1.00  0.00     0.167 HD
HETATM    6  C   UNL     1      -0.786  -1.526  -0.006  1.00  0.00     0.135 A 
HETATM    7  C   UNL     1       2.360   0.132   0.123  1.00  0.00     0.185 A 
HETATM    8  N   UNL     1      -0.942   1.337   0.048  1.00  0.00    -0.336 N 
ATOM      9  HN  UNL     1      -1.021   2.354   0.047  1.00  0.00     0.168 HD
HETATM   10  N   UNL     1      -1.980  -0.863  -0.002  1.00  0.00    -0.337 N 
ATOM     11  HN  UNL     1      -2.856  -1.385  -0.018  1.00  0.00     0.168 HD
HETATM   12  C   UNL     1      -1.995   0.485   0.023  1.00  0.00     0.183 A 
ENDROOT
BRANCH   2  13
HETATM   13  C   UNL     1       1.860   2.614   0.041  1.00  0.00     0.143 C 
BRANCH  13  14
HETATM   14  C   UNL     1       2.042   3.205  -1.395  1.00  0.00     0.001 C 
HETATM   15  C   UNL     1       3.292   2.591  -2.073  1.00  0.00     0.039 C 
HETATM   16  C   UNL     1       4.584   3.181  -1.502  1.00  0.00     0.168 C 
HETATM   17  O   UNL     1       4.627   4.573  -1.784  1.00  0.00    -0.391 OA
HETATM   18  C   UNL     1       3.613   5.291  -1.091  1.00  0.00     0.168 C 
HETATM   19  C   UNL     1       2.220   4.758  -1.403  1.00  0.00     0.039 C 
BRANCH  14  20
HETATM   20  C   UNL     1       0.759   2.934  -2.223  1.00  0.00     0.175 C 
BRANCH  20  21
HETATM   21  O   UNL     1      -0.368   3.543  -1.595  1.00  0.00    -0.400 OA
HETATM   22  H   UNL     1      -0.715   2.911  -0.930  1.00  0.00     0.209 HD
ENDBRANCH  20  21
ENDBRANCH  14  20
ENDBRANCH  13  14
ENDBRANCH   2  13
BRANCH   6  23
HETATM   23  N   UNL     1      -0.776  -2.927   0.010  1.00  0.00    -0.360 N 
HETATM   24  C   UNL     1      -2.083  -3.606   0.138  1.00  0.00     0.158 C 
HETATM   25  C   UNL     1      -1.848  -5.105   0.452  1.00  0.00     0.163 C 
HETATM   26  O   UNL     1      -1.027  -5.709  -0.580  1.00  0.00    -0.376 OA
HETATM   27  C   UNL     1       0.257  -5.058  -0.640  1.00  0.00     0.136 C 
HETATM   28  C   UNL     1       0.087  -3.566  -1.001  1.00  0.00     0.156 C 
HETATM   29  C   UNL     1       1.104  -5.785  -1.674  1.00  0.00     0.041 C 
BRANCH  25  30
HETATM   30  C   UNL     1      -3.182  -5.861   0.533  1.00  0.00     0.200 C 
BRANCH  30  31
HETATM   31  O   UNL     1      -2.950  -7.204   0.980  1.00  0.00    -0.393 OA
HETATM   32  C   UNL     1      -4.148  -7.967   1.015  1.00  0.00     0.201 C 
ENDBRANCH  30  31
ENDBRANCH  25  30
ENDBRANCH   6  23
TORSDOF 7
