REMARK  5 active torsions:
REMARK  status: ('A' for Active; 'I' for Inactive)
REMARK    1  A    between atoms: C_2  and  C_4 
REMARK    2  A    between atoms: C_4  and  C_5 
REMARK       I    between atoms: C_5  and  N_7 
REMARK    3  A    between atoms: N_7  and  C_8 
REMARK    4  A    between atoms: C_8  and  C_9 
REMARK    5  A    between atoms: C_12  and  N_16 
ROOT
HETATM    1  C   UNL     1       7.099  -2.167  -3.748  1.00  0.00    -0.025 A 
HETATM    2  C   UNL     1       7.493  -1.419  -4.851  1.00  0.00     0.014 A 
HETATM    3  C   UNL     1       7.737  -2.060  -6.067  1.00  0.00     0.049 A 
HETATM    4  C   UNL     1       7.576  -3.441  -6.177  1.00  0.00     0.103 A 
HETATM    5  N   UNL     1       7.239  -4.175  -5.096  1.00  0.00    -0.352 N 
ATOM      6  HN  UNL     1       7.149  -5.189  -5.164  1.00  0.00     0.166 HD
HETATM    7  C   UNL     1       7.023  -3.541  -3.919  1.00  0.00     0.098 A 
ENDROOT
BRANCH   1   8
HETATM    8  C   UNL     1       6.741  -1.525  -2.444  1.00  0.00     0.162 C 
BRANCH   8   9
HETATM    9  N   UNL     1       7.896  -1.294  -1.613  1.00  0.00    -0.357 N 
HETATM   10  C   UNL     1       7.752  -0.664  -0.399  1.00  0.00     0.218 C 
HETATM   11  O   UNL     1       6.669  -0.302   0.045  1.00  0.00    -0.274 OA
HETATM   12  H   UNL     1       8.800  -1.629  -1.914  1.00  0.00     0.162 HD
BRANCH  10  13
HETATM   13  C   UNL     1       9.045  -0.460   0.366  1.00  0.00     0.106 C 
BRANCH  13  14
HETATM   14  C   UNL     1      10.066   0.410  -0.382  1.00  0.00    -0.014 C 
HETATM   15  C   UNL     1       9.524   1.817  -0.644  1.00  0.00     0.010 C 
HETATM   16  C   UNL     1      11.366   0.494   0.419  1.00  0.00     0.010 C 
ENDBRANCH  13  14
ENDBRANCH  10  13
ENDBRANCH   8   9
ENDBRANCH   1   8
BRANCH   4  17
HETATM   17  N   UNL     1       7.692  -4.072  -7.392  1.00  0.00    -0.363 N 
HETATM   18  C   UNL     1       6.925  -5.292  -7.660  1.00  0.00     0.150 C 
HETATM   19  C   UNL     1       7.855  -6.453  -8.033  1.00  0.00     0.187 C 
HETATM   20  O   UNL     1       8.752  -6.090  -9.097  1.00  0.00    -0.388 OA
HETATM   21  C   UNL     1       9.572  -4.984  -8.689  1.00  0.00     0.187 C 
HETATM   22  C   UNL     1       8.730  -3.737  -8.367  1.00  0.00     0.150 C 
ENDBRANCH   4  17
TORSDOF 5
