REMARK  7 active torsions:
REMARK  status: ('A' for Active; 'I' for Inactive)
REMARK    1  A    between atoms: C_2  and  C_3 
REMARK    2  A    between atoms: C_3  and  N_4 
REMARK       I    between atoms: N_4  and  C_5 
REMARK    3  A    between atoms: C_5  and  C_7 
REMARK    4  A    between atoms: C_7  and  N_8 
REMARK    5  A    between atoms: C_11  and  C_12 
REMARK    6  A    between atoms: C_12  and  N_13 
REMARK    7  A    between atoms: N_17  and  C_18 
ROOT
HETATM    1  N   UNL     1       7.597  -3.028   0.676  1.00  0.00    -0.256 N 
HETATM    2  C   UNL     1       7.247  -4.199   0.031  1.00  0.00     0.273 C 
HETATM    3  O   UNL     1       6.615  -4.304  -1.011  1.00  0.00    -0.266 OA
HETATM    4  C   UNL     1       7.762  -5.411   0.626  1.00  0.00     0.110 C 
HETATM    5  C   UNL     1       8.964  -5.314   1.206  1.00  0.00     0.123 C 
HETATM    6  N   UNL     1       9.593  -4.095   1.347  1.00  0.00    -0.303 N 
HETATM    7  C   UNL     1       8.906  -2.884   1.144  1.00  0.00     0.332 C 
HETATM    8  O   UNL     1       9.440  -1.785   1.305  1.00  0.00    -0.246 OA
ENDROOT
BRANCH   1   9
HETATM    9  C   UNL     1       6.889  -1.798   0.336  1.00  0.00     0.239 C 
BRANCH   9  10
HETATM   10  C   UNL     1       5.397  -1.907   0.675  1.00  0.00     0.236 C 
HETATM   11  N   UNL     1       4.480  -2.047  -0.334  1.00  0.00    -0.356 N 
HETATM   12  H   UNL     1       3.543  -2.201   0.016  1.00  0.00     0.162 HD
HETATM   13  O   UNL     1       5.005  -1.919   1.842  1.00  0.00    -0.272 OA
BRANCH  11  14
HETATM   14  C   UNL     1       4.748  -2.585  -1.646  1.00  0.00     0.149 C 
BRANCH  14  15
HETATM   15  C   UNL     1       3.996  -1.852  -2.689  1.00  0.00    -0.018 C 
HETATM   16  C   UNL     1       3.397  -2.499  -3.699  1.00  0.00     0.008 C 
ENDBRANCH  14  15
ENDBRANCH  11  14
ENDBRANCH   9  10
ENDBRANCH   1   9
BRANCH   4  17
HETATM   17  C   UNL     1       7.105  -6.765   0.415  1.00  0.00    -0.030 C 
BRANCH  17  18
HETATM   18  N   UNL     1       6.559  -7.888   0.240  1.00  0.00    -0.365 N 
ATOM     19  HN2 UNL     1       6.964  -6.963   0.384  1.00  0.00     0.165 HD
ATOM     20  HN1 UNL     1       6.118  -8.797   0.098  1.00  0.00     0.165 HD
ENDBRANCH  17  18
ENDBRANCH   4  17
BRANCH   6  21
HETATM   21  C   UNL     1      10.967  -4.081   1.799  1.00  0.00     0.094 A 
HETATM   22  C   UNL     1      12.065  -3.486   0.944  1.00  0.00     0.028 A 
HETATM   23  C   UNL     1      12.034  -4.962   1.186  1.00  0.00     0.028 A 
ENDBRANCH   6  21
TORSDOF 7
