REMARK  5 active torsions:
REMARK  status: ('A' for Active; 'I' for Inactive)
REMARK    1  A    between atoms: C_2  and  C_3 
REMARK    2  A    between atoms: C_2  and  N_10 
REMARK    3  A    between atoms: C_3  and  N_4 
REMARK       I    between atoms: N_10  and  C_11 
REMARK       I    between atoms: C_11  and  N_13 
REMARK    4  A    between atoms: C_16  and  C_17 
REMARK    5  A    between atoms: C_17  and  C_18 
REMARK       I    between atoms: C_18  and  N_20 
ROOT
HETATM    1  N   UNL     1       3.092   1.230   0.834  1.00  0.00    -0.337 N 
HETATM    2  C   UNL     1       4.390   1.122   1.264  1.00  0.00     0.318 C 
HETATM    3  O   UNL     1       5.147   0.271   0.804  1.00  0.00    -0.247 OA
HETATM    4  N   UNL     1       4.770   2.040   2.228  1.00  0.00    -0.334 N 
HETATM    5  C   UNL     1       3.964   3.169   2.702  1.00  0.00     0.128 C 
HETATM    6  C   UNL     1       4.768   4.467   2.668  1.00  0.00     0.025 C 
HETATM    7  C   UNL     1       6.097   4.359   3.436  1.00  0.00    -0.003 C 
HETATM    8  C   UNL     1       6.884   3.157   2.882  1.00  0.00     0.025 C 
HETATM    9  C   UNL     1       6.064   1.865   2.886  1.00  0.00     0.128 C 
HETATM   10  H   UNL     1       2.445   1.506   1.556  1.00  0.00     0.164 HD
ENDROOT
BRANCH   1  11
HETATM   11  C   UNL     1       2.566   0.325  -0.193  1.00  0.00     0.100 C 
HETATM   12  C   UNL     1       1.039   0.303  -0.110  1.00  0.00     0.034 C 
BRANCH  11  13
HETATM   13  C   UNL     1       3.061   0.744  -1.594  1.00  0.00     0.153 C 
BRANCH  13  14
HETATM   14  N   UNL     1       2.630  -0.139  -2.659  1.00  0.00    -0.350 N 
HETATM   15  C   UNL     1       1.838   0.196  -3.723  1.00  0.00     0.108 A 
HETATM   16  C   UNL     1       1.698  -0.969  -4.439  1.00  0.00     0.106 A 
HETATM   17  N   UNL     1       2.390  -1.992  -3.847  1.00  0.00    -0.361 N 
HETATM   18  C   UNL     1       2.957  -1.460  -2.785  1.00  0.00     0.182 A 
ATOM     19  HN  UNL     1       2.453  -2.960  -4.162  1.00  0.00     0.166 HD
ENDBRANCH  13  14
ENDBRANCH  11  13
ENDBRANCH   1  11
BRANCH   7  20
HETATM   20  C   UNL     1       5.913   4.245   4.959  1.00  0.00     0.107 C 
BRANCH  20  21
HETATM   21  C   UNL     1       5.202   5.442   5.549  1.00  0.00     0.215 C 
HETATM   22  O   UNL     1       3.991   5.473   5.734  1.00  0.00    -0.274 OA
HETATM   23  N   UNL     1       5.990   6.517   5.824  1.00  0.00    -0.370 N 
HETATM   24  H   UNL     1       6.996   6.508   5.732  1.00  0.00     0.159 HD
HETATM   25  H   UNL     1       5.549   7.326   6.244  1.00  0.00     0.159 HD
ENDBRANCH  20  21
ENDBRANCH   7  20
TORSDOF 5
