REMARK  1 active torsions:
REMARK  status: ('A' for Active; 'I' for Inactive)
REMARK    1  A    between atoms: C_6  and  C_9 
ROOT
HETATM    1  C   UNL     1       1.906   1.216   1.097  1.00  0.00     0.090 C 
HETATM    2  C   UNL     1       2.740   0.140   0.521  1.00  0.00     0.093 A 
HETATM    3  N   UNL     1       2.262  -0.789  -0.313  1.00  0.00    -0.288 N 
ATOM      4  HN  UNL     1       1.313  -0.912  -0.665  1.00  0.00     0.188 HD
HETATM    5  N   UNL     1       3.363  -1.517  -0.564  1.00  0.00    -0.285 N 
HETATM    6  C   UNL     1       4.448  -1.031   0.109  1.00  0.00     0.128 A 
HETATM    7  N   UNL     1       4.078   0.035   0.793  1.00  0.00    -0.332 N 
ATOM      8  HN  UNL     1       4.652   0.637   1.383  1.00  0.00     0.168 HD
HETATM    9  H   UNL     1       3.316  -2.307  -1.198  1.00  0.00     0.188 HD
ENDROOT
BRANCH   6  10
HETATM   10  C   UNL     1       5.820  -1.609  -0.015  1.00  0.00     0.218 C 
HETATM   11  C   UNL     1       6.278  -1.817  -1.478  1.00  0.00     0.309 C 
HETATM   12  N   UNL     1       5.735  -3.042  -2.108  1.00  0.00     0.088 N 
HETATM   13  C   UNL     1       6.069  -4.182  -1.236  1.00  0.00     0.295 C 
HETATM   14  H   UNL     1       6.199  -3.174  -3.010  1.00  0.00     0.316 HD
HETATM   15  C   UNL     1       5.457  -3.990   0.155  1.00  0.00     0.198 C 
HETATM   16  O   UNL     1       5.930  -2.799   0.791  1.00  0.00    -0.375 OA
ENDBRANCH   6  10
TORSDOF 1
