REMARK  6 active torsions:
REMARK  status: ('A' for Active; 'I' for Inactive)
REMARK    1  A    between atoms: N_8  and  C_9 
REMARK    2  A    between atoms: C_9  and  C_10 
REMARK    3  A    between atoms: C_10  and  O_11 
REMARK    4  A    between atoms: C_10  and  C_12 
REMARK    5  A    between atoms: C_12  and  S_13 
REMARK    6  A    between atoms: S_13  and  C_14 
ROOT
HETATM    1  C   UNL     1       7.655   0.797  -0.049  1.00  0.00     0.162 C 
ENDROOT
BRANCH   1   2
HETATM    2  N   UNL     1       6.532  -0.124  -0.074  1.00  0.00    -0.339 N 
HETATM    3  C   UNL     1       6.326  -1.131   0.828  1.00  0.00     0.184 A 
HETATM    4  N   UNL     1       5.231  -1.806   0.564  1.00  0.00    -0.350 N 
HETATM    5  C   UNL     1       4.711  -1.216  -0.562  1.00  0.00     0.060 A 
ATOM      6  HN  UNL     1       4.849  -2.597   1.083  1.00  0.00     0.166 HD
HETATM    7  C   UNL     1       3.536  -1.518  -1.266  1.00  0.00     0.039 A 
HETATM    8  C   UNL     1       5.526  -0.180  -1.008  1.00  0.00     0.062 A 
HETATM    9  C   UNL     1       3.187  -0.759  -2.402  1.00  0.00    -0.054 A 
HETATM   10  C   UNL     1       1.902  -1.073  -3.117  1.00  0.00     0.049 C 
HETATM   11  C   UNL     1       4.032   0.284  -2.838  1.00  0.00    -0.054 A 
HETATM   12  C   UNL     1       5.232   0.563  -2.158  1.00  0.00     0.039 A 
HETATM   13  C   UNL     1       3.667   1.139  -4.023  1.00  0.00     0.049 C 
ENDBRANCH   1   2
BRANCH   1  14
HETATM   14  C   UNL     1       7.254   2.283   0.047  1.00  0.00     0.146 C 
BRANCH  14  15
HETATM   15  O   UNL     1       6.533   2.541   1.259  1.00  0.00    -0.393 OA
HETATM   16  H   UNL     1       6.987   2.120   2.007  1.00  0.00     0.210 HD
ENDBRANCH  14  15
BRANCH  14  17
HETATM   17  C   UNL     1       8.458   3.238  -0.017  1.00  0.00     0.115 C 
BRANCH  17  18
HETATM   18  S   UNL     1       9.386   3.092  -1.580  1.00  0.00    -0.090 SA
BRANCH  18  19
HETATM   19  C   UNL     1      10.607   4.291  -1.359  1.00  0.00     0.162 A 
HETATM   20  N   UNL     1      10.755   5.086  -0.326  1.00  0.00    -0.279 N 
HETATM   21  N   UNL     1      11.843   5.895  -0.575  1.00  0.00    -0.294 N 
ATOM     22  HN  UNL     1      10.171   5.103   0.510  1.00  0.00     0.189 HD
HETATM   23  C   UNL     1      12.326   5.561  -1.750  1.00  0.00     0.201 A 
ATOM     24  HN  UNL     1      12.207   6.621   0.042  1.00  0.00     0.187 HD
HETATM   25  N   UNL     1      11.583   4.549  -2.278  1.00  0.00    -0.326 N 
HETATM   26  C   UNL     1      11.819   3.897  -3.538  1.00  0.00     0.159 C 
ENDBRANCH  18  19
ENDBRANCH  17  18
ENDBRANCH  14  17
ENDBRANCH   1  14
TORSDOF 6
