REMARK  3 active torsions:
REMARK  status: ('A' for Active; 'I' for Inactive)
REMARK    1  A    between atoms: C_2  and  C_3 
REMARK       I    between atoms: C_2  and  N_12 
REMARK    2  A    between atoms: C_3  and  N_4 
REMARK    3  A    between atoms: N_12  and  C_13 
ROOT
HETATM    1  O   UNL     1       2.810   0.552   0.985  1.00  0.00    -0.272 OA
HETATM    2  C   UNL     1       2.316  -0.227   0.173  1.00  0.00     0.236 C 
HETATM    3  N   UNL     1       3.068  -1.043  -0.656  1.00  0.00    -0.355 N 
HETATM    4  H   UNL     1       2.612  -1.406  -1.486  1.00  0.00     0.162 HD
ENDROOT
BRANCH   2   5
HETATM    5  C   UNL     1       0.801  -0.416   0.036  1.00  0.00     0.235 C 
BRANCH   5   6
HETATM    6  N   UNL     1       0.090   0.822  -0.279  1.00  0.00    -0.301 N 
HETATM    7  C   UNL     1      -0.431   1.598   0.735  1.00  0.00     0.102 A 
HETATM    8  C   UNL     1      -1.176   2.678   0.480  1.00  0.00     0.092 A 
HETATM    9  C   UNL     1      -1.448   3.039  -0.922  1.00  0.00     0.250 A 
HETATM   10  O   UNL     1      -2.206   3.961  -1.204  1.00  0.00    -0.268 OA
HETATM   11  N   UNL     1      -0.817   2.278  -1.862  1.00  0.00    -0.275 N 
HETATM   12  C   UNL     1      -0.073   1.153  -1.617  1.00  0.00     0.329 A 
HETATM   13  H   UNL     1      -0.991   2.507  -2.828  1.00  0.00     0.173 HD
HETATM   14  O   UNL     1       0.387   0.488  -2.544  1.00  0.00    -0.246 OA
ENDBRANCH   5   6
ENDBRANCH   2   5
BRANCH   3  15
HETATM   15  C   UNL     1       4.534  -1.037  -0.643  1.00  0.00     0.084 C 
HETATM   16  C   UNL     1       5.077   0.103  -1.519  1.00  0.00     0.025 C 
HETATM   17  C   UNL     1       6.540   0.421  -1.209  1.00  0.00     0.002 C 
HETATM   18  C   UNL     1       7.562  -0.391  -2.000  1.00  0.00     0.000 C 
HETATM   19  C   UNL     1       7.219  -1.853  -2.272  1.00  0.00     0.000 C 
HETATM   20  C   UNL     1       6.566  -2.588  -1.105  1.00  0.00     0.002 C 
HETATM   21  C   UNL     1       5.045  -2.424  -1.061  1.00  0.00     0.025 C 
ENDBRANCH   3  15
TORSDOF 3
