REMARK  6 active torsions:
REMARK  status: ('A' for Active; 'I' for Inactive)
REMARK    1  A    between atoms: N_1  and  C1*_2 
REMARK    2  A    between atoms: C_3  and  C_13 
REMARK    3  A    between atoms: C2*_8  and  O2*_15 
REMARK    4  A    between atoms: C3*_11  and  O3*_17 
REMARK    5  A    between atoms: C4*_12  and  C5*_18 
REMARK       I    between atoms: C_13  and  N_16 
REMARK    6  A    between atoms: C5*_18  and  O5*_19 
ROOT
HETATM    1  N   UNL     1      -1.999   2.218  -1.043  1.00  0.00    -0.254 N 
HETATM    2  C   UNL     1      -3.693   2.410  -2.258  1.00  0.00     0.190 A 
HETATM    3  N   UNL     1      -2.647   3.124  -1.795  1.00  0.00    -0.275 N 
ATOM      4  HN  UNL     1      -2.409   4.100  -1.970  1.00  0.00     0.189 HD
HETATM    5  N   UNL     1      -3.693   1.089  -1.828  1.00  0.00    -0.332 N 
ATOM      6  HN  UNL     1      -4.361   0.352  -2.053  1.00  0.00     0.168 HD
HETATM    7  C   UNL     1      -2.630   1.014  -1.064  1.00  0.00     0.205 A 
ENDROOT
BRANCH   1   8
HETATM    8  C1* UNL     1      -0.839   2.565  -0.248  1.00  0.00     0.276 C 
HETATM    9  C2* UNL     1       0.014   3.721  -0.759  1.00  0.00     0.200 C 
HETATM   10  C3* UNL     1      -0.509   4.941  -0.004  1.00  0.00     0.182 C 
HETATM   11  C4* UNL     1      -1.318   4.375   1.164  1.00  0.00     0.179 C 
HETATM   12  O4* UNL     1      -1.289   2.929   1.072  1.00  0.00    -0.352 OA
BRANCH   9  13
HETATM   13  O2* UNL     1       1.414   3.530  -0.450  1.00  0.00    -0.388 OA
HETATM   14  H2* UNL     1       1.489   3.034   0.386  1.00  0.00     0.210 HD
ENDBRANCH   9  13
BRANCH  10  15
HETATM   15  O3* UNL     1       0.566   5.750   0.489  1.00  0.00    -0.390 OA
HETATM   16  H3* UNL     1       1.393   5.253   0.320  1.00  0.00     0.210 HD
ENDBRANCH  10  15
BRANCH  11  17
HETATM   17  C5* UNL     1      -2.773   4.866   1.144  1.00  0.00     0.198 C 
BRANCH  17  18
HETATM   18  O5* UNL     1      -3.493   4.330   2.253  1.00  0.00    -0.398 OA
HETATM   19  H5* UNL     1      -3.493   3.363   2.137  1.00  0.00     0.209 HD
ENDBRANCH  17  18
ENDBRANCH  11  17
ENDBRANCH   1   8
BRANCH   2  20
HETATM   20  C   UNL     1      -4.760   2.958  -3.121  1.00  0.00     0.284 C 
HETATM   21  O   UNL     1      -4.829   4.118  -3.505  1.00  0.00    -0.265 OA
HETATM   22  N   UNL     1      -5.707   2.035  -3.483  1.00  0.00    -0.363 N 
HETATM   23  H   UNL     1      -5.650   1.086  -3.128  1.00  0.00     0.159 HD
HETATM   24  H   UNL     1      -6.489   2.328  -4.045  1.00  0.00     0.159 HD
ENDBRANCH   2  20
TORSDOF 6
