REMARK  5 active torsions:
REMARK  status: ('A' for Active; 'I' for Inactive)
REMARK    1  A    between atoms: C_2  and  C_3 
REMARK    2  A    between atoms: C_2  and  S_20 
REMARK       I    between atoms: C_3  and  N_5 
REMARK    3  A    between atoms: N_5  and  C_6 
REMARK    4  A    between atoms: C_6  and  C_7 
REMARK    5  A    between atoms: C_10  and  N_14 
ROOT
HETATM    1  C   UNL     1       2.699   4.784  -1.797  1.00  0.00    -0.025 A 
HETATM    2  C   UNL     1       2.336   4.267  -3.036  1.00  0.00     0.014 A 
HETATM    3  C   UNL     1       2.156   5.130  -4.120  1.00  0.00     0.049 A 
HETATM    4  C   UNL     1       2.353   6.502  -3.969  1.00  0.00     0.103 A 
HETATM    5  N   UNL     1       2.670   7.008  -2.757  1.00  0.00    -0.352 N 
ATOM      6  HN  UNL     1       2.798   8.012  -2.633  1.00  0.00     0.166 HD
HETATM    7  C   UNL     1       2.816   6.162  -1.709  1.00  0.00     0.098 A 
ENDROOT
BRANCH   1   8
HETATM    8  C   UNL     1       2.999   3.909  -0.619  1.00  0.00     0.162 C 
BRANCH   8   9
HETATM    9  N   UNL     1       1.824   3.595   0.161  1.00  0.00    -0.356 N 
HETATM   10  C   UNL     1       1.546   4.243   1.345  1.00  0.00     0.236 C 
HETATM   11  O   UNL     1       2.190   5.215   1.737  1.00  0.00    -0.272 OA
HETATM   12  H   UNL     1       1.347   2.730  -0.060  1.00  0.00     0.162 HD
BRANCH  10  13
HETATM   13  C   UNL     1       0.410   3.655   2.147  1.00  0.00     0.195 C 
HETATM   14  C   UNL     1      -0.385   4.732   2.872  1.00  0.00     0.036 C 
BRANCH  13  15
HETATM   15  S   UNL     1       1.104   2.458   3.280  1.00  0.00     0.153 S 
HETATM   16  O   UNL     1       0.002   1.890   4.038  1.00  0.00    -0.227 OA
HETATM   17  O   UNL     1       1.970   1.573   2.521  1.00  0.00    -0.227 OA
HETATM   18  C   UNL     1       2.117   3.371   4.427  1.00  0.00     0.162 C 
ENDBRANCH  13  15
ENDBRANCH  10  13
ENDBRANCH   8   9
ENDBRANCH   1   8
BRANCH   4  19
HETATM   19  N   UNL     1       2.251   7.373  -5.023  1.00  0.00    -0.363 N 
HETATM   20  C   UNL     1       3.058   8.597  -5.041  1.00  0.00     0.150 C 
HETATM   21  C   UNL     1       2.176   9.808  -5.373  1.00  0.00     0.187 C 
HETATM   22  O   UNL     1       1.422   9.600  -6.583  1.00  0.00    -0.388 OA
HETATM   23  C   UNL     1       0.574   8.449  -6.441  1.00  0.00     0.187 C 
HETATM   24  C   UNL     1       1.390   7.170  -6.185  1.00  0.00     0.150 C 
ENDBRANCH   4  19
TORSDOF 5
