REMARK  6 active torsions:
REMARK  status: ('A' for Active; 'I' for Inactive)
REMARK    1  A    between atoms: C_8  and  C_9 
REMARK    2  A    between atoms: C_9  and  C_10 
REMARK       I    between atoms: C_10  and  N_12 
REMARK    3  A    between atoms: N_12  and  C_13 
REMARK    4  A    between atoms: C_13  and  C_15 
REMARK    5  A    between atoms: C_13  and  C_17 
REMARK    6  A    between atoms: C_15  and  O_16 
ROOT
HETATM    1  C   UNL     1       1.744   3.006   0.139  1.00  0.00     0.222 C 
HETATM    2  O   UNL     1       0.961   2.065   0.234  1.00  0.00    -0.273 OA
HETATM    3  N   UNL     1       1.332   4.324   0.025  1.00  0.00    -0.349 N 
HETATM    4  H   UNL     1       2.048   5.033  -0.078  1.00  0.00     0.163 HD
ENDROOT
BRANCH   3   5
HETATM    5  C   UNL     1      -0.094   4.785  -0.054  1.00  0.00     0.054 C 
HETATM    6  C   UNL     1      -0.808   4.130  -1.251  1.00  0.00     0.041 C 
BRANCH   5   7
HETATM    7  C   UNL     1      -0.831   4.362   1.255  1.00  0.00     0.195 C 
BRANCH   7   8
HETATM    8  O   UNL     1      -0.293   5.049   2.387  1.00  0.00    -0.398 OA
HETATM    9  H   UNL     1       0.672   5.039   2.275  1.00  0.00     0.209 HD
ENDBRANCH   7   8
ENDBRANCH   5   7
BRANCH   5  10
HETATM   10  C   UNL     1      -0.072   6.360  -0.189  1.00  0.00     0.015 C 
HETATM   11  C   UNL     1       0.579   6.862  -1.499  1.00  0.00     0.007 C 
HETATM   12  C   UNL     1       0.779   8.378  -1.456  1.00  0.00     0.000 C 
HETATM   13  C   UNL     1      -0.533   9.117  -1.217  1.00  0.00     0.000 C 
HETATM   14  C   UNL     1      -1.290   8.576  -0.008  1.00  0.00     0.000 C 
HETATM   15  C   UNL     1      -1.447   7.053  -0.053  1.00  0.00     0.007 C 
ENDBRANCH   5  10
ENDBRANCH   3   5
BRANCH   1  16
HETATM   16  C   UNL     1       3.254   2.811   0.114  1.00  0.00     0.146 C 
BRANCH  16  17
HETATM   17  C   UNL     1       3.811   2.039   1.269  1.00  0.00     0.006 A 
HETATM   18  C   UNL     1       3.440   2.037   2.647  1.00  0.00     0.038 A 
HETATM   19  C   UNL     1       2.356   2.774   3.339  1.00  0.00     0.071 C 
HETATM   20  N   UNL     1       4.235   1.239   3.368  1.00  0.00    -0.265 N 
HETATM   21  O   UNL     1       5.134   0.695   2.481  1.00  0.00    -0.242 OA
ATOM     22  HN  UNL     1       4.185   1.068   4.372  1.00  0.00     0.194 HD
HETATM   23  C   UNL     1       4.886   1.169   1.235  1.00  0.00     0.081 A 
HETATM   24  C   UNL     1       5.792   0.681   0.177  1.00  0.00     0.079 C 
ENDBRANCH  16  17
ENDBRANCH   1  16
TORSDOF 6
