REMARK  5 active torsions:
REMARK  status: ('A' for Active; 'I' for Inactive)
REMARK    1  A    between atoms: C_2  and  C_4 
REMARK    2  A    between atoms: C_7  and  C_8 
REMARK    3  A    between atoms: C_8  and  C_9 
REMARK    4  A    between atoms: C_9  and  N_10 
REMARK       I    between atoms: N_10  and  C_11 
REMARK    5  A    between atoms: C_11  and  C_13 
ROOT
HETATM    1  C   UNL     1       4.347  -2.787  -3.693  1.00  0.00     0.077 C 
ENDROOT
BRANCH   1   2
HETATM    2  C   UNL     1       3.655  -2.488  -2.401  1.00  0.00     0.018 A 
HETATM    3  N   UNL     1       2.590  -3.276  -1.999  1.00  0.00    -0.356 N 
HETATM    4  C   UNL     1       2.138  -2.873  -0.829  1.00  0.00     0.054 A 
ATOM      5  HN  UNL     1       2.209  -4.057  -2.533  1.00  0.00     0.166 HD
HETATM    6  S   UNL     1       2.938  -1.501  -0.168  1.00  0.00    -0.086 SA
HETATM    7  C   UNL     1       3.976  -1.465  -1.526  1.00  0.00     0.076 A 
BRANCH   4   8
HETATM    8  C   UNL     1       1.016  -3.536  -0.073  1.00  0.00     0.035 C 
HETATM    9  C   UNL     1      -0.254  -3.580  -0.922  1.00  0.00     0.016 C 
HETATM   10  C   UNL     1       1.426  -4.945   0.358  1.00  0.00     0.016 C 
ENDBRANCH   4   8
ENDBRANCH   1   2
BRANCH   1  11
HETATM   11  C   UNL     1       4.355  -4.280  -4.033  1.00  0.00     0.128 C 
BRANCH  11  12
HETATM   12  N   UNL     1       5.063  -4.581  -5.266  1.00  0.00    -0.360 N 
HETATM   13  C   UNL     1       6.428  -4.464  -5.351  1.00  0.00     0.222 C 
HETATM   14  O   UNL     1       7.140  -4.046  -4.448  1.00  0.00    -0.273 OA
HETATM   15  H   UNL     1       4.553  -5.014  -6.023  1.00  0.00     0.162 HD
BRANCH  13  16
HETATM   16  C   UNL     1       6.998  -4.881  -6.661  1.00  0.00     0.082 A 
HETATM   17  C   UNL     1       8.499  -4.938  -6.851  1.00  0.00     0.019 A 
HETATM   18  C   UNL     1       7.697  -3.895  -7.578  1.00  0.00    -0.005 A 
HETATM   19  C   UNL     1       7.860  -2.453  -7.230  1.00  0.00     0.011 C 
ENDBRANCH  13  16
ENDBRANCH  11  12
ENDBRANCH   1  11
TORSDOF 5
