REMARK  5 active torsions:
REMARK  status: ('A' for Active; 'I' for Inactive)
REMARK    1  A    between atoms: C_2  and  C_3 
REMARK    2  A    between atoms: C_6  and  C_7 
REMARK    3  A    between atoms: C_7  and  C_8 
REMARK    4  A    between atoms: C_8  and  N_9 
REMARK       I    between atoms: N_9  and  C_10 
REMARK    5  A    between atoms: C_10  and  C_12 
ROOT
HETATM    1  C   UNL     1       4.356   0.301   4.758  1.00  0.00     0.084 C 
ENDROOT
BRANCH   1   2
HETATM    2  C   UNL     1       3.758   0.803   3.482  1.00  0.00     0.053 A 
HETATM    3  N   UNL     1       3.484   0.060   2.431  1.00  0.00    -0.356 N 
HETATM    4  C   UNL     1       2.970   0.839   1.407  1.00  0.00     0.022 A 
ATOM      5  HN  UNL     1       3.630  -0.948   2.378  1.00  0.00     0.166 HD
HETATM    6  C   UNL     1       2.824   2.181   1.716  1.00  0.00     0.003 A 
HETATM    7  S   UNL     1       3.373   2.470   3.315  1.00  0.00    -0.080 SA
HETATM    8  C   UNL     1       2.296   3.290   0.877  1.00  0.00     0.058 C 
BRANCH   4   9
HETATM    9  C   UNL     1       2.640   0.161   0.117  1.00  0.00     0.054 C 
HETATM   10  C   UNL     1       1.219  -0.377   0.097  1.00  0.00     0.011 C 
ENDBRANCH   4   9
ENDBRANCH   1   2
BRANCH   1  11
HETATM   11  C   UNL     1       4.604  -1.208   4.717  1.00  0.00     0.129 C 
BRANCH  11  12
HETATM   12  N   UNL     1       5.211  -1.695   5.946  1.00  0.00    -0.360 N 
HETATM   13  C   UNL     1       6.575  -1.646   6.141  1.00  0.00     0.221 C 
HETATM   14  O   UNL     1       7.355  -1.227   5.292  1.00  0.00    -0.273 OA
HETATM   15  H   UNL     1       4.610  -2.048   6.680  1.00  0.00     0.162 HD
BRANCH  13  16
HETATM   16  C   UNL     1       7.016  -2.165   7.500  1.00  0.00     0.078 C 
HETATM   17  C   UNL     1       6.485  -1.296   8.647  1.00  0.00     0.014 C 
HETATM   18  C   UNL     1       7.623  -1.163   9.658  1.00  0.00     0.001 C 
HETATM   19  C   UNL     1       8.717  -2.108   9.185  1.00  0.00     0.001 C 
HETATM   20  C   UNL     1       8.533  -2.152   7.679  1.00  0.00     0.014 C 
ENDBRANCH  13  16
ENDBRANCH  11  12
ENDBRANCH   1  11
TORSDOF 5
