REMARK  8 active torsions:
REMARK  status: ('A' for Active; 'I' for Inactive)
REMARK    1  A    between atoms: O_2  and  C_3 
REMARK    2  A    between atoms: C_3  and  C_4 
REMARK    3  A    between atoms: N_13  and  C_14 
REMARK    4  A    between atoms: C_14  and  C_15 
REMARK    5  A    between atoms: C_15  and  O_16 
REMARK    6  A    between atoms: C_15  and  C_17 
REMARK    7  A    between atoms: C_17  and  O_18 
REMARK    8  A    between atoms: O_18  and  C_19 
ROOT
HETATM    1  C   UNL     1       5.430  -1.692  -0.817  1.00  0.00     0.108 A 
HETATM    2  N   UNL     1       5.867  -0.464  -0.590  1.00  0.00    -0.342 N 
ATOM      3  HN  UNL     1       6.179   0.214  -1.285  1.00  0.00     0.167 HD
HETATM    4  C   UNL     1       5.816  -0.288   0.766  1.00  0.00     0.060 A 
HETATM    5  C   UNL     1       6.118   0.851   1.529  1.00  0.00     0.032 A 
HETATM    6  C   UNL     1       6.008   0.785   2.922  1.00  0.00     0.002 A 
HETATM    7  C   UNL     1       5.595  -0.392   3.545  1.00  0.00     0.002 A 
HETATM    8  C   UNL     1       5.263  -1.527   2.795  1.00  0.00     0.032 A 
HETATM    9  C   UNL     1       5.390  -1.450   1.403  1.00  0.00     0.062 A 
HETATM   10  N   UNL     1       5.161  -2.339   0.374  1.00  0.00    -0.330 N 
ENDROOT
BRANCH  10  11
HETATM   11  C   UNL     1       4.639  -3.689   0.514  1.00  0.00     0.164 C 
BRANCH  11  12
HETATM   12  C   UNL     1       5.703  -4.798   0.596  1.00  0.00     0.160 C 
BRANCH  12  13
HETATM   13  O   UNL     1       6.594  -4.771  -0.525  1.00  0.00    -0.392 OA
HETATM   14  H   UNL     1       7.195  -4.012  -0.417  1.00  0.00     0.210 HD
ENDBRANCH  12  13
BRANCH  12  15
HETATM   15  C   UNL     1       6.501  -4.830   1.905  1.00  0.00     0.209 C 
BRANCH  15  16
HETATM   16  O   UNL     1       5.592  -5.013   2.990  1.00  0.00    -0.349 OA
BRANCH  16  17
HETATM   17  C   UNL     1       6.136  -4.896   4.239  1.00  0.00     0.068 A 
HETATM   18  C   UNL     1       5.272  -4.415   5.224  1.00  0.00     0.037 A 
HETATM   19  C   UNL     1       5.721  -4.223   6.529  1.00  0.00     0.009 A 
HETATM   20  C   UNL     1       7.038  -4.544   6.873  1.00  0.00    -0.062 A 
HETATM   21  C   UNL     1       7.540  -4.353   8.273  1.00  0.00     0.048 C 
HETATM   22  C   UNL     1       7.888  -5.072   5.892  1.00  0.00     0.009 A 
HETATM   23  C   UNL     1       7.441  -5.244   4.579  1.00  0.00     0.037 A 
ENDBRANCH  16  17
ENDBRANCH  15  16
ENDBRANCH  12  15
ENDBRANCH  11  12
ENDBRANCH  10  11
BRANCH   1  24
HETATM   24  C   UNL     1       5.256  -2.296  -2.171  1.00  0.00     0.243 C 
BRANCH  24  25
HETATM   25  O   UNL     1       3.869  -2.222  -2.501  1.00  0.00    -0.389 OA
HETATM   26  C   UNL     1       3.631  -2.726  -3.808  1.00  0.00     0.202 C 
ENDBRANCH  24  25
ENDBRANCH   1  24
TORSDOF 8
