REMARK  7 active torsions:
REMARK  status: ('A' for Active; 'I' for Inactive)
REMARK    1  A    between atoms: N_2  and  C_10 
REMARK    2  A    between atoms: C_3  and  N_7 
REMARK    3  A    between atoms: N_7  and  C_16 
REMARK    4  A    between atoms: N_7  and  C_18 
REMARK    5  A    between atoms: C_9  and  C_10 
REMARK    6  A    between atoms: C_9  and  O_26 
REMARK    7  A    between atoms: C_18  and  C_29 
ROOT
HETATM    1  C   UNL     1       0.358  -0.795  -0.717  1.00  0.00     0.122 A 
HETATM    2  N   UNL     1       1.469   1.092  -0.758  1.00  0.00    -0.324 N 
HETATM    3  C   UNL     1      -0.778  -1.612  -0.462  1.00  0.00     0.135 A 
HETATM    4  C   UNL     1       0.213   0.580  -0.606  1.00  0.00     0.140 A 
HETATM    5  N   UNL     1       1.681  -1.091  -1.009  1.00  0.00    -0.346 N 
ATOM      6  HN  UNL     1       2.075  -2.011  -1.204  1.00  0.00     0.167 HD
HETATM    7  C   UNL     1       2.321   0.050  -0.984  1.00  0.00     0.185 A 
HETATM    8  N   UNL     1      -1.934  -0.932  -0.168  1.00  0.00    -0.337 N 
ATOM      9  HN  UNL     1      -2.789  -1.448   0.039  1.00  0.00     0.168 HD
HETATM   10  N   UNL     1      -0.913   1.259  -0.349  1.00  0.00    -0.336 N 
ATOM     11  HN  UNL     1      -0.981   2.276  -0.308  1.00  0.00     0.168 HD
HETATM   12  C   UNL     1      -1.941   0.414  -0.153  1.00  0.00     0.183 A 
ENDROOT
BRANCH   3  13
HETATM   13  N   UNL     1      -0.759  -3.039  -0.415  1.00  0.00    -0.360 N 
BRANCH  13  14
HETATM   14  C   UNL     1       0.529  -3.568   0.152  1.00  0.00     0.089 C 
HETATM   15  C   UNL     1       0.839  -3.042   1.561  1.00  0.00     0.055 C 
HETATM   16  C   UNL     1       0.583  -4.066   2.652  1.00  0.00     0.274 C 
HETATM   17  N   UNL     1       1.329  -5.302   2.455  1.00  0.00     0.084 N 
HETATM   18  C   UNL     1       0.961  -5.941   1.192  1.00  0.00     0.274 C 
HETATM   19  C   UNL     1       2.768  -5.143   2.649  1.00  0.00     0.309 C 
HETATM   20  C   UNL     1       0.854  -5.055  -0.057  1.00  0.00     0.055 C 
ENDBRANCH  13  14
BRANCH  13  21
HETATM   21  C   UNL     1      -2.058  -3.679  -0.104  1.00  0.00     0.128 C 
BRANCH  21  22
HETATM   22  C   UNL     1      -3.131  -3.455  -1.219  1.00  0.00    -0.005 C 
HETATM   23  C   UNL     1      -2.712  -4.033  -2.572  1.00  0.00     0.011 C 
HETATM   24  C   UNL     1      -4.507  -4.016  -0.834  1.00  0.00     0.011 C 
ENDBRANCH  21  22
ENDBRANCH  13  21
ENDBRANCH   3  13
BRANCH   2  25
HETATM   25  C   UNL     1       1.876   2.470  -0.584  1.00  0.00     0.172 C 
BRANCH  25  26
HETATM   26  C   UNL     1       1.863   3.307  -1.870  1.00  0.00     0.102 C 
HETATM   27  C   UNL     1       2.738   2.780  -3.030  1.00  0.00     0.153 C 
HETATM   28  O   UNL     1       3.233   3.938  -3.744  1.00  0.00    -0.383 OA
HETATM   29  C   UNL     1       2.048   1.881  -4.043  1.00  0.00     0.042 C 
HETATM   30  C   UNL     1       2.812   5.113  -3.040  1.00  0.00     0.171 C 
HETATM   31  C   UNL     1       2.520   4.661  -1.628  1.00  0.00     0.068 C 
BRANCH  26  32
HETATM   32  O   UNL     1       0.515   3.578  -2.277  1.00  0.00    -0.385 OA
HETATM   33  H   UNL     1       0.002   2.748  -2.274  1.00  0.00     0.210 HD
ENDBRANCH  26  32
ENDBRANCH  25  26
ENDBRANCH   2  25
TORSDOF 7
