REMARK  4 active torsions:
REMARK  status: ('A' for Active; 'I' for Inactive)
REMARK    1  A    between atoms: C_2  and  C_3 
REMARK    2  A    between atoms: C_2  and  N_10 
REMARK    3  A    between atoms: C_3  and  N_4 
REMARK       I    between atoms: N_10  and  C_11 
REMARK       I    between atoms: C_11  and  N_13 
REMARK    4  A    between atoms: N_13  and  C_14 
ROOT
HETATM    1  N   UNL     1       3.113   1.563   0.119  1.00  0.00    -0.337 N 
HETATM    2  C   UNL     1       4.463   1.508   0.290  1.00  0.00     0.322 C 
HETATM    3  O   UNL     1       5.121   0.487   0.357  1.00  0.00    -0.247 OA
HETATM    4  N   UNL     1       5.051   2.806   0.284  1.00  0.00    -0.293 N 
HETATM    5  H   UNL     1       2.602   2.401   0.350  1.00  0.00     0.164 HD
HETATM    6  H   UNL     1       4.474   3.618   0.096  1.00  0.00     0.172 HD
ENDROOT
BRANCH   1   7
HETATM    7  C   UNL     1       2.355   0.318  -0.066  1.00  0.00     0.110 C 
HETATM    8  C   UNL     1       0.854   0.600  -0.120  1.00  0.00     0.034 C 
BRANCH   7   9
HETATM    9  C   UNL     1       2.821  -0.541  -1.291  1.00  0.00     0.297 C 
BRANCH   9  10
HETATM   10  N   UNL     1       2.521  -0.039  -2.645  1.00  0.00     0.094 N 
HETATM   11  C   UNL     1       2.949  -1.031  -3.671  1.00  0.00     0.298 C 
HETATM   12  C   UNL     1       4.467  -1.046  -3.936  1.00  0.00     0.198 C 
HETATM   13  O   UNL     1       4.930   0.252  -4.330  1.00  0.00    -0.388 OA
HETATM   14  C   UNL     1       4.631   1.217  -3.320  1.00  0.00     0.198 C 
HETATM   15  C   UNL     1       3.125   1.257  -3.006  1.00  0.00     0.298 C 
ENDBRANCH   9  10
ENDBRANCH   7   9
ENDBRANCH   1   7
BRANCH   4  16
HETATM   16  C   UNL     1       6.429   2.979   0.449  1.00  0.00     0.127 A 
HETATM   17  C   UNL     1       7.346   2.030   0.845  1.00  0.00     0.076 A 
HETATM   18  C   UNL     1       8.593   2.682   0.878  1.00  0.00     0.025 A 
HETATM   19  C   UNL     1       9.901   2.091   1.248  1.00  0.00     0.070 C 
HETATM   20  N   UNL     1       8.483   3.965   0.522  1.00  0.00    -0.302 N 
HETATM   21  N   UNL     1       7.172   4.121   0.249  1.00  0.00    -0.281 N 
ATOM     22  HN  UNL     1       9.222   4.666   0.469  1.00  0.00     0.186 HD
HETATM   23  C   UNL     1       6.732   5.396  -0.264  1.00  0.00     0.179 C 
ENDBRANCH   4  16
TORSDOF 4
