REMARK  5 active torsions:
REMARK  status: ('A' for Active; 'I' for Inactive)
REMARK    1  A    between atoms: C_2  and  N_3 
REMARK    2  A    between atoms: C_2  and  C_13 
REMARK    3  A    between atoms: N_3  and  C_4 
REMARK    4  A    between atoms: C_4  and  C_6 
REMARK       I    between atoms: C_6  and  N_8 
REMARK    5  A    between atoms: C_13  and  N_15 
ROOT
HETATM    1  N   UNL     1       2.666   0.120   1.337  1.00  0.00     0.103 N 
HETATM    2  H   UNL     1       3.687   0.060   1.392  1.00  0.00     0.317 HD
ENDROOT
BRANCH   1   3
HETATM    3  C   UNL     1       2.280  -0.021  -0.102  1.00  0.00     0.241 C 
HETATM    4  C   UNL     1       0.785   0.264  -0.318  1.00  0.00     0.045 C 
BRANCH   3   5
HETATM    5  C   UNL     1       2.715  -1.418  -0.655  1.00  0.00     0.136 C 
HETATM    6  C   UNL     1       2.024  -2.604   0.028  1.00  0.00     0.036 C 
BRANCH   5   7
HETATM    7  N   UNL     1       2.593  -1.487  -2.116  1.00  0.00    -0.297 N 
HETATM    8  C   UNL     1       3.571  -1.203  -3.032  1.00  0.00     0.112 A 
HETATM    9  C   UNL     1       3.000  -1.376  -4.271  1.00  0.00     0.037 A 
HETATM   10  C   UNL     1       1.680  -1.780  -4.003  1.00  0.00     0.108 A 
HETATM   11  N   UNL     1       1.434  -1.867  -2.695  1.00  0.00    -0.310 N 
ATOM     12  HN  UNL     1       0.569  -2.155  -2.237  1.00  0.00     0.186 HD
ENDBRANCH   5   7
ENDBRANCH   3   5
ENDBRANCH   1   3
BRANCH   1  13
HETATM   13  C   UNL     1       2.287   1.425   1.946  1.00  0.00     0.308 C 
HETATM   14  C   UNL     1       2.665   1.461   3.423  1.00  0.00     0.053 C 
BRANCH  13  15
HETATM   15  C   UNL     1       2.953   2.601   1.193  1.00  0.00     0.252 C 
HETATM   16  O   UNL     1       4.056   2.475   0.655  1.00  0.00    -0.271 OA
HETATM   17  N   UNL     1       2.212   3.753   1.062  1.00  0.00    -0.350 N 
HETATM   18  C   UNL     1       2.494   4.711   0.014  1.00  0.00     0.126 C 
HETATM   19  C   UNL     1       1.110   4.215   1.880  1.00  0.00     0.126 C 
HETATM   20  C   UNL     1       1.211   5.535  -0.123  1.00  0.00     0.021 C 
HETATM   21  C   UNL     1       0.225   4.930   0.881  1.00  0.00     0.021 C 
ENDBRANCH  13  15
ENDBRANCH   1  13
TORSDOF 5
