REMARK  5 active torsions:
REMARK  status: ('A' for Active; 'I' for Inactive)
REMARK    1  A    between atoms: N_1  and  C_2 
REMARK    2  A    between atoms: C_6  and  C_7 
REMARK    3  A    between atoms: C_7  and  C_8 
REMARK    4  A    between atoms: C_8  and  N_9 
REMARK       I    between atoms: N_9  and  C_10 
REMARK       I    between atoms: C_10  and  N_12 
REMARK    5  A    between atoms: N_12  and  C_13 
ROOT
HETATM    1  C   UNL     1       7.642  -0.091   0.011  1.00  0.00     0.132 C 
ENDROOT
BRANCH   1   2
HETATM    2  C   UNL     1       7.042  -0.585   1.330  1.00  0.00     0.107 C 
BRANCH   2   3
HETATM    3  C   UNL     1       6.979   0.482   2.360  1.00  0.00     0.164 A 
HETATM    4  O   UNL     1       8.005   0.531   3.253  1.00  0.00    -0.209 OA
HETATM    5  N   UNL     1       7.720   1.589   4.116  1.00  0.00    -0.090 N 
HETATM    6  C   UNL     1       6.560   2.059   3.655  1.00  0.00     0.697 A 
ATOM      7  HN  UNL     1       8.267   1.923   4.909  1.00  0.00     0.213 HD
HETATM    8  N   UNL     1       6.057   1.399   2.574  1.00  0.00    -0.171 N 
ATOM      9  HN  UNL     1       5.191   1.570   2.063  1.00  0.00     0.186 HD
BRANCH   6  10
HETATM   10  N   UNL     1       5.871   3.090   4.149  1.00  0.00    -0.233 N 
HETATM   11  H   UNL     1       6.100   3.414   5.080  1.00  0.00     0.174 HD
HETATM   12  H   UNL     1       4.898   3.181   3.889  1.00  0.00     0.174 HD
ENDBRANCH   6  10
ENDBRANCH   2   3
ENDBRANCH   1   2
BRANCH   1  13
HETATM   13  N   UNL     1       9.048   0.298   0.066  1.00  0.00    -0.343 N 
HETATM   14  C   UNL     1      10.067  -0.611  -0.036  1.00  0.00     0.316 C 
HETATM   15  O   UNL     1       9.889  -1.816  -0.159  1.00  0.00    -0.247 OA
HETATM   16  N   UNL     1      11.303  -0.009   0.038  1.00  0.00    -0.339 N 
HETATM   17  H   UNL     1      11.349   0.976  -0.174  1.00  0.00     0.164 HD
HETATM   18  H   UNL     1       9.275   1.200   0.461  1.00  0.00     0.164 HD
BRANCH  16  19
HETATM   19  C   UNL     1      12.543  -0.783   0.029  1.00  0.00     0.086 C 
HETATM   20  C   UNL     1      13.627  -0.086   0.865  1.00  0.00     0.025 C 
HETATM   21  C   UNL     1      14.375   1.018   0.121  1.00  0.00     0.002 C 
HETATM   22  C   UNL     1      14.949   0.504  -1.192  1.00  0.00     0.000 C 
HETATM   23  C   UNL     1      13.839  -0.040  -2.083  1.00  0.00     0.002 C 
HETATM   24  C   UNL     1      13.028  -1.136  -1.389  1.00  0.00     0.025 C 
ENDBRANCH  16  19
ENDBRANCH   1  13
TORSDOF 5
