REMARK  5 active torsions:
REMARK  status: ('A' for Active; 'I' for Inactive)
REMARK       I    between atoms: C_2  and  N_4 
REMARK    1  A    between atoms: N_4  and  C_5 
REMARK    2  A    between atoms: C_5  and  C_6 
REMARK       I    between atoms: C_6  and  N_8 
REMARK    3  A    between atoms: N_8  and  C_9 
REMARK    4  A    between atoms: C_9  and  C_10 
REMARK    5  A    between atoms: C_10  and  C_16 
ROOT
HETATM    1  C   UNL     1       8.520  -2.908   3.249  1.00  0.00     0.003 C 
HETATM    2  C   UNL     1       9.060  -4.372   3.243  1.00  0.00     0.016 C 
HETATM    3  C   UNL     1       8.842  -5.170   4.530  1.00  0.00     0.001 C 
HETATM    4  C   UNL     1       9.320  -4.439   5.772  1.00  0.00     0.000 C 
HETATM    5  C   UNL     1       8.798  -3.015   5.854  1.00  0.00     0.001 C 
HETATM    6  C   UNL     1       9.016  -2.228   4.563  1.00  0.00     0.016 C 
ENDROOT
BRANCH   1   7
HETATM    7  C   UNL     1       6.958  -2.851   3.105  1.00  0.00     0.137 C 
BRANCH   7   8
HETATM    8  N   UNL     1       6.186  -3.467   4.164  1.00  0.00    -0.359 N 
HETATM    9  C   UNL     1       5.450  -4.622   3.987  1.00  0.00     0.235 C 
HETATM   10  O   UNL     1       5.299  -5.181   2.905  1.00  0.00    -0.272 OA
HETATM   11  H   UNL     1       6.003  -2.937   5.016  1.00  0.00     0.162 HD
BRANCH   9  12
HETATM   12  C   UNL     1       4.827  -5.154   5.278  1.00  0.00     0.225 C 
BRANCH  12  13
HETATM   13  N   UNL     1       3.567  -4.503   5.567  1.00  0.00    -0.353 N 
HETATM   14  C   UNL     1       3.530  -3.301   6.229  1.00  0.00     0.213 C 
HETATM   15  C   UNL     1       2.137  -2.773   6.438  1.00  0.00     0.117 C 
HETATM   16  O   UNL     1       4.538  -2.707   6.596  1.00  0.00    -0.274 OA
HETATM   17  H   UNL     1       2.739  -4.833   5.086  1.00  0.00     0.162 HD
ENDBRANCH  12  13
ENDBRANCH   9  12
ENDBRANCH   7   8
ENDBRANCH   1   7
BRANCH   1  18
HETATM   18  C   UNL     1       9.046  -2.128   2.001  1.00  0.00    -0.045 A 
HETATM   19  C   UNL     1       9.286  -0.744   2.036  1.00  0.00     0.025 A 
HETATM   20  C   UNL     1       9.652  -0.076   0.873  1.00  0.00     0.088 A 
HETATM   21  N   UNL     1       9.797  -0.674  -0.324  1.00  0.00    -0.375 N 
HETATM   22  C   UNL     1       9.567  -2.000  -0.357  1.00  0.00     0.088 A 
ATOM     23  HN  UNL     1      10.066  -0.152  -1.158  1.00  0.00     0.164 HD
HETATM   24  C   UNL     1       9.197  -2.754   0.752  1.00  0.00     0.025 A 
ENDBRANCH   1  18
TORSDOF 5
