REMARK  5 active torsions:
REMARK  status: ('A' for Active; 'I' for Inactive)
REMARK    1  A    between atoms: N_6  and  S_8 
REMARK    2  A    between atoms: S_8  and  N_11 
REMARK    3  A    between atoms: N_11  and  C_12 
REMARK    4  A    between atoms: C_12  and  C_13 
REMARK    5  A    between atoms: C_13  and  C_14 
ROOT
HETATM    1  N   UNL     1       2.857  -3.735  -3.649  1.00  0.00    -0.206 NA
HETATM    2  H   UNL     1       3.147  -2.976  -4.268  1.00  0.00     0.140 HD
ENDROOT
BRANCH   1   3
HETATM    3  S   UNL     1       3.407  -3.342  -2.112  1.00  0.00     0.280 S 
HETATM    4  O   UNL     1       4.835  -3.167  -2.210  1.00  0.00    -0.194 OA
HETATM    5  O   UNL     1       2.812  -4.227  -1.143  1.00  0.00    -0.194 OA
BRANCH   3   6
HETATM    6  N   UNL     1       2.685  -1.814  -1.914  1.00  0.00    -0.197 NA
HETATM    7  C   UNL     1       3.199  -1.181  -0.656  1.00  0.00     0.108 C 
HETATM    8  C   UNL     1       2.631   0.216  -0.460  1.00  0.00     0.016 C 
HETATM    9  C   UNL     1       1.109   0.200  -0.498  1.00  0.00     0.007 C 
HETATM   10  C   UNL     1       0.587  -0.454  -1.780  1.00  0.00    -0.004 C 
HETATM   11  C   UNL     1       0.836   0.422  -3.011  1.00  0.00     0.011 C 
HETATM   12  C   UNL     1       1.190  -1.857  -1.942  1.00  0.00     0.112 C 
ENDBRANCH   3   6
ENDBRANCH   1   3
BRANCH   1  13
HETATM   13  C   UNL     1       3.358  -5.035  -4.200  1.00  0.00     0.111 C 
BRANCH  13  14
HETATM   14  C   UNL     1       2.939  -6.252  -3.377  1.00  0.00     0.072 C 
BRANCH  14  15
HETATM   15  C   UNL     1       3.557  -7.519  -3.908  1.00  0.00     0.010 A 
HETATM   16  C   UNL     1       4.405  -8.276  -3.097  1.00  0.00     0.025 A 
HETATM   17  C   UNL     1       4.958  -9.444  -3.606  1.00  0.00     0.003 A 
HETATM   18  C   UNL     1       4.649  -9.830  -4.904  1.00  0.00     0.017 A 
HETATM   19  C   UNL     1       3.795  -9.026  -5.639  1.00  0.00     0.088 A 
HETATM   20  N   UNL     1       3.246  -7.883  -5.175  1.00  0.00    -0.369 N 
ATOM     21  HN  UNL     1       2.624  -7.318  -5.753  1.00  0.00     0.165 HD
ENDBRANCH  14  15
ENDBRANCH  13  14
ENDBRANCH   1  13
TORSDOF 5
