REMARK  6 active torsions:
REMARK  status: ('A' for Active; 'I' for Inactive)
REMARK    1  A    between atoms: C_2  and  N_3 
REMARK    2  A    between atoms: C_2  and  C_10 
REMARK       I    between atoms: N_3  and  C_4 
REMARK    3  A    between atoms: C_4  and  C_6 
REMARK       I    between atoms: C_10  and  N_12 
REMARK    4  A    between atoms: N_12  and  C_13 
REMARK    5  A    between atoms: C_13  and  C_14 
REMARK    6  A    between atoms: C_17  and  N_21 
ROOT
HETATM    1  C   UNL     1       3.147   1.193  -0.931  1.00  0.00     0.240 C 
HETATM    2  O   UNL     1       2.353   2.021  -1.373  1.00  0.00    -0.271 OA
HETATM    3  N   UNL     1       4.501   1.265  -1.163  1.00  0.00    -0.355 N 
HETATM    4  H   UNL     1       5.103   0.617  -0.649  1.00  0.00     0.162 HD
ENDROOT
BRANCH   3   5
HETATM    5  C   UNL     1       5.099   2.404  -1.808  1.00  0.00     0.162 C 
BRANCH   5   6
HETATM    6  C   UNL     1       6.591   2.285  -1.863  1.00  0.00    -0.025 A 
HETATM    7  C   UNL     1       7.232   1.606  -2.892  1.00  0.00     0.014 A 
HETATM    8  C   UNL     1       8.624   1.507  -2.890  1.00  0.00     0.049 A 
HETATM    9  C   UNL     1       9.380   2.068  -1.858  1.00  0.00     0.103 A 
HETATM   10  N   UNL     1       8.760   2.730  -0.857  1.00  0.00    -0.352 N 
HETATM   11  C   UNL     1       7.405   2.817  -0.873  1.00  0.00     0.098 A 
ATOM     12  HN  UNL     1       9.299   3.156  -0.104  1.00  0.00     0.166 HD
BRANCH   9  13
HETATM   13  N   UNL     1      10.761   2.011  -1.881  1.00  0.00    -0.363 N 
HETATM   14  C   UNL     1      11.471   0.805  -2.330  1.00  0.00     0.150 C 
HETATM   15  C   UNL     1      12.196   0.119  -1.159  1.00  0.00     0.187 C 
HETATM   16  O   UNL     1      13.042   1.032  -0.445  1.00  0.00    -0.388 OA
HETATM   17  C   UNL     1      12.250   2.099   0.104  1.00  0.00     0.187 C 
HETATM   18  C   UNL     1      11.539   2.894  -1.000  1.00  0.00     0.150 C 
ENDBRANCH   9  13
ENDBRANCH   5   6
ENDBRANCH   3   5
BRANCH   1  19
HETATM   19  C   UNL     1       2.677  -0.021  -0.096  1.00  0.00     0.172 C 
HETATM   20  C   UNL     1       2.916  -1.346  -0.814  1.00  0.00     0.042 C 
BRANCH  19  21
HETATM   21  N   UNL     1       3.207   0.005   1.274  1.00  0.00    -0.348 N 
HETATM   22  C   UNL     1       4.526  -0.201   1.590  1.00  0.00     0.226 C 
HETATM   23  O   UNL     1       5.368  -0.422   0.720  1.00  0.00    -0.273 OA
HETATM   24  H   UNL     1       2.551   0.238   2.008  1.00  0.00     0.163 HD
BRANCH  22  25
HETATM   25  C   UNL     1       4.892  -0.132   3.081  1.00  0.00     0.030 C 
HETATM   26  C   UNL     1       4.226  -1.297   3.824  1.00  0.00     0.024 C 
HETATM   27  C   UNL     1       6.421  -0.253   3.213  1.00  0.00     0.024 C 
HETATM   28  C   UNL     1       4.452   1.206   3.693  1.00  0.00     0.024 C 
ENDBRANCH  22  25
ENDBRANCH  19  21
ENDBRANCH   1  19
TORSDOF 6
