REMARK  4 active torsions:
REMARK  status: ('A' for Active; 'I' for Inactive)
REMARK       I    between atoms: N_2  and  C_4 
REMARK    1  A    between atoms: C_4  and  C_6 
REMARK    2  A    between atoms: C_6  and  N_7 
REMARK       I    between atoms: N_7  and  C_8 
REMARK       I    between atoms: C_8  and  N_10 
REMARK    3  A    between atoms: N_10  and  C_11 
REMARK    4  A    between atoms: C_14  and  N_18 
ROOT
HETATM    1  C   UNL     1       8.575   2.744   3.786  1.00  0.00     0.051 C 
HETATM    2  C   UNL     1       9.076   4.033   3.854  1.00  0.00     0.035 C 
HETATM    3  C   UNL     1      10.465   4.216   3.879  1.00  0.00     0.051 C 
HETATM    4  C   UNL     1      11.334   3.121   3.883  1.00  0.00     0.103 C 
HETATM    5  N   UNL     1      10.818   1.879   4.040  1.00  0.00    -0.350 N 
ATOM      6  HN  UNL     1      11.434   1.078   4.175  1.00  0.00     0.166 HD
HETATM    7  C   UNL     1       9.469   1.712   4.015  1.00  0.00     0.119 C 
ENDROOT
BRANCH   1   8
HETATM    8  N   UNL     1       7.278   2.542   3.285  1.00  0.00    -0.308 N 
HETATM    9  C   UNL     1       6.884   1.883   2.153  1.00  0.00     0.321 C 
HETATM   10  N   UNL     1       7.753   1.450   1.213  1.00  0.00    -0.334 N 
HETATM   11  O   UNL     1       5.676   1.786   1.923  1.00  0.00    -0.247 OA
HETATM   12  H   UNL     1       7.294   0.938   0.467  1.00  0.00     0.164 HD
HETATM   13  H   UNL     1       6.565   3.202   3.570  1.00  0.00     0.170 HD
BRANCH  10  14
HETATM   14  C   UNL     1       9.206   1.515   1.141  1.00  0.00     0.227 C 
BRANCH  14  15
HETATM   15  C   UNL     1       9.978   1.650  -0.169  1.00  0.00     0.236 C 
HETATM   16  N   UNL     1       9.708   2.750  -0.981  1.00  0.00    -0.359 N 
HETATM   17  C   UNL     1      10.752   3.093  -1.932  1.00  0.00     0.152 C 
HETATM   18  C   UNL     1       8.745   3.782  -0.629  1.00  0.00     0.152 C 
HETATM   19  O   UNL     1      10.953   0.919  -0.374  1.00  0.00    -0.272 OA
ENDBRANCH  14  15
ENDBRANCH  10  14
ENDBRANCH   1   8
BRANCH   4  20
HETATM   20  N   UNL     1      12.675   3.245   3.603  1.00  0.00    -0.363 N 
HETATM   21  C   UNL     1      13.461   4.478   3.708  1.00  0.00     0.150 C 
HETATM   22  C   UNL     1      14.344   4.634   2.458  1.00  0.00     0.187 C 
HETATM   23  O   UNL     1      15.196   3.493   2.272  1.00  0.00    -0.388 OA
HETATM   24  C   UNL     1      14.404   2.301   2.119  1.00  0.00     0.187 C 
HETATM   25  C   UNL     1      13.499   2.048   3.343  1.00  0.00     0.150 C 
ENDBRANCH   4  20
TORSDOF 4
