REMARK  5 active torsions:
REMARK  status: ('A' for Active; 'I' for Inactive)
REMARK    1  A    between atoms: C_5  and  C_6 
REMARK    2  A    between atoms: C_6  and  C_7 
REMARK    3  A    between atoms: C_7  and  N_8 
REMARK       I    between atoms: N_8  and  C_9 
REMARK       I    between atoms: C_9  and  N_11 
REMARK    4  A    between atoms: C_14  and  C_15 
REMARK    5  A    between atoms: C_15  and  O_16 
ROOT
HETATM    1  N   UNL     1       8.175   1.773   0.201  1.00  0.00    -0.343 N 
HETATM    2  C   UNL     1       9.416   1.201   0.114  1.00  0.00     0.318 C 
HETATM    3  O   UNL     1       9.554  -0.020   0.179  1.00  0.00    -0.247 OA
HETATM    4  N   UNL     1      10.489   2.063  -0.030  1.00  0.00    -0.334 N 
HETATM    5  C   UNL     1      10.449   3.524   0.087  1.00  0.00     0.128 C 
HETATM    6  C   UNL     1      11.369   4.180  -0.947  1.00  0.00     0.027 C 
HETATM    7  C   UNL     1      12.801   3.613  -0.922  1.00  0.00     0.012 C 
HETATM    8  C   UNL     1      12.749   2.083  -1.017  1.00  0.00     0.027 C 
HETATM    9  C   UNL     1      11.824   1.472   0.030  1.00  0.00     0.128 C 
HETATM   10  H   UNL     1       8.031   2.624  -0.329  1.00  0.00     0.164 HD
ENDROOT
BRANCH   1  11
HETATM   11  C   UNL     1       7.014   0.898   0.240  1.00  0.00     0.130 C 
BRANCH  11  12
HETATM   12  C   UNL     1       5.695   1.636   0.454  1.00  0.00     0.077 C 
BRANCH  12  13
HETATM   13  C   UNL     1       5.350   2.553  -0.678  1.00  0.00     0.018 A 
HETATM   14  N   UNL     1       6.168   3.648  -0.917  1.00  0.00    -0.357 N 
HETATM   15  C   UNL     1       5.697   4.350  -1.924  1.00  0.00     0.046 A 
ATOM     16  HN  UNL     1       7.011   3.875  -0.389  1.00  0.00     0.166 HD
HETATM   17  C   UNL     1       6.307   5.607  -2.433  1.00  0.00     0.076 C 
HETATM   18  S   UNL     1       4.272   3.729  -2.659  1.00  0.00    -0.087 SA
HETATM   19  C   UNL     1       4.274   2.435  -1.538  1.00  0.00     0.076 A 
ENDBRANCH  12  13
ENDBRANCH  11  12
ENDBRANCH   1  11
BRANCH   7  20
HETATM   20  C   UNL     1      13.595   4.069   0.309  1.00  0.00     0.168 C 
BRANCH  20  21
HETATM   21  O   UNL     1      13.719   5.485   0.322  1.00  0.00    -0.400 OA
HETATM   22  H   UNL     1      14.250   5.738  -0.453  1.00  0.00     0.209 HD
ENDBRANCH  20  21
ENDBRANCH   7  20
TORSDOF 5
