REMARK  4 active torsions:
REMARK  status: ('A' for Active; 'I' for Inactive)
REMARK    1  A    between atoms: C_2  and  C_5 
REMARK    2  A    between atoms: N_10  and  C_11 
REMARK    3  A    between atoms: C_11  and  C_12 
REMARK       I    between atoms: C_12  and  N_14 
REMARK    4  A    between atoms: N_14  and  C_15 
ROOT
HETATM    1  C   UNL     1       3.799  -1.636   0.081  1.00  0.00     0.063 A 
HETATM    2  C   UNL     1       4.119  -1.496   1.488  1.00  0.00     0.023 A 
HETATM    3  C   UNL     1       3.614  -2.340   2.396  1.00  0.00     0.075 A 
HETATM    4  C   UNL     1       2.707  -3.443   1.980  1.00  0.00     0.247 A 
HETATM    5  O   UNL     1       2.262  -4.205   2.832  1.00  0.00    -0.268 OA
HETATM    6  N   UNL     1       2.437  -3.525   0.614  1.00  0.00    -0.315 N 
HETATM    7  C   UNL     1       2.989  -2.638  -0.301  1.00  0.00     0.110 A 
ENDROOT
BRANCH   6   8
HETATM    8  C   UNL     1       1.667  -4.674   0.121  1.00  0.00     0.234 C 
BRANCH   8   9
HETATM    9  C   UNL     1       0.341  -4.373  -0.583  1.00  0.00     0.236 C 
HETATM   10  O   UNL     1      -0.179  -5.202  -1.332  1.00  0.00    -0.272 OA
HETATM   11  N   UNL     1      -0.274  -3.187  -0.237  1.00  0.00    -0.355 N 
HETATM   12  H   UNL     1       0.169  -2.593   0.454  1.00  0.00     0.162 HD
BRANCH  11  13
HETATM   13  C   UNL     1      -1.565  -2.838  -0.742  1.00  0.00     0.084 A 
HETATM   14  C   UNL     1      -1.692  -1.996  -1.981  1.00  0.00     0.027 A 
HETATM   15  C   UNL     1      -2.095  -1.435  -0.649  1.00  0.00     0.027 A 
ENDBRANCH  11  13
ENDBRANCH   8   9
ENDBRANCH   6   8
BRANCH   1  16
HETATM   16  C   UNL     1       4.399  -0.682  -0.918  1.00  0.00     0.418 C 
HETATM   17  F   UNL     1       5.248   0.215  -0.355  1.00  0.00    -0.166 F 
HETATM   18  F   UNL     1       3.439   0.034  -1.558  1.00  0.00    -0.166 F 
HETATM   19  F   UNL     1       5.103  -1.339  -1.876  1.00  0.00    -0.166 F 
ENDBRANCH   1  16
TORSDOF 4
