REMARK  6 active torsions:
REMARK  status: ('A' for Active; 'I' for Inactive)
REMARK    1  A    between atoms: C_2  and  N_3 
REMARK    2  A    between atoms: C_2  and  C_16 
REMARK    3  A    between atoms: C_2  and  C_20 
REMARK       I    between atoms: N_3  and  C_4 
REMARK    4  A    between atoms: C_4  and  C_6 
REMARK    5  A    between atoms: C_6  and  N_7 
REMARK    6  A    between atoms: C_16  and  N_17 
ROOT
HETATM    1  N   UNL     1       1.981  -4.330   1.644  1.00  0.00    -0.277 N 
HETATM    2  C   UNL     1       1.096  -5.091   0.942  1.00  0.00     0.203 A 
HETATM    3  N   UNL     1       0.274  -5.691   1.774  1.00  0.00    -0.327 N 
ATOM      4  HN  UNL     1      -0.497  -6.323   1.558  1.00  0.00     0.169 HD
HETATM    5  C   UNL     1       0.705  -5.260   3.003  1.00  0.00     0.204 A 
HETATM    6  C   UNL     1       0.076  -5.658   4.231  1.00  0.00     0.138 C 
HETATM    7  N   UNL     1      -0.433  -5.973   5.231  1.00  0.00    -0.188 NA
HETATM    8  N   UNL     1       1.757  -4.424   2.973  1.00  0.00    -0.273 N 
ATOM      9  HN  UNL     1       2.253  -3.980   3.746  1.00  0.00     0.189 HD
ENDROOT
BRANCH   1  10
HETATM   10  C   UNL     1       3.084  -3.541   1.139  1.00  0.00     0.252 C 
BRANCH  10  11
HETATM   11  C   UNL     1       2.593  -2.406   0.270  1.00  0.00     0.238 C 
HETATM   12  N   UNL     1       2.912  -1.133   0.699  1.00  0.00    -0.339 N 
HETATM   13  H   UNL     1       3.301  -1.004   1.625  1.00  0.00     0.164 HD
HETATM   14  O   UNL     1       1.960  -2.621  -0.760  1.00  0.00    -0.272 OA
BRANCH  12  15
HETATM   15  C   UNL     1       2.452   0.073  -0.005  1.00  0.00     0.104 C 
HETATM   16  C   UNL     1       0.915   0.154  -0.038  1.00  0.00     0.054 C 
BRANCH  15  17
HETATM   17  C   UNL     1       2.959   0.120  -1.438  1.00  0.00    -0.046 C 
BRANCH  17  18
HETATM   18  N   UNL     1       3.379   0.159  -2.626  1.00  0.00    -0.367 N 
ATOM     19  HN2 UNL     1       3.028   0.129  -1.669  1.00  0.00     0.165 HD
ATOM     20  HN1 UNL     1       3.719   0.191  -3.587  1.00  0.00     0.165 HD
ENDBRANCH  17  18
ENDBRANCH  15  17
BRANCH  15  21
HETATM   21  C   UNL     1       3.107   1.277   0.659  1.00  0.00     0.027 A 
HETATM   22  C   UNL     1       2.753   1.671   2.081  1.00  0.00     0.009 A 
HETATM   23  C   UNL     1       2.385   2.581   0.945  1.00  0.00     0.009 A 
ENDBRANCH  15  21
ENDBRANCH  12  15
ENDBRANCH  10  11
ENDBRANCH   1  10
TORSDOF 6
