REMARK  3 active torsions:
REMARK  status: ('A' for Active; 'I' for Inactive)
REMARK    1  A    between atoms: C_2  and  C_3 
REMARK    2  A    between atoms: C_2  and  N_10 
REMARK    3  A    between atoms: C_3  and  N_4 
REMARK       I    between atoms: N_10  and  C_11 
REMARK       I    between atoms: C_11  and  N_13 
ROOT
HETATM    1  N   UNL     1       3.110  -0.199   1.367  1.00  0.00    -0.337 N 
HETATM    2  C   UNL     1       4.440  -0.220   1.693  1.00  0.00     0.318 C 
HETATM    3  O   UNL     1       5.327  -0.123   0.853  1.00  0.00    -0.247 OA
HETATM    4  N   UNL     1       4.676  -0.307   3.056  1.00  0.00    -0.333 N 
HETATM    5  C   UNL     1       6.022  -0.029   3.567  1.00  0.00     0.137 C 
HETATM    6  C   UNL     1       6.758  -1.275   4.063  1.00  0.00     0.093 C 
HETATM    7  S   UNL     1       5.837  -2.132   5.388  1.00  0.00    -0.166 SA
HETATM    8  C   UNL     1       4.248  -2.286   4.512  1.00  0.00     0.093 C 
HETATM    9  C   UNL     1       3.749  -0.925   4.017  1.00  0.00     0.137 C 
HETATM   10  H   UNL     1       2.531   0.223   2.077  1.00  0.00     0.164 HD
ENDROOT
BRANCH   1  11
HETATM   11  C   UNL     1       2.599  -0.087  -0.006  1.00  0.00     0.102 C 
HETATM   12  C   UNL     1       1.075  -0.231   0.072  1.00  0.00     0.034 C 
BRANCH  11  13
HETATM   13  C   UNL     1       3.027   1.221  -0.699  1.00  0.00     0.172 C 
BRANCH  13  14
HETATM   14  N   UNL     1       2.522   1.342  -2.055  1.00  0.00    -0.302 N 
HETATM   15  C   UNL     1       3.103   0.868  -3.194  1.00  0.00     0.111 A 
HETATM   16  C   UNL     1       2.257   1.202  -4.224  1.00  0.00     0.037 A 
HETATM   17  C   UNL     1       1.194   1.882  -3.603  1.00  0.00     0.108 A 
HETATM   18  N   UNL     1       1.357   1.983  -2.282  1.00  0.00    -0.310 N 
ATOM     19  HN  UNL     1       0.745   2.438  -1.604  1.00  0.00     0.186 HD
ENDBRANCH  13  14
ENDBRANCH  11  13
ENDBRANCH   1  11
TORSDOF 3
