REMARK  7 active torsions:
REMARK  status: ('A' for Active; 'I' for Inactive)
REMARK    1  A    between atoms: C_2  and  C_3 
REMARK    2  A    between atoms: C_3  and  O_4 
REMARK    3  A    between atoms: C_3  and  C_11 
REMARK    4  A    between atoms: O_4  and  C_5 
REMARK       I    between atoms: C_11  and  N_13 
REMARK    5  A    between atoms: N_13  and  C_14 
REMARK    6  A    between atoms: C_14  and  C_15 
REMARK    7  A    between atoms: C_15  and  C_16 
ROOT
HETATM    1  C   UNL     1       4.772   1.159  -0.334  1.00  0.00     0.246 C 
HETATM    2  O   UNL     1       5.555   0.226  -0.152  1.00  0.00    -0.271 OA
HETATM    3  N   UNL     1       5.237   2.390  -0.738  1.00  0.00    -0.358 N 
HETATM    4  H   UNL     1       4.569   3.125  -0.943  1.00  0.00     0.162 HD
ENDROOT
BRANCH   3   5
HETATM    5  C   UNL     1       6.670   2.640  -0.839  1.00  0.00     0.130 C 
BRANCH   5   6
HETATM    6  C   UNL     1       7.219   2.336  -2.229  1.00  0.00     0.098 C 
BRANCH   6   7
HETATM    7  C   UNL     1       8.703   2.506  -2.254  1.00  0.00     0.101 A 
HETATM    8  N   UNL     1       9.317   3.616  -2.538  1.00  0.00    -0.285 N 
HETATM    9  N   UNL     1      10.648   3.298  -2.432  1.00  0.00    -0.250 N 
ATOM     10  HN  UNL     1       8.905   4.516  -2.783  1.00  0.00     0.188 HD
HETATM   11  C   UNL     1      10.797   1.962  -2.086  1.00  0.00     0.340 A 
HETATM   12  H   UNL     1      11.389   3.955  -2.631  1.00  0.00     0.192 HD
HETATM   13  O   UNL     1      11.839   1.348  -1.942  1.00  0.00    -0.245 OA
HETATM   14  N   UNL     1       9.531   1.483  -1.948  1.00  0.00    -0.296 N 
HETATM   15  H   UNL     1       9.303   0.529  -1.723  1.00  0.00     0.172 HD
ENDBRANCH   6   7
ENDBRANCH   5   6
ENDBRANCH   3   5
BRANCH   1  16
HETATM   16  C   UNL     1       3.218   0.998  -0.185  1.00  0.00     0.213 C 
BRANCH  16  17
HETATM   17  C   UNL     1       3.003  -0.282   0.667  1.00  0.00     0.037 C 
HETATM   18  C   UNL     1       1.597  -0.822   0.855  1.00  0.00     0.008 C 
ENDBRANCH  16  17
BRANCH  16  19
HETATM   19  O   UNL     1       2.409   2.134   0.134  1.00  0.00    -0.371 OA
BRANCH  19  20
HETATM   20  C   UNL     1       2.719   2.915   1.294  1.00  0.00     0.122 C 
HETATM   21  C   UNL     1       2.135   2.311   2.569  1.00  0.00     0.032 C 
HETATM   22  C   UNL     1       0.609   2.284   2.529  1.00  0.00     0.002 C 
HETATM   23  C   UNL     1       0.040   3.689   2.429  1.00  0.00     0.000 C 
HETATM   24  C   UNL     1       0.610   4.431   1.223  1.00  0.00     0.002 C 
HETATM   25  C   UNL     1       2.140   4.345   1.133  1.00  0.00     0.032 C 
ENDBRANCH  19  20
ENDBRANCH  16  19
ENDBRANCH   1  16
TORSDOF 7
