REMARK  3 active torsions:
REMARK  status: ('A' for Active; 'I' for Inactive)
REMARK    1  A    between atoms: C_2  and  N_4 
REMARK       I    between atoms: N_4  and  C_5 
REMARK    2  A    between atoms: C_5  and  C_7 
REMARK    3  A    between atoms: C_10  and  N_14 
ROOT
HETATM    1  C   UNL     1       5.041  -1.518   2.679  1.00  0.00     0.047 A 
HETATM    2  C   UNL     1       5.807  -0.870   3.636  1.00  0.00     0.022 A 
HETATM    3  C   UNL     1       6.224  -1.573   4.767  1.00  0.00     0.049 A 
HETATM    4  C   UNL     1       5.882  -2.916   4.943  1.00  0.00     0.103 A 
HETATM    5  N   UNL     1       5.092  -3.528   4.032  1.00  0.00    -0.351 N 
ATOM      6  HN  UNL     1       4.807  -4.499   4.163  1.00  0.00     0.166 HD
HETATM    7  C   UNL     1       4.682  -2.829   2.936  1.00  0.00     0.106 A 
ENDROOT
BRANCH   1   8
HETATM    8  C   UNL     1       4.596  -0.858   1.427  1.00  0.00     0.253 C 
HETATM    9  N   UNL     1       5.424   0.144   0.960  1.00  0.00    -0.353 N 
HETATM   10  H   UNL     1       6.357   0.210   1.344  1.00  0.00     0.163 HD
HETATM   11  O   UNL     1       3.574  -1.225   0.861  1.00  0.00    -0.268 OA
BRANCH   9  12
HETATM   12  C   UNL     1       5.176   0.849  -0.290  1.00  0.00     0.076 C 
HETATM   13  C   UNL     1       5.835   2.225  -0.239  1.00  0.00     0.032 C 
HETATM   14  C   UNL     1       5.702   0.048  -1.478  1.00  0.00     0.032 C 
ENDBRANCH   9  12
ENDBRANCH   1   8
BRANCH   4  15
HETATM   15  N   UNL     1       6.293  -3.614   6.057  1.00  0.00    -0.363 N 
HETATM   16  C   UNL     1       7.581  -3.368   6.719  1.00  0.00     0.150 C 
HETATM   17  C   UNL     1       8.496  -4.599   6.613  1.00  0.00     0.187 C 
HETATM   18  O   UNL     1       7.848  -5.788   7.087  1.00  0.00    -0.388 OA
HETATM   19  C   UNL     1       6.673  -6.050   6.299  1.00  0.00     0.187 C 
HETATM   20  C   UNL     1       5.663  -4.898   6.397  1.00  0.00     0.150 C 
ENDBRANCH   4  15
TORSDOF 3
