REMARK  6 active torsions:
REMARK  status: ('A' for Active; 'I' for Inactive)
REMARK    1  A    between atoms: C_2  and  C_4 
REMARK    2  A    between atoms: C_4  and  C_5 
REMARK    3  A    between atoms: C_4  and  N_19 
REMARK    4  A    between atoms: C_5  and  N_6 
REMARK       I    between atoms: N_6  and  C_7 
REMARK    5  A    between atoms: C_7  and  C_9 
REMARK    6  A    between atoms: C_9  and  N_10 
ROOT
HETATM    1  N   UNL     1       2.782   2.650   2.653  1.00  0.00    -0.358 N 
HETATM    2  C   UNL     1       2.164   3.166   3.757  1.00  0.00     0.236 C 
HETATM    3  O   UNL     1       2.793   3.947   4.472  1.00  0.00    -0.272 OA
HETATM    4  H   UNL     1       3.741   2.949   2.659  1.00  0.00     0.162 HD
ENDROOT
BRANCH   1   5
HETATM    5  C   UNL     1       2.427   1.415   1.962  1.00  0.00     0.159 C 
BRANCH   5   6
HETATM    6  C   UNL     1       3.082   1.192   0.551  1.00  0.00     0.244 C 
BRANCH   6   7
HETATM    7  C   UNL     1       2.268   0.059  -0.210  1.00  0.00     0.012 C 
HETATM    8  C   UNL     1       2.326  -1.315   0.471  1.00  0.00     0.012 C 
HETATM    9  C   UNL     1       0.791   0.412  -0.464  1.00  0.00     0.012 C 
ENDBRANCH   6   7
BRANCH   6  10
HETATM   10  N   UNL     1       4.558   0.886   0.594  1.00  0.00     0.099 N 
HETATM   11  C   UNL     1       5.426   1.905   1.242  1.00  0.00     0.299 C 
HETATM   12  C   UNL     1       5.479   3.236   0.469  1.00  0.00     0.198 C 
HETATM   13  O   UNL     1       6.040   3.026  -0.833  1.00  0.00    -0.388 OA
HETATM   14  C   UNL     1       5.318   2.019  -1.557  1.00  0.00     0.198 C 
HETATM   15  C   UNL     1       5.174   0.710  -0.752  1.00  0.00     0.299 C 
ENDBRANCH   6  10
ENDBRANCH   5   6
ENDBRANCH   1   5
BRANCH   2  16
HETATM   16  C   UNL     1       0.694   2.858   3.997  1.00  0.00     0.235 C 
BRANCH  16  17
HETATM   17  N   UNL     1      -0.142   3.446   2.941  1.00  0.00    -0.301 N 
HETATM   18  C   UNL     1       0.100   4.736   2.515  1.00  0.00     0.102 A 
HETATM   19  C   UNL     1      -0.560   5.276   1.497  1.00  0.00     0.092 A 
HETATM   20  C   UNL     1      -1.613   4.499   0.824  1.00  0.00     0.252 A 
HETATM   21  O   UNL     1      -2.177   4.989  -0.149  1.00  0.00    -0.268 OA
HETATM   22  N   UNL     1      -1.876   3.249   1.355  1.00  0.00    -0.271 N 
HETATM   23  C   UNL     1      -2.929   2.450   0.765  1.00  0.00     0.164 C 
HETATM   24  C   UNL     1      -1.144   2.659   2.383  1.00  0.00     0.331 A 
HETATM   25  O   UNL     1      -1.355   1.506   2.762  1.00  0.00    -0.246 OA
ENDBRANCH  16  17
ENDBRANCH   2  16
TORSDOF 6
