REMARK  5 active torsions:
REMARK  status: ('A' for Active; 'I' for Inactive)
REMARK    1  A    between atoms: N_1  and  C_7 
REMARK    2  A    between atoms: N_2  and  C_8 
REMARK    3  A    between atoms: C_7  and  C_11 
REMARK    4  A    between atoms: C_11  and  C_14 
REMARK    5  A    between atoms: C_11  and  O_15 
ROOT
HETATM    1  N   UNL     1      -0.510   1.079  -0.126  1.00  0.00    -0.261 N 
HETATM    2  N   UNL     1      -0.288  -1.208  -0.622  1.00  0.00    -0.279 N 
HETATM    3  C   UNL     1      -0.816   0.027  -0.986  1.00  0.00     0.333 C 
HETATM    4  C   UNL     1       0.671   1.094   0.609  1.00  0.00     0.291 C 
HETATM    5  C   UNL     1       1.361  -0.216   0.730  1.00  0.00     0.200 C 
HETATM    6  C   UNL     1       0.828  -1.302   0.178  1.00  0.00     0.146 C 
HETATM    7  O   UNL     1      -1.483   0.170  -2.014  1.00  0.00    -0.246 OA
HETATM    8  O   UNL     1       1.152   2.093   1.131  1.00  0.00    -0.264 OA
HETATM    9  F   UNL     1       2.477  -0.262   1.481  1.00  0.00    -0.199 F 
ENDROOT
BRANCH   1  10
HETATM   10  C   UNL     1      -1.278   2.329  -0.232  1.00  0.00     0.169 C 
BRANCH  10  11
HETATM   11  C   UNL     1      -2.814   2.178   0.015  1.00  0.00     0.140 C 
BRANCH  11  12
HETATM   12  C   UNL     1      -3.574   3.534   0.044  1.00  0.00     0.016 C 
HETATM   13  C   UNL     1      -3.168   4.462   1.197  1.00  0.00     0.007 C 
HETATM   14  C   UNL     1      -3.614   3.928   2.557  1.00  0.00     0.000 C 
HETATM   15  C   UNL     1      -5.117   3.662   2.597  1.00  0.00     0.000 C 
HETATM   16  C   UNL     1      -5.591   2.798   1.431  1.00  0.00     0.000 C 
HETATM   17  C   UNL     1      -5.111   3.350   0.089  1.00  0.00     0.007 C 
ENDBRANCH  11  12
BRANCH  11  18
HETATM   18  O   UNL     1      -3.448   1.385  -0.992  1.00  0.00    -0.394 OA
HETATM   19  H   UNL     1      -2.982   1.516  -1.842  1.00  0.00     0.210 HD
ENDBRANCH  11  18
ENDBRANCH  10  11
ENDBRANCH   1  10
BRANCH   2  20
HETATM   20  C   UNL     1      -1.020  -2.386  -1.050  1.00  0.00     0.232 C 
HETATM   21  O   UNL     1      -0.937  -3.418  -0.046  1.00  0.00    -0.366 OA
HETATM   22  C   UNL     1      -1.074  -4.685  -0.708  1.00  0.00     0.170 C 
HETATM   23  C   UNL     1      -1.224  -4.404  -2.191  1.00  0.00     0.031 C 
HETATM   24  C   UNL     1      -0.569  -3.047  -2.339  1.00  0.00     0.056 C 
ENDBRANCH   2  20
TORSDOF 5
