REMARK  5 active torsions:
REMARK  status: ('A' for Active; 'I' for Inactive)
REMARK    1  A    between atoms: C_2  and  C_3 
REMARK       I    between atoms: C_2  and  N_10 
REMARK    2  A    between atoms: C_3  and  N_4 
REMARK    3  A    between atoms: N_10  and  C_11 
REMARK    4  A    between atoms: C_11  and  C_12 
REMARK    5  A    between atoms: C_12  and  C_13 
ROOT
HETATM    1  O   UNL     1       2.941   3.090   0.828  1.00  0.00    -0.272 OA
HETATM    2  C   UNL     1       2.334   2.026   0.926  1.00  0.00     0.237 C 
HETATM    3  N   UNL     1       2.962   0.806   1.076  1.00  0.00    -0.360 N 
HETATM    4  H   UNL     1       2.425  -0.049   0.994  1.00  0.00     0.162 HD
ENDROOT
BRANCH   3   5
HETATM    5  C   UNL     1       4.407   0.686   1.111  1.00  0.00     0.123 C 
BRANCH   5   6
HETATM    6  C   UNL     1       5.025   1.274   2.381  1.00  0.00     0.024 C 
BRANCH   6   7
HETATM    7  C   UNL     1       6.548   1.108   2.413  1.00  0.00    -0.009 C 
HETATM    8  C   UNL     1       7.200   1.754   3.657  1.00  0.00     0.010 C 
HETATM    9  C   UNL     1       8.277   2.670   3.047  1.00  0.00    -0.014 C 
HETATM   10  C   UNL     1       7.582   3.865   2.369  1.00  0.00     0.005 C 
HETATM   11  C   UNL     1       8.745   1.846   1.848  1.00  0.00     0.009 C 
HETATM   12  C   UNL     1       6.999   3.247   1.090  1.00  0.00     0.005 C 
HETATM   13  C   UNL     1       7.339   1.756   1.246  1.00  0.00    -0.010 C 
ENDBRANCH   6   7
ENDBRANCH   5   6
ENDBRANCH   3   5
BRANCH   2  14
HETATM   14  C   UNL     1       0.826   1.975   0.900  1.00  0.00     0.249 C 
BRANCH  14  15
HETATM   15  N   UNL     1       0.278   2.598   2.075  1.00  0.00    -0.264 N 
HETATM   16  C   UNL     1       0.331   3.899   2.462  1.00  0.00     0.213 A 
HETATM   17  N   UNL     1      -0.372   4.034   3.563  1.00  0.00    -0.281 N 
HETATM   18  N   UNL     1      -0.876   2.786   3.845  1.00  0.00    -0.008 NA
ATOM     19  HN  UNL     1      -0.515   4.890   4.099  1.00  0.00     0.184 HD
HETATM   20  N   UNL     1      -0.487   1.900   2.936  1.00  0.00    -0.005 NA
ENDBRANCH  14  15
ENDBRANCH   2  14
TORSDOF 5
