REMARK  3 active torsions:
REMARK  status: ('A' for Active; 'I' for Inactive)
REMARK       I    between atoms: N_1  and  C_2 
REMARK    1  A    between atoms: C_2  and  C_4 
REMARK    2  A    between atoms: C_4  and  N_5 
REMARK    3  A    between atoms: C_7  and  N_8 
REMARK       I    between atoms: N_8  and  C_9 
REMARK       I    between atoms: C_9  and  N_11 
ROOT
HETATM    1  N   UNL     1       4.797  -0.929  -0.006  1.00  0.00    -0.293 N 
HETATM    2  C   UNL     1       5.352   0.316   0.066  1.00  0.00     0.141 A 
HETATM    3  C   UNL     1       6.707   0.159  -0.089  1.00  0.00     0.070 A 
HETATM    4  C   UNL     1       6.868  -1.231  -0.292  1.00  0.00     0.138 A 
HETATM    5  N   UNL     1       5.709  -1.899  -0.255  1.00  0.00    -0.307 N 
ATOM      6  HN  UNL     1       5.550  -2.898  -0.383  1.00  0.00     0.186 HD
ENDROOT
BRANCH   3   7
HETATM    7  N   UNL     1       7.691   1.135  -0.062  1.00  0.00    -0.306 N 
HETATM    8  C   UNL     1       7.453   2.476   0.121  1.00  0.00     0.323 C 
HETATM    9  O   UNL     1       6.347   2.965   0.352  1.00  0.00    -0.247 OA
HETATM   10  N   UNL     1       8.560   3.290  -0.011  1.00  0.00    -0.334 N 
HETATM   11  C   UNL     1       9.946   2.924  -0.234  1.00  0.00     0.127 C 
HETATM   12  C   UNL     1       8.412   4.730   0.058  1.00  0.00     0.127 C 
HETATM   13  C   UNL     1      10.667   4.234  -0.547  1.00  0.00     0.022 C 
HETATM   14  C   UNL     1       9.551   5.242  -0.801  1.00  0.00     0.022 C 
HETATM   15  H   UNL     1       8.640   0.824  -0.189  1.00  0.00     0.171 HD
ENDBRANCH   3   7
BRANCH   1  16
HETATM   16  C   UNL     1       3.400  -1.257   0.217  1.00  0.00     0.250 C 
BRANCH  16  17
HETATM   17  C   UNL     1       2.703  -1.947  -0.936  1.00  0.00     0.235 C 
HETATM   18  N   UNL     1       3.425  -2.266  -2.047  1.00  0.00    -0.369 N 
HETATM   19  H   UNL     1       2.957  -2.831  -2.744  1.00  0.00     0.159 HD
HETATM   20  H   UNL     1       4.436  -2.360  -1.970  1.00  0.00     0.159 HD
HETATM   21  O   UNL     1       1.504  -2.217  -0.895  1.00  0.00    -0.272 OA
ENDBRANCH  16  17
ENDBRANCH   1  16
TORSDOF 3
