REMARK  4 active torsions:
REMARK  status: ('A' for Active; 'I' for Inactive)
REMARK    1  A    between atoms: C_2  and  C_4 
REMARK    2  A    between atoms: C_8  and  C_9 
REMARK    3  A    between atoms: C_9  and  C_10 
REMARK    4  A    between atoms: C_10  and  N_11 
REMARK       I    between atoms: N_11  and  C_12 
REMARK       I    between atoms: C_12  and  N_14 
ROOT
HETATM    1  C   UNL     1       4.768   5.934  -0.779  1.00  0.00     0.132 C 
ENDROOT
BRANCH   1   2
HETATM    2  C   UNL     1       5.957   5.230  -0.123  1.00  0.00     0.106 C 
BRANCH   2   3
HETATM    3  C   UNL     1       5.901   3.753  -0.292  1.00  0.00     0.149 A 
HETATM    4  O   UNL     1       7.104   3.132  -0.474  1.00  0.00    -0.223 OA
HETATM    5  N   UNL     1       6.841   1.768  -0.564  1.00  0.00    -0.247 N 
HETATM    6  C   UNL     1       5.511   1.698  -0.426  1.00  0.00     0.107 A 
ATOM      7  HN  UNL     1       7.503   1.004  -0.702  1.00  0.00     0.196 HD
HETATM    8  N   UNL     1       4.886   2.914  -0.257  1.00  0.00    -0.327 N 
ATOM      9  HN  UNL     1       3.893   3.113  -0.136  1.00  0.00     0.169 HD
BRANCH   6  10
HETATM   10  C   UNL     1       4.795   0.385  -0.443  1.00  0.00     0.047 C 
HETATM   11  C   UNL     1       3.948   0.177   0.812  1.00  0.00     0.017 C 
HETATM   12  C   UNL     1       3.941   0.217  -1.700  1.00  0.00     0.017 C 
ENDBRANCH   6  10
ENDBRANCH   2   3
ENDBRANCH   1   2
BRANCH   1  13
HETATM   13  N   UNL     1       4.756   7.394  -0.644  1.00  0.00    -0.343 N 
HETATM   14  C   UNL     1       5.747   8.172  -1.206  1.00  0.00     0.318 C 
HETATM   15  O   UNL     1       6.711   7.633  -1.740  1.00  0.00    -0.247 OA
HETATM   16  N   UNL     1       5.573   9.560  -1.101  1.00  0.00    -0.330 N 
HETATM   17  C   UNL     1       4.537  10.145  -0.233  1.00  0.00     0.128 C 
HETATM   18  C   UNL     1       6.743  10.463  -1.345  1.00  0.00     0.085 C 
HETATM   19  C   UNL     1       4.081  11.524  -0.692  1.00  0.00     0.020 C 
HETATM   20  C   UNL     1       5.259  12.472  -0.803  1.00  0.00     0.004 C 
HETATM   21  C   UNL     1       6.290  11.885  -1.751  1.00  0.00     0.025 C 
HETATM   22  C   UNL     1       7.773  10.025  -2.398  1.00  0.00     0.032 C 
HETATM   23  H   UNL     1       3.833   7.784  -0.727  1.00  0.00     0.164 HD
ENDBRANCH   1  13
TORSDOF 4
