REMARK  4 active torsions:
REMARK  status: ('A' for Active; 'I' for Inactive)
REMARK    1  A    between atoms: O_1  and  C_2 
REMARK    2  A    between atoms: C_2  and  C_3 
REMARK    3  A    between atoms: C_3  and  N_4 
REMARK       I    between atoms: N_4  and  C_5 
REMARK       I    between atoms: C_5  and  N_7 
REMARK    4  A    between atoms: N_7  and  C_8 
ROOT
HETATM    1  N   UNL     1       4.424   0.322   1.652  1.00  0.00    -0.340 N 
HETATM    2  C   UNL     1       5.035   0.821   2.777  1.00  0.00     0.321 C 
HETATM    3  O   UNL     1       4.416   1.430   3.646  1.00  0.00    -0.247 OA
HETATM    4  N   UNL     1       6.365   0.493   2.819  1.00  0.00    -0.295 N 
HETATM    5  H   UNL     1       4.997   0.161   0.833  1.00  0.00     0.164 HD
HETATM    6  H   UNL     1       6.599  -0.393   2.400  1.00  0.00     0.172 HD
ENDROOT
BRANCH   1   7
HETATM    7  C   UNL     1       2.988   0.441   1.486  1.00  0.00     0.162 C 
BRANCH   7   8
HETATM    8  C   UNL     1       2.483   0.044   0.080  1.00  0.00     0.074 C 
HETATM    9  C   UNL     1       0.942   0.028   0.080  1.00  0.00     0.039 C 
HETATM   10  C   UNL     1       0.352  -0.236  -1.305  1.00  0.00     0.003 C 
HETATM   11  C   UNL     1       0.894   0.745  -2.339  1.00  0.00     0.000 C 
HETATM   12  C   UNL     1       2.417   0.728  -2.376  1.00  0.00     0.003 C 
HETATM   13  C   UNL     1       3.016   1.007  -0.996  1.00  0.00     0.039 C 
BRANCH   8  14
HETATM   14  O   UNL     1       2.962  -1.271  -0.237  1.00  0.00    -0.388 OA
HETATM   15  H   UNL     1       2.629  -1.882   0.444  1.00  0.00     0.210 HD
ENDBRANCH   8  14
ENDBRANCH   7   8
ENDBRANCH   1   7
BRANCH   4  16
HETATM   16  C   UNL     1       7.184   0.793   3.912  1.00  0.00     0.108 A 
HETATM   17  C   UNL     1       7.118   2.014   4.580  1.00  0.00     0.052 A 
HETATM   18  C   UNL     1       7.935   2.215   5.692  1.00  0.00     0.047 A 
HETATM   19  C   UNL     1       8.764   1.184   6.105  1.00  0.00     0.131 A 
HETATM   20  F   UNL     1       9.530   1.325   7.192  1.00  0.00    -0.205 F 
HETATM   21  C   UNL     1       8.784   0.011   5.372  1.00  0.00     0.132 A 
HETATM   22  N   UNL     1       8.035  -0.195   4.260  1.00  0.00    -0.349 N 
ATOM     23  HN  UNL     1       8.111  -1.053   3.714  1.00  0.00     0.167 HD
ENDBRANCH   4  16
TORSDOF 4
