REMARK  6 active torsions:
REMARK  status: ('A' for Active; 'I' for Inactive)
REMARK    1  A    between atoms: N_5  and  C_13 
REMARK    2  A    between atoms: C_13  and  O_18 
REMARK    3  A    between atoms: C_14  and  O_17 
REMARK    4  A    between atoms: O_17  and  C_20 
REMARK    5  A    between atoms: O_18  and  C_21 
REMARK    6  A    between atoms: C_20  and  C_21 
ROOT
HETATM    1  C   UNL     1       0.250  -0.670   0.007  1.00  0.00     0.158 A 
HETATM    2  C   UNL     1       0.305   0.707   0.022  1.00  0.00     0.147 A 
HETATM    3  N   UNL     1      -0.848  -1.465  -0.032  1.00  0.00    -0.174 N 
ATOM      4  HN  UNL     1      -0.803  -2.484  -0.036  1.00  0.00     0.186 HD
HETATM    5  N   UNL     1       1.558  -1.072   0.015  1.00  0.00    -0.305 N 
HETATM    6  N   UNL     1      -2.042   0.584  -0.026  1.00  0.00    -0.154 N 
HETATM    7  N   UNL     1       1.598   1.161   0.031  1.00  0.00    -0.345 N 
ATOM      8  HN  UNL     1       1.922   2.128   0.043  1.00  0.00     0.167 HD
HETATM    9  C   UNL     1      -0.944   1.433   0.008  1.00  0.00     0.290 A 
HETATM   10  C   UNL     1      -1.970  -0.795  -0.064  1.00  0.00     0.680 A 
HETATM   11  C   UNL     1       2.329   0.063   0.020  1.00  0.00     0.187 A 
HETATM   12  O   UNL     1      -1.071   2.654   0.018  1.00  0.00    -0.265 OA
HETATM   13  N   UNL     1      -3.155  -1.448  -0.142  1.00  0.00    -0.234 N 
HETATM   14  H   UNL     1      -2.932   1.050  -0.071  1.00  0.00     0.187 HD
HETATM   15  H   UNL     1      -3.101  -2.439   0.065  1.00  0.00     0.174 HD
HETATM   16  H   UNL     1      -3.996  -0.993   0.185  1.00  0.00     0.174 HD
ENDROOT
BRANCH   5  17
HETATM   17  C   UNL     1       2.017  -2.448   0.005  1.00  0.00     0.301 C 
BRANCH  17  18
HETATM   18  O   UNL     1       3.445  -2.478   0.042  1.00  0.00    -0.369 OA
BRANCH  18  19
HETATM   19  C   UNL     1       3.949  -3.815  -0.006  1.00  0.00     0.196 C 
BRANCH  19  20
HETATM   20  C   UNL     1       5.478  -3.774  -0.016  1.00  0.00     0.205 C 
BRANCH  20  21
HETATM   21  O   UNL     1       5.980  -3.117  -1.195  1.00  0.00    -0.320 OA
BRANCH  21  22
HETATM   22  C   UNL     1       5.970  -3.861  -2.331  1.00  0.00     0.254 C 
HETATM   23  O   UNL     1       5.587  -5.020  -2.412  1.00  0.00    -0.266 OA
HETATM   24  C   UNL     1       6.486  -3.067  -3.493  1.00  0.00     0.126 C 
ENDBRANCH  21  22
ENDBRANCH  20  21
ENDBRANCH  19  20
ENDBRANCH  18  19
ENDBRANCH  17  18
ENDBRANCH   5  17
TORSDOF 6
