REMARK  6 active torsions:
REMARK  status: ('A' for Active; 'I' for Inactive)
REMARK    1  A    between atoms: C_2  and  C_3 
REMARK    2  A    between atoms: C_2  and  N_15 
REMARK       I    between atoms: C_3  and  N_5 
REMARK    3  A    between atoms: N_5  and  C_6 
REMARK    4  A    between atoms: C_6  and  C_7 
REMARK    5  A    between atoms: C_7  and  C_8 
REMARK    6  A    between atoms: C_8  and  N_9 
ROOT
HETATM    1  C   UNL     1       3.559  -1.849   1.076  1.00  0.00     0.242 C 
HETATM    2  O   UNL     1       4.541  -2.383   1.584  1.00  0.00    -0.271 OA
HETATM    3  N   UNL     1       2.900  -2.392  -0.011  1.00  0.00    -0.359 N 
HETATM    4  H   UNL     1       2.003  -1.986  -0.277  1.00  0.00     0.162 HD
ENDROOT
BRANCH   1   5
HETATM    5  C   UNL     1       3.005  -0.512   1.564  1.00  0.00     0.196 C 
HETATM    6  C   UNL     1       3.922   0.121   2.611  1.00  0.00     0.044 C 
BRANCH   5   7
HETATM    7  N   UNL     1       1.639  -0.674   2.031  1.00  0.00    -0.273 N 
HETATM    8  C   UNL     1       1.178  -0.864   3.297  1.00  0.00     0.202 A 
HETATM    9  N   UNL     1      -0.134  -0.889   3.290  1.00  0.00    -0.346 N 
HETATM   10  C   UNL     1      -0.441  -0.724   1.972  1.00  0.00     0.198 A 
ATOM     11  HN  UNL     1      -0.770  -1.004   4.079  1.00  0.00     0.167 HD
HETATM   12  N   UNL     1       0.609  -0.616   1.153  1.00  0.00    -0.292 N 
ATOM     13  HN  UNL     1       0.630  -0.516   0.138  1.00  0.00     0.188 HD
ENDBRANCH   5   7
ENDBRANCH   1   5
BRANCH   3  14
HETATM   14  C   UNL     1       3.276  -3.678  -0.575  1.00  0.00     0.124 C 
BRANCH  14  15
HETATM   15  C   UNL     1       2.769  -4.859   0.255  1.00  0.00     0.050 C 
BRANCH  15  16
HETATM   16  C   UNL     1       1.237  -4.938   0.251  1.00  0.00     0.274 C 
BRANCH  16  17
HETATM   17  N   UNL     1       0.682  -6.058   1.031  1.00  0.00     0.092 N 
HETATM   18  C   UNL     1      -0.803  -6.052   0.960  1.00  0.00     0.298 C 
HETATM   19  C   UNL     1      -1.468  -4.922   1.774  1.00  0.00     0.198 C 
HETATM   20  O   UNL     1      -1.032  -4.917   3.139  1.00  0.00    -0.388 OA
HETATM   21  C   UNL     1       0.397  -4.849   3.225  1.00  0.00     0.198 C 
HETATM   22  C   UNL     1       1.042  -6.019   2.469  1.00  0.00     0.298 C 
ENDBRANCH  16  17
ENDBRANCH  15  16
ENDBRANCH  14  15
ENDBRANCH   3  14
TORSDOF 6
