REMARK  7 active torsions:
REMARK  status: ('A' for Active; 'I' for Inactive)
REMARK    1  A    between atoms: C_5  and  N_6 
REMARK    2  A    between atoms: N_6  and  C_7 
REMARK    3  A    between atoms: N_11  and  C_12 
REMARK    4  A    between atoms: C_12  and  C_13 
REMARK       I    between atoms: C_13  and  N_15 
REMARK    5  A    between atoms: N_15  and  C_16 
REMARK    6  A    between atoms: C_16  and  C_17 
REMARK    7  A    between atoms: C_17  and  O_18 
ROOT
HETATM    1  C   UNL     1       5.369   0.096  -3.681  1.00  0.00     0.062 A 
HETATM    2  C   UNL     1       5.102   0.442  -5.018  1.00  0.00     0.138 A 
HETATM    3  N   UNL     1       6.078   1.191  -5.549  1.00  0.00    -0.307 N 
ATOM      4  HN  UNL     1       6.157   1.544  -6.503  1.00  0.00     0.186 HD
HETATM    5  N   UNL     1       6.931   1.366  -4.517  1.00  0.00    -0.293 N 
HETATM    6  C   UNL     1       6.563   0.698  -3.385  1.00  0.00     0.141 A 
ENDROOT
BRANCH   1   7
HETATM    7  N   UNL     1       4.645  -0.630  -2.806  1.00  0.00    -0.383 N 
HETATM    8  H   UNL     1       5.124  -1.265  -2.175  1.00  0.00     0.160 HD
BRANCH   7   9
HETATM    9  C   UNL     1       3.183  -0.708  -2.827  1.00  0.00     0.085 C 
HETATM   10  C   UNL     1       2.561   0.698  -2.692  1.00  0.00     0.026 C 
HETATM   11  C   UNL     1       2.859   1.340  -1.333  1.00  0.00     0.006 C 
HETATM   12  C   UNL     1       2.418   0.467  -0.152  1.00  0.00    -0.018 C 
HETATM   13  C   UNL     1       0.896   0.500   0.023  1.00  0.00     0.010 C 
HETATM   14  C   UNL     1       2.945  -0.972  -0.291  1.00  0.00     0.010 C 
HETATM   15  C   UNL     1       2.650  -1.593  -1.671  1.00  0.00     0.004 C 
HETATM   16  C   UNL     1       3.148  -3.038  -1.738  1.00  0.00     0.012 C 
ENDBRANCH   7   9
ENDBRANCH   1   7
BRANCH   5  17
HETATM   17  C   UNL     1       8.083   2.226  -4.691  1.00  0.00     0.250 C 
BRANCH  17  18
HETATM   18  C   UNL     1       9.371   1.506  -4.369  1.00  0.00     0.237 C 
HETATM   19  O   UNL     1      10.125   1.897  -3.480  1.00  0.00    -0.272 OA
HETATM   20  N   UNL     1       9.656   0.418  -5.167  1.00  0.00    -0.358 N 
HETATM   21  H   UNL     1       8.965   0.085  -5.827  1.00  0.00     0.162 HD
BRANCH  20  22
HETATM   22  C   UNL     1      10.886  -0.344  -5.006  1.00  0.00     0.148 C 
BRANCH  22  23
HETATM   23  C   UNL     1      10.791  -1.382  -3.888  1.00  0.00     0.183 C 
BRANCH  23  24
HETATM   24  O   UNL     1       9.828  -2.380  -4.223  1.00  0.00    -0.399 OA
HETATM   25  H   UNL     1       8.965  -1.931  -4.254  1.00  0.00     0.209 HD
ENDBRANCH  23  24
ENDBRANCH  22  23
ENDBRANCH  20  22
ENDBRANCH  17  18
ENDBRANCH   5  17
TORSDOF 7
