REMARK  7 active torsions:
REMARK  status: ('A' for Active; 'I' for Inactive)
REMARK    1  A    between atoms: N_2  and  C_3 
REMARK    2  A    between atoms: N_13  and  C_14 
REMARK    3  A    between atoms: C_14  and  C_15 
REMARK    4  A    between atoms: C_15  and  O_16 
REMARK    5  A    between atoms: C_15  and  C_17 
REMARK    6  A    between atoms: C_17  and  O_18 
REMARK    7  A    between atoms: O_18  and  C_19 
ROOT
HETATM    1  C   UNL     1       2.782  -3.526  -2.667  1.00  0.00     0.112 A 
HETATM    2  N   UNL     1       4.008  -4.027  -2.931  1.00  0.00    -0.341 N 
ATOM      3  HN  UNL     1       4.378  -4.008  -3.881  1.00  0.00     0.167 HD
HETATM    4  C   UNL     1       4.740  -4.554  -1.925  1.00  0.00     0.183 A 
HETATM    5  N   UNL     1       4.415  -4.639  -0.635  1.00  0.00    -0.337 N 
ATOM      6  HN  UNL     1       5.014  -5.065   0.072  1.00  0.00     0.168 HD
HETATM    7  C   UNL     1       3.215  -4.104  -0.368  1.00  0.00     0.137 A 
HETATM    8  N   UNL     1       2.657  -4.039   0.878  1.00  0.00    -0.336 N 
ATOM      9  HN  UNL     1       3.047  -4.390   1.753  1.00  0.00     0.168 HD
HETATM   10  C   UNL     1       1.513  -3.428   0.702  1.00  0.00     0.185 A 
HETATM   11  N   UNL     1       1.311  -3.084  -0.612  1.00  0.00    -0.335 N 
HETATM   12  C   UNL     1       2.386  -3.541  -1.333  1.00  0.00     0.118 A 
ENDROOT
BRANCH  11  13
HETATM   13  C   UNL     1       0.226  -2.230  -1.061  1.00  0.00     0.164 C 
BRANCH  13  14
HETATM   14  C   UNL     1      -1.040  -2.993  -1.462  1.00  0.00     0.160 C 
BRANCH  14  15
HETATM   15  O   UNL     1      -1.513  -3.745  -0.334  1.00  0.00    -0.392 OA
HETATM   16  H   UNL     1      -2.150  -3.210   0.172  1.00  0.00     0.210 HD
ENDBRANCH  14  15
BRANCH  14  17
HETATM   17  C   UNL     1      -2.115  -1.999  -1.940  1.00  0.00     0.209 C 
BRANCH  17  18
HETATM   18  O   UNL     1      -3.264  -2.722  -2.388  1.00  0.00    -0.349 OA
BRANCH  18  19
HETATM   19  C   UNL     1      -4.282  -1.967  -2.903  1.00  0.00     0.069 A 
HETATM   20  C   UNL     1      -5.085  -2.613  -3.848  1.00  0.00     0.038 A 
HETATM   21  C   UNL     1      -6.163  -1.947  -4.439  1.00  0.00     0.026 A 
HETATM   22  C   UNL     1      -6.451  -0.637  -4.067  1.00  0.00     0.034 A 
HETATM   23 CL   UNL     1      -7.775   0.188  -4.791  1.00  0.00    -0.084 Cl
HETATM   24  C   UNL     1      -5.674   0.008  -3.106  1.00  0.00     0.026 A 
HETATM   25  C   UNL     1      -4.589  -0.658  -2.524  1.00  0.00     0.038 A 
ENDBRANCH  18  19
ENDBRANCH  17  18
ENDBRANCH  14  17
ENDBRANCH  13  14
ENDBRANCH  11  13
BRANCH   1  26
HETATM   26  N   UNL     1       1.951  -3.068  -3.694  1.00  0.00    -0.281 NA
HETATM   27  C   UNL     1       2.509  -3.191  -5.036  1.00  0.00     0.114 C 
HETATM   28  H   UNL     1       1.049  -3.525  -3.616  1.00  0.00     0.128 HD
ENDBRANCH   1  26
TORSDOF 7
