REMARK  4 active torsions:
REMARK  status: ('A' for Active; 'I' for Inactive)
REMARK    1  A    between atoms: C_5  and  N_6 
REMARK       I    between atoms: N_6  and  C_7 
REMARK       I    between atoms: C_7  and  N_9 
REMARK    2  A    between atoms: N_9  and  C_10 
REMARK    3  A    between atoms: C_11  and  C_12 
REMARK    4  A    between atoms: C_12  and  O_13 
ROOT
HETATM    1  N   UNL     1       7.909  -3.634   1.775  1.00  0.00    -0.289 N 
HETATM    2  C   UNL     1       7.222  -4.735   1.352  1.00  0.00     0.322 C 
HETATM    3  O   UNL     1       7.388  -5.812   1.916  1.00  0.00    -0.247 OA
HETATM    4  N   UNL     1       6.326  -4.553   0.344  1.00  0.00    -0.337 N 
HETATM    5  H   UNL     1       8.489  -3.762   2.589  1.00  0.00     0.172 HD
HETATM    6  H   UNL     1       6.171  -3.578   0.101  1.00  0.00     0.164 HD
ENDROOT
BRANCH   1   7
HETATM    7  C   UNL     1       7.808  -2.376   1.250  1.00  0.00     0.153 A 
HETATM    8  N   UNL     1       7.200  -2.011   0.148  1.00  0.00    -0.339 N 
HETATM    9  C   UNL     1       7.332  -0.642  -0.023  1.00  0.00     0.020 A 
ATOM     10  HN  UNL     1       6.706  -2.638  -0.486  1.00  0.00     0.168 HD
HETATM   11  C   UNL     1       6.816  -0.028  -1.274  1.00  0.00     0.069 C 
HETATM   12  C   UNL     1       7.931   0.018   1.040  1.00  0.00     0.004 A 
HETATM   13  S   UNL     1       8.516  -1.134   2.173  1.00  0.00    -0.057 SA
HETATM   14  C   UNL     1       8.109   1.480   1.253  1.00  0.00     0.058 C 
ENDBRANCH   1   7
BRANCH   4  15
HETATM   15  C   UNL     1       5.294  -5.503  -0.019  1.00  0.00     0.096 C 
HETATM   16  C   UNL     1       5.772  -6.804  -0.726  1.00  0.00     0.036 C 
HETATM   17  C   UNL     1       4.911  -6.812  -2.023  1.00  0.00    -0.006 C 
HETATM   18  C   UNL     1       5.470  -5.765  -3.000  1.00  0.00     0.005 C 
HETATM   19  C   UNL     1       3.612  -6.137  -1.577  1.00  0.00     0.012 C 
HETATM   20  C   UNL     1       5.107  -4.440  -2.322  1.00  0.00     0.007 C 
HETATM   21  C   UNL     1       4.330  -4.892  -1.066  1.00  0.00     0.009 C 
BRANCH  16  22
HETATM   22  C   UNL     1       5.515  -8.051   0.129  1.00  0.00     0.171 C 
BRANCH  22  23
HETATM   23  O   UNL     1       5.934  -9.232  -0.546  1.00  0.00    -0.400 OA
HETATM   24  H   UNL     1       5.282  -9.430  -1.236  1.00  0.00     0.209 HD
ENDBRANCH  22  23
ENDBRANCH  16  22
ENDBRANCH   4  15
TORSDOF 4
