REMARK  2 active torsions:
REMARK  status: ('A' for Active; 'I' for Inactive)
REMARK    1  A    between atoms: C_8  and  N_9 
REMARK       I    between atoms: N_9  and  C_10 
REMARK       I    between atoms: C_10  and  N_12 
REMARK    2  A    between atoms: N_12  and  C_13 
ROOT
HETATM    1  N   UNL     1       2.637  -3.752   1.189  1.00  0.00    -0.294 N 
HETATM    2  C   UNL     1       1.315  -4.057   1.421  1.00  0.00     0.322 C 
HETATM    3  O   UNL     1       0.885  -4.786   2.301  1.00  0.00    -0.247 OA
HETATM    4  N   UNL     1       0.500  -3.425   0.509  1.00  0.00    -0.336 N 
HETATM    5  H   UNL     1       2.897  -3.796   0.217  1.00  0.00     0.172 HD
HETATM    6  H   UNL     1       0.945  -2.926  -0.248  1.00  0.00     0.164 HD
ENDROOT
BRANCH   1   7
HETATM    7  C   UNL     1       3.685  -4.226   1.986  1.00  0.00     0.114 A 
HETATM    8  C   UNL     1       3.746  -4.071   3.376  1.00  0.00    -0.018 A 
HETATM    9  C   UNL     1       2.726  -3.318   4.176  1.00  0.00     0.052 C 
HETATM   10  C   UNL     1       4.857  -4.617   4.033  1.00  0.00     0.012 A 
HETATM   11  C   UNL     1       5.859  -5.247   3.306  1.00  0.00     0.018 A 
HETATM   12  C   UNL     1       5.732  -5.294   1.932  1.00  0.00     0.089 A 
HETATM   13  N   UNL     1       4.684  -4.776   1.258  1.00  0.00    -0.352 N 
ATOM     14  HN  UNL     1       4.646  -4.798   0.239  1.00  0.00     0.166 HD
ENDBRANCH   1   7
BRANCH   4  15
HETATM   15  C   UNL     1      -0.935  -3.669   0.425  1.00  0.00     0.121 C 
HETATM   16  C   UNL     1      -1.697  -2.382   0.069  1.00  0.00     0.057 C 
HETATM   17  C   UNL     1      -2.496  -2.699  -1.195  1.00  0.00     0.275 C 
HETATM   18  N   UNL     1      -2.599  -4.151  -1.174  1.00  0.00     0.095 N 
HETATM   19  C   UNL     1      -2.966  -4.762  -2.448  1.00  0.00     0.273 C 
HETATM   20  C   UNL     1      -1.281  -4.621  -0.725  1.00  0.00     0.245 C 
HETATM   21  C   UNL     1      -3.037  -6.287  -2.285  1.00  0.00     0.030 C 
HETATM   22  C   UNL     1      -1.773  -6.875  -1.643  1.00  0.00     0.004 C 
HETATM   23  C   UNL     1      -1.374  -6.103  -0.381  1.00  0.00     0.038 C 
ENDBRANCH   4  15
TORSDOF 2
