REMARK  5 active torsions:
REMARK  status: ('A' for Active; 'I' for Inactive)
REMARK    1  A    between atoms: C_2  and  N_3 
REMARK    2  A    between atoms: C_5  and  N_6 
REMARK       I    between atoms: N_6  and  C_7 
REMARK       I    between atoms: C_7  and  N_9 
REMARK    3  A    between atoms: N_9  and  C_10 
REMARK    4  A    between atoms: N_13  and  C_14 
REMARK    5  A    between atoms: C_14  and  C_15 
REMARK       I    between atoms: C_15  and  N_17 
ROOT
HETATM    1  N   UNL     1       5.575   2.768  -3.644  1.00  0.00    -0.306 N 
HETATM    2  C   UNL     1       5.094   4.049  -3.797  1.00  0.00     0.321 C 
HETATM    3  O   UNL     1       5.193   4.959  -2.978  1.00  0.00    -0.247 OA
HETATM    4  N   UNL     1       4.444   4.237  -5.001  1.00  0.00    -0.338 N 
HETATM    5  H   UNL     1       5.574   2.148  -4.439  1.00  0.00     0.171 HD
HETATM    6  H   UNL     1       4.090   3.405  -5.447  1.00  0.00     0.164 HD
ENDROOT
BRANCH   4   7
HETATM    7  C   UNL     1       3.695   5.485  -5.191  1.00  0.00     0.089 C 
HETATM    8  C   UNL     1       2.561   5.309  -6.202  1.00  0.00     0.055 C 
HETATM    9  C   UNL     1       3.060   5.388  -7.641  1.00  0.00     0.275 C 
HETATM   10  N   UNL     1       3.793   6.626  -7.949  1.00  0.00     0.097 N 
HETATM   11  C   UNL     1       4.948   6.748  -7.042  1.00  0.00     0.275 C 
HETATM   12  C   UNL     1       4.605   6.670  -5.551  1.00  0.00     0.055 C 
BRANCH  10  13
HETATM   13  C   UNL     1       2.937   7.838  -7.894  1.00  0.00     0.374 C 
BRANCH  13  14
HETATM   14  C   UNL     1       1.801   7.758  -8.915  1.00  0.00     0.243 C 
HETATM   15  O   UNL     1       0.613   7.798  -8.618  1.00  0.00    -0.272 OA
HETATM   16  N   UNL     1       2.207   7.645 -10.217  1.00  0.00    -0.369 N 
HETATM   17  H   UNL     1       3.142   7.298 -10.393  1.00  0.00     0.159 HD
HETATM   18  H   UNL     1       1.488   7.464 -10.903  1.00  0.00     0.159 HD
ENDBRANCH  13  14
ENDBRANCH  10  13
ENDBRANCH   4   7
BRANCH   1  19
HETATM   19  C   UNL     1       6.189   2.318  -2.485  1.00  0.00     0.070 A 
HETATM   20  C   UNL     1       6.329   2.994  -1.297  1.00  0.00     0.141 A 
HETATM   21  N   UNL     1       7.025   2.179  -0.460  1.00  0.00    -0.302 N 
HETATM   22  N   UNL     1       7.319   0.981  -1.002  1.00  0.00    -0.308 N 
HETATM   23  C   UNL     1       6.807   1.070  -2.237  1.00  0.00     0.138 A 
ATOM     24  HN  UNL     1       7.812   0.196  -0.575  1.00  0.00     0.186 HD
BRANCH  21  25
HETATM   25  C   UNL     1       7.450   2.518   0.884  1.00  0.00     0.143 C 
HETATM   26  C   UNL     1       8.802   3.210   0.892  1.00  0.00     0.028 C 
ENDBRANCH  21  25
ENDBRANCH   1  19
TORSDOF 5
