REMARK  4 active torsions:
REMARK  status: ('A' for Active; 'I' for Inactive)
REMARK       I    between atoms: C_2  and  N_4 
REMARK    1  A    between atoms: C_7  and  C_9 
REMARK       I    between atoms: C_9  and  N_11 
REMARK    2  A    between atoms: N_11  and  C_12 
REMARK    3  A    between atoms: C_12  and  C_13 
REMARK    4  A    between atoms: C_13  and  C_14 
ROOT
HETATM    1  C   UNL     1       4.035   3.951  -0.283  1.00  0.00     0.223 C 
HETATM    2  O   UNL     1       3.261   3.600  -1.172  1.00  0.00    -0.273 OA
HETATM    3  N   UNL     1       5.117   4.764  -0.523  1.00  0.00    -0.360 N 
HETATM    4  H   UNL     1       5.747   4.997   0.237  1.00  0.00     0.162 HD
ENDROOT
BRANCH   3   5
HETATM    5  C   UNL     1       5.454   5.237  -1.850  1.00  0.00     0.128 C 
BRANCH   5   6
HETATM    6  C   UNL     1       4.692   6.509  -2.235  1.00  0.00     0.068 C 
BRANCH   6   7
HETATM    7  C   UNL     1       5.086   6.956  -3.608  1.00  0.00     0.008 A 
HETATM    8  S   UNL     1       6.484   7.922  -3.844  1.00  0.00    -0.080 SA
HETATM    9  C   UNL     1       6.263   7.815  -5.540  1.00  0.00     0.047 A 
HETATM   10  C   UNL     1       7.262   8.403  -6.472  1.00  0.00     0.076 C 
HETATM   11  N   UNL     1       5.185   7.171  -5.928  1.00  0.00    -0.357 N 
HETATM   12  C   UNL     1       4.499   6.675  -4.830  1.00  0.00     0.019 A 
ATOM     13  HN  UNL     1       4.894   7.053  -6.899  1.00  0.00     0.166 HD
HETATM   14  C   UNL     1       3.263   5.882  -5.069  1.00  0.00     0.069 C 
ENDBRANCH   6   7
ENDBRANCH   5   6
ENDBRANCH   3   5
BRANCH   1  15
HETATM   15  C   UNL     1       3.829   3.519   1.163  1.00  0.00     0.097 C 
HETATM   16  C   UNL     1       3.549   4.703   2.091  1.00  0.00     0.035 C 
HETATM   17  C   UNL     1       4.907   5.087   2.674  1.00  0.00     0.126 C 
HETATM   18  N   UNL     1       5.807   4.003   2.316  1.00  0.00    -0.352 N 
HETATM   19  C   UNL     1       7.163   4.107   2.532  1.00  0.00     0.215 C 
HETATM   20  C   UNL     1       5.077   2.877   1.752  1.00  0.00     0.139 C 
HETATM   21  C   UNL     1       8.006   2.903   2.204  1.00  0.00     0.117 C 
HETATM   22  O   UNL     1       7.674   5.139   2.963  1.00  0.00    -0.274 OA
ENDBRANCH   1  15
TORSDOF 4
