REMARK  2 active torsions:
REMARK  status: ('A' for Active; 'I' for Inactive)
REMARK    1  A    between atoms: N_1  and  C_2 
REMARK    2  A    between atoms: C_5  and  N_9 
ROOT
HETATM    1  C   UNL     1       2.463   0.062  -0.119  1.00  0.00     0.021 A 
HETATM    2  C   UNL     1       3.202   1.167   0.272  1.00  0.00     0.028 A 
HETATM    3  C   UNL     1       4.593   1.163   0.139  1.00  0.00     0.050 A 
HETATM    4  C   UNL     1       5.263   0.039  -0.352  1.00  0.00     0.103 A 
HETATM    5  N   UNL     1       4.555  -1.060  -0.685  1.00  0.00    -0.351 N 
ATOM      6  HN  UNL     1       5.025  -1.893  -1.041  1.00  0.00     0.166 HD
HETATM    7  C   UNL     1       3.203  -1.037  -0.537  1.00  0.00     0.113 A 
ENDROOT
BRANCH   4   8
HETATM    8  N   UNL     1       6.641  -0.004  -0.419  1.00  0.00    -0.363 N 
HETATM    9  C   UNL     1       7.451   1.170  -0.766  1.00  0.00     0.150 C 
HETATM   10  C   UNL     1       8.068   1.015  -2.168  1.00  0.00     0.187 C 
HETATM   11  O   UNL     1       8.800  -0.214  -2.295  1.00  0.00    -0.388 OA
HETATM   12  C   UNL     1       7.921  -1.332  -2.074  1.00  0.00     0.187 C 
HETATM   13  C   UNL     1       7.308  -1.292  -0.668  1.00  0.00     0.150 C 
ENDBRANCH   4   8
BRANCH   1  14
HETATM   14  N   UNL     1       1.093  -0.012   0.148  1.00  0.00    -0.302 NA
HETATM   15  H   UNL     1       0.625   0.889   0.157  1.00  0.00     0.124 HD
HETATM   16  H   UNL     1       0.595  -0.697  -0.414  1.00  0.00     0.124 HD
ENDBRANCH   1  14
TORSDOF 2
