REMARK  7 active torsions:
REMARK  status: ('A' for Active; 'I' for Inactive)
REMARK    1  A    between atoms: O_2  and  C_3 
REMARK    2  A    between atoms: C_3  and  C_4 
REMARK    3  A    between atoms: C_4  and  N_5 
REMARK    4  A    between atoms: C_8  and  C_9 
REMARK    5  A    between atoms: C_9  and  N_10 
REMARK       I    between atoms: N_10  and  C_11 
REMARK    6  A    between atoms: C_11  and  C_13 
REMARK    7  A    between atoms: C_13  and  N_15 
ROOT
HETATM    1  N   UNL     1       3.235   4.472  -5.319  1.00  0.00    -0.359 N 
HETATM    2  C   UNL     1       3.626   5.002  -6.538  1.00  0.00     0.240 C 
HETATM    3  O   UNL     1       3.940   4.288  -7.487  1.00  0.00    -0.271 OA
HETATM    4  H   UNL     1       2.784   5.064  -4.631  1.00  0.00     0.162 HD
ENDROOT
BRANCH   1   5
HETATM    5  C   UNL     1       3.202   3.034  -5.161  1.00  0.00     0.127 C 
BRANCH   5   6
HETATM    6  C   UNL     1       2.754   2.560  -3.771  1.00  0.00     0.007 C 
HETATM    7  C   UNL     1       3.673   3.040  -2.635  1.00  0.00     0.036 C 
HETATM    8  C   UNL     1       5.008   2.287  -2.584  1.00  0.00     0.273 C 
HETATM    9  N   UNL     1       4.866   0.824  -2.567  1.00  0.00     0.090 N 
HETATM   10  C   UNL     1       4.055   0.373  -3.703  1.00  0.00     0.273 C 
HETATM   11  C   UNL     1       2.669   1.023  -3.759  1.00  0.00     0.036 C 
BRANCH   9  12
HETATM   12  C   UNL     1       4.419   0.318  -1.253  1.00  0.00     0.298 C 
BRANCH  12  13
HETATM   13  C   UNL     1       4.308  -1.216  -1.200  1.00  0.00     0.197 C 
BRANCH  13  14
HETATM   14  O   UNL     1       3.992  -1.669   0.118  1.00  0.00    -0.394 OA
HETATM   15  C   UNL     1       3.819  -3.085   0.116  1.00  0.00     0.201 C 
ENDBRANCH  13  14
ENDBRANCH  12  13
ENDBRANCH   9  12
ENDBRANCH   5   6
ENDBRANCH   1   5
BRANCH   2  16
HETATM   16  C   UNL     1       3.631   6.524  -6.617  1.00  0.00     0.177 C 
HETATM   17  C   UNL     1       4.658   6.989  -7.645  1.00  0.00     0.043 C 
BRANCH  16  18
HETATM   18  N   UNL     1       2.312   7.072  -6.914  1.00  0.00    -0.338 N 
HETATM   19  C   UNL     1       1.871   8.312  -6.526  1.00  0.00     0.109 A 
HETATM   20  C   UNL     1       0.603   8.418  -7.046  1.00  0.00     0.106 A 
HETATM   21  N   UNL     1       0.264   7.282  -7.731  1.00  0.00    -0.361 N 
HETATM   22  C   UNL     1       1.316   6.498  -7.652  1.00  0.00     0.183 A 
ATOM     23  HN  UNL     1      -0.619   7.086  -8.203  1.00  0.00     0.166 HD
ENDBRANCH  16  18
ENDBRANCH   2  16
TORSDOF 7
