REMARK  5 active torsions:
REMARK  status: ('A' for Active; 'I' for Inactive)
REMARK    1  A    between atoms: C_2  and  N_4 
REMARK    2  A    between atoms: C_7  and  N_10 
REMARK    3  A    between atoms: N_10  and  C_11 
REMARK    4  A    between atoms: C_11  and  C_12 
REMARK    5  A    between atoms: C_12  and  C_13 
ROOT
HETATM    1  N   UNL     1       1.407   3.204  -3.209  1.00  0.00     0.088 N 
HETATM    2  H   UNL     1       2.293   2.785  -3.487  1.00  0.00     0.316 HD
ENDROOT
BRANCH   1   3
HETATM    3  C   UNL     1       0.913   2.553  -1.978  1.00  0.00     0.223 C 
HETATM    4  C   UNL     1       1.927   2.794  -0.850  1.00  0.00     0.066 C 
HETATM    5  C   UNL     1       3.173   1.918  -1.001  1.00  0.00     0.275 C 
HETATM    6  N   UNL     1       2.872   0.473  -1.074  1.00  0.00     0.092 N 
HETATM    7  C   UNL     1       1.949   0.238  -2.201  1.00  0.00     0.275 C 
HETATM    8  C   UNL     1       0.652   1.044  -2.112  1.00  0.00     0.066 C 
BRANCH   6   9
HETATM    9  C   UNL     1       2.433  -0.104   0.221  1.00  0.00     0.215 C 
HETATM   10  C   UNL     1       2.073  -1.596   0.129  1.00  0.00     0.042 C 
HETATM   11  C   UNL     1       3.540   0.027   1.284  1.00  0.00     0.042 C 
ENDBRANCH   6   9
ENDBRANCH   1   3
BRANCH   1  12
HETATM   12  C   UNL     1       0.488   3.136  -4.352  1.00  0.00     0.276 C 
BRANCH  12  13
HETATM   13  C   UNL     1      -0.873   3.791  -4.096  1.00  0.00     0.087 C 
BRANCH  13  14
HETATM   14  C   UNL     1      -1.789   3.609  -5.274  1.00  0.00     0.010 A 
HETATM   15  C   UNL     1      -1.812   4.542  -6.305  1.00  0.00     0.025 A 
HETATM   16  C   UNL     1      -2.679   4.329  -7.373  1.00  0.00     0.003 A 
HETATM   17  C   UNL     1      -3.488   3.200  -7.382  1.00  0.00     0.017 A 
HETATM   18  C   UNL     1      -3.391   2.317  -6.321  1.00  0.00     0.088 A 
HETATM   19  N   UNL     1      -2.558   2.494  -5.276  1.00  0.00    -0.369 N 
ATOM     20  HN  UNL     1      -2.509   1.815  -4.517  1.00  0.00     0.165 HD
ENDBRANCH  13  14
ENDBRANCH  12  13
ENDBRANCH   1  12
TORSDOF 5
