REMARK  8 active torsions:
REMARK  status: ('A' for Active; 'I' for Inactive)
REMARK    1  A    between atoms: O_2  and  C_3 
REMARK    2  A    between atoms: C_8  and  C_9 
REMARK    3  A    between atoms: C_9  and  O_10 
REMARK    4  A    between atoms: O_10  and  C_11 
REMARK    5  A    between atoms: C_11  and  C_12 
REMARK    6  A    between atoms: C_12  and  O_13 
REMARK    7  A    between atoms: C_12  and  C_14 
REMARK    8  A    between atoms: C_14  and  N_15 
ROOT
HETATM    1  C   UNL     1       0.250  -1.358   2.851  1.00  0.00     0.160 C 
ENDROOT
BRANCH   1   2
HETATM    2  C   UNL     1       0.861  -2.593   2.146  1.00  0.00     0.201 C 
BRANCH   2   3
HETATM    3  O   UNL     1       1.979  -2.144   1.373  1.00  0.00    -0.384 OA
BRANCH   3   4
HETATM    4  C   UNL     1       2.621  -3.153   0.583  1.00  0.00     0.209 C 
BRANCH   4   5
HETATM    5  C   UNL     1       3.660  -2.500  -0.314  1.00  0.00    -0.001 A 
HETATM    6  C   UNL     1       4.846  -3.150  -0.709  1.00  0.00     0.076 A 
HETATM    7  C   UNL     1       5.725  -2.514  -1.602  1.00  0.00     0.037 A 
HETATM    8  C   UNL     1       5.467  -1.226  -2.069  1.00  0.00     0.003 A 
HETATM    9  C   UNL     1       4.313  -0.568  -1.668  1.00  0.00     0.001 A 
HETATM   10  C   UNL     1       3.412  -1.207  -0.816  1.00  0.00     0.012 A 
BRANCH   6  11
HETATM   11  O   UNL     1       5.082  -4.411  -0.216  1.00  0.00    -0.355 OA
HETATM   12  C   UNL     1       6.463  -4.763  -0.106  1.00  0.00     0.210 C 
ENDBRANCH   6  11
ENDBRANCH   4   5
ENDBRANCH   3   4
ENDBRANCH   2   3
ENDBRANCH   1   2
BRANCH   1  13
HETATM   13  O   UNL     1      -0.289  -0.461   1.868  1.00  0.00    -0.392 OA
HETATM   14  H   UNL     1      -1.102  -0.838   1.496  1.00  0.00     0.210 HD
ENDBRANCH   1  13
BRANCH   1  15
HETATM   15  C   UNL     1      -0.839  -1.722   3.875  1.00  0.00     0.164 C 
BRANCH  15  16
HETATM   16  N   UNL     1      -1.336  -0.568   4.614  1.00  0.00    -0.339 N 
HETATM   17  C   UNL     1      -0.564   0.232   5.415  1.00  0.00     0.184 A 
HETATM   18  N   UNL     1      -1.257   1.204   5.960  1.00  0.00    -0.350 N 
HETATM   19  C   UNL     1      -2.538   1.030   5.502  1.00  0.00     0.060 A 
ATOM     20  HN  UNL     1      -0.917   1.932   6.588  1.00  0.00     0.166 HD
HETATM   21  C   UNL     1      -3.683   1.797   5.771  1.00  0.00     0.032 A 
HETATM   22  C   UNL     1      -2.628  -0.089   4.668  1.00  0.00     0.062 A 
HETATM   23  C   UNL     1      -4.904   1.415   5.206  1.00  0.00     0.002 A 
HETATM   24  C   UNL     1      -4.981   0.287   4.388  1.00  0.00     0.002 A 
HETATM   25  C   UNL     1      -3.847  -0.488   4.101  1.00  0.00     0.032 A 
ENDBRANCH  15  16
ENDBRANCH   1  15
TORSDOF 8
