REMARK  7 active torsions:
REMARK  status: ('A' for Active; 'I' for Inactive)
REMARK    1  A    between atoms: O_2  and  C_3 
REMARK    2  A    between atoms: C_3  and  C_4 
REMARK    3  A    between atoms: C_4  and  N_5 
REMARK    4  A    between atoms: C_7  and  N_8 
REMARK       I    between atoms: N_8  and  C_9 
REMARK    5  A    between atoms: C_9  and  C_11 
REMARK    6  A    between atoms: C_11  and  C_12 
REMARK    7  A    between atoms: C_12  and  C_13 
ROOT
HETATM    1  N   UNL     1       4.997   3.879   4.392  1.00  0.00    -0.326 N 
HETATM    2  C   UNL     1       4.463   4.890   3.607  1.00  0.00     0.222 C 
HETATM    3  O   UNL     1       3.815   4.729   2.574  1.00  0.00    -0.273 OA
HETATM    4  H   UNL     1       5.455   4.148   5.248  1.00  0.00     0.169 HD
ENDROOT
BRANCH   1   5
HETATM    5  C   UNL     1       5.022   2.527   4.138  1.00  0.00     0.050 A 
HETATM    6  C   UNL     1       4.387   1.930   3.119  1.00  0.00     0.123 A 
HETATM    7  N   UNL     1       4.462   0.566   2.899  1.00  0.00    -0.320 N 
HETATM    8  C   UNL     1       5.218  -0.276   3.703  1.00  0.00     0.247 A 
HETATM    9  C   UNL     1       5.912   0.380   4.848  1.00  0.00     0.077 A 
HETATM   10  O   UNL     1       5.349  -1.484   3.535  1.00  0.00    -0.268 OA
HETATM   11  C   UNL     1       5.806   1.703   5.040  1.00  0.00     0.036 A 
BRANCH   7  12
HETATM   12  C   UNL     1       3.701   0.007   1.779  1.00  0.00     0.158 C 
BRANCH  12  13
HETATM   13  C   UNL     1       2.576  -0.937   2.216  1.00  0.00     0.187 C 
BRANCH  13  14
HETATM   14  O   UNL     1       1.647  -0.241   3.053  1.00  0.00    -0.394 OA
HETATM   15  C   UNL     1       0.636  -1.116   3.535  1.00  0.00     0.201 C 
ENDBRANCH  13  14
ENDBRANCH  12  13
ENDBRANCH   7  12
ENDBRANCH   1   5
BRANCH   2  16
HETATM   16  C   UNL     1       4.694   6.301   4.136  1.00  0.00     0.105 C 
BRANCH  16  17
HETATM   17  C   UNL     1       6.082   6.479   4.742  1.00  0.00     0.041 C 
BRANCH  17  18
HETATM   18  C   UNL     1       6.389   7.894   5.242  1.00  0.00     0.121 C 
HETATM   19  C   UNL     1       7.774   7.935   5.902  1.00  0.00     0.032 C 
HETATM   20  C   UNL     1       7.781   7.208   7.246  1.00  0.00     0.004 C 
HETATM   21  C   UNL     1       6.654   7.726   8.129  1.00  0.00     0.026 C 
HETATM   22  C   UNL     1       5.318   7.714   7.399  1.00  0.00     0.168 C 
HETATM   23  O   UNL     1       5.388   8.381   6.140  1.00  0.00    -0.386 OA
ENDBRANCH  17  18
ENDBRANCH  16  17
ENDBRANCH   2  16
TORSDOF 7
