REMARK  6 active torsions:
REMARK  status: ('A' for Active; 'I' for Inactive)
REMARK    1  A    between atoms: C_2  and  N_3 
REMARK    2  A    between atoms: N_3  and  C_4 
REMARK    3  A    between atoms: N_3  and  C_6 
REMARK    4  A    between atoms: C_9  and  N_10 
REMARK       I    between atoms: N_10  and  C_11 
REMARK       I    between atoms: C_11  and  N_13 
REMARK    5  A    between atoms: N_13  and  C_14 
REMARK    6  A    between atoms: C_17  and  O_18 
ROOT
HETATM    1  N   UNL     1       8.336   0.690  -2.963  1.00  0.00    -0.308 N 
HETATM    2  C   UNL     1       9.122  -0.403  -3.264  1.00  0.00     0.321 C 
HETATM    3  O   UNL     1       8.768  -1.577  -3.213  1.00  0.00    -0.247 OA
HETATM    4  N   UNL     1      10.380  -0.038  -3.684  1.00  0.00    -0.338 N 
HETATM    5  H   UNL     1       8.605   1.561  -3.397  1.00  0.00     0.170 HD
HETATM    6  H   UNL     1      10.692   0.903  -3.501  1.00  0.00     0.164 HD
ENDROOT
BRANCH   1   7
HETATM    7  C   UNL     1       7.063   0.640  -2.344  1.00  0.00     0.051 A 
HETATM    8  C   UNL     1       6.601  -0.465  -1.642  1.00  0.00     0.034 A 
HETATM    9  C   UNL     1       5.368  -0.411  -0.992  1.00  0.00     0.044 A 
HETATM   10  C   UNL     1       4.603   0.753  -1.042  1.00  0.00     0.082 A 
HETATM   11  N   UNL     1       5.017   1.830  -1.744  1.00  0.00    -0.354 N 
HETATM   12  C   UNL     1       6.224   1.751  -2.368  1.00  0.00     0.119 A 
ATOM     13  HN  UNL     1       4.445   2.673  -1.804  1.00  0.00     0.166 HD
BRANCH  10  14
HETATM   14  N   UNL     1       3.423   0.803  -0.239  1.00  0.00    -0.270 NA
BRANCH  14  15
HETATM   15  C   UNL     1       2.421   1.674  -0.882  1.00  0.00     0.092 C 
HETATM   16  C   UNL     1       1.075   1.646  -0.172  1.00  0.00     0.021 C 
ENDBRANCH  14  15
BRANCH  14  17
HETATM   17  C   UNL     1       3.837   1.163   1.134  1.00  0.00     0.092 C 
HETATM   18  C   UNL     1       3.022   0.405   2.174  1.00  0.00     0.021 C 
ENDBRANCH  14  17
ENDBRANCH  10  14
ENDBRANCH   1   7
BRANCH   4  19
HETATM   19  C   UNL     1      11.320  -1.018  -4.227  1.00  0.00     0.086 C 
HETATM   20  C   UNL     1      11.912  -1.980  -3.179  1.00  0.00     0.028 C 
HETATM   21  C   UNL     1      13.048  -1.398  -2.334  1.00  0.00     0.034 C 
HETATM   22  C   UNL     1      14.095  -0.636  -3.148  1.00  0.00     0.118 C 
HETATM   23  C   UNL     1      13.458   0.354  -4.118  1.00  0.00     0.034 C 
HETATM   24  C   UNL     1      12.424  -0.316  -5.025  1.00  0.00     0.028 C 
BRANCH  22  25
HETATM   25  O   UNL     1      14.936  -1.540  -3.860  1.00  0.00    -0.396 OA
HETATM   26  H   UNL     1      14.388  -2.155  -4.372  1.00  0.00     0.210 HD
ENDBRANCH  22  25
ENDBRANCH   4  19
TORSDOF 6
