REMARK  5 active torsions:
REMARK  status: ('A' for Active; 'I' for Inactive)
REMARK    1  A    between atoms: C_2  and  N_3 
REMARK    2  A    between atoms: C_8  and  N_9 
REMARK       I    between atoms: N_9  and  C_10 
REMARK       I    between atoms: C_10  and  N_12 
REMARK    3  A    between atoms: N_12  and  C_13 
REMARK    4  A    between atoms: C_13  and  C_14 
REMARK    5  A    between atoms: C_14  and  C_15 
ROOT
HETATM    1  N   UNL     1       4.251  -3.383   3.816  1.00  0.00    -0.310 N 
HETATM    2  C   UNL     1       3.925  -4.659   4.223  1.00  0.00     0.298 C 
HETATM    3  O   UNL     1       3.056  -5.345   3.721  1.00  0.00    -0.254 OA
HETATM    4  N   UNL     1       4.679  -5.141   5.303  1.00  0.00    -0.244 NA
HETATM    5  H   UNL     1       4.651  -2.771   4.510  1.00  0.00     0.170 HD
HETATM    6  H   UNL     1       5.642  -4.833   5.303  1.00  0.00     0.132 HD
ENDROOT
BRANCH   1   7
HETATM    7  C   UNL     1       3.662  -2.769   2.694  1.00  0.00     0.083 A 
HETATM    8  C   UNL     1       3.047  -3.319   1.516  1.00  0.00     0.051 A 
HETATM    9  N   UNL     1       2.605  -2.352   0.702  1.00  0.00    -0.301 N 
HETATM   10  C   UNL     1       2.874  -4.715   1.047  1.00  0.00     0.072 C 
HETATM   11  N   UNL     1       2.865  -1.215   1.344  1.00  0.00    -0.295 N 
ATOM     12  HN  UNL     1       2.165  -2.462  -0.211  1.00  0.00     0.187 HD
HETATM   13  C   UNL     1       3.572  -1.394   2.514  1.00  0.00     0.053 A 
HETATM   14  C   UNL     1       4.026  -0.246   3.340  1.00  0.00     0.072 C 
BRANCH  11  15
HETATM   15  C   UNL     1       2.362   0.024   0.772  1.00  0.00     0.144 C 
HETATM   16  C   UNL     1       3.320   0.644  -0.231  1.00  0.00     0.028 C 
ENDBRANCH  11  15
ENDBRANCH   1   7
BRANCH   4  17
HETATM   17  C   UNL     1       4.426  -6.556   5.571  1.00  0.00     0.099 C 
BRANCH  17  18
HETATM   18  C   UNL     1       5.153  -7.284   6.700  1.00  0.00     0.046 C 
BRANCH  18  19
HETATM   19  C   UNL     1       4.538  -7.182   8.108  1.00  0.00     0.122 C 
HETATM   20  C   UNL     1       4.968  -5.983   8.960  1.00  0.00     0.032 C 
HETATM   21  C   UNL     1       6.332  -6.139   9.634  1.00  0.00     0.004 C 
HETATM   22  C   UNL     1       6.539  -7.530  10.223  1.00  0.00     0.026 C 
HETATM   23  C   UNL     1       6.144  -8.595   9.219  1.00  0.00     0.168 C 
HETATM   24  O   UNL     1       4.786  -8.408   8.826  1.00  0.00    -0.386 OA
ENDBRANCH  18  19
ENDBRANCH  17  18
ENDBRANCH   4  17
TORSDOF 5
