REMARK  5 active torsions:
REMARK  status: ('A' for Active; 'I' for Inactive)
REMARK    1  A    between atoms: N_1  and  C_13 
REMARK    2  A    between atoms: N_2  and  C_15 
REMARK    3  A    between atoms: C_9  and  C_16 
REMARK    4  A    between atoms: C_10  and  C_13 
REMARK    5  A    between atoms: C_22  and  O_23 
ROOT
HETATM    1  N   UNL     1      -3.734   1.800   1.341  1.00  0.00    -0.321 N 
ATOM      2  HN  UNL     1      -3.433   1.915   2.309  1.00  0.00     0.169 HD
HETATM    3  C   UNL     1      -4.976   1.432   0.867  1.00  0.00     0.138 A 
HETATM    4  C   UNL     1      -3.034   1.967   0.242  1.00  0.00     0.167 A 
HETATM    5  N   UNL     1      -5.057   1.425  -0.475  1.00  0.00    -0.242 N 
ATOM      6  HN  UNL     1      -5.869   1.214  -1.055  1.00  0.00     0.196 HD
HETATM    7  O   UNL     1      -3.770   1.774  -0.891  1.00  0.00    -0.221 OA
ENDROOT
BRANCH   4   8
HETATM    8  C   UNL     1      -1.593   2.317   0.073  1.00  0.00     0.224 C 
BRANCH   8   9
HETATM    9  N   UNL     1      -0.770   1.112   0.119  1.00  0.00    -0.256 N 
HETATM   10  C   UNL     1      -0.249   0.623  -1.077  1.00  0.00     0.334 C 
HETATM   11  N   UNL     1       0.382  -0.618  -1.006  1.00  0.00    -0.279 N 
HETATM   12  O   UNL     1      -0.335   1.250  -2.133  1.00  0.00    -0.246 OA
HETATM   13  C   UNL     1       0.639  -1.237   0.198  1.00  0.00     0.146 C 
HETATM   14  C   UNL     1       0.252  -0.701   1.353  1.00  0.00     0.200 C 
HETATM   15  C   UNL     1      -0.493   0.573   1.368  1.00  0.00     0.292 C 
HETATM   16  F   UNL     1       0.496  -1.297   2.535  1.00  0.00    -0.199 F 
HETATM   17  O   UNL     1      -0.808   1.093   2.433  1.00  0.00    -0.264 OA
BRANCH  11  18
HETATM   18  C   UNL     1       0.718  -1.262  -2.270  1.00  0.00     0.232 C 
HETATM   19  O   UNL     1       0.593  -2.692  -2.169  1.00  0.00    -0.366 OA
HETATM   20  C   UNL     1       1.514  -3.278  -3.105  1.00  0.00     0.170 C 
HETATM   21  C   UNL     1       2.236  -2.140  -3.799  1.00  0.00     0.031 C 
HETATM   22  C   UNL     1       2.129  -1.024  -2.783  1.00  0.00     0.056 C 
ENDBRANCH  11  18
ENDBRANCH   8   9
ENDBRANCH   4   8
BRANCH   3  23
HETATM   23  C   UNL     1      -6.048   1.006   1.766  1.00  0.00     0.012 A 
HETATM   24  C   UNL     1      -5.861   1.066   3.160  1.00  0.00     0.052 A 
HETATM   25  C   UNL     1      -6.828   0.561   4.034  1.00  0.00     0.069 A 
HETATM   26  C   UNL     1      -8.001   0.012   3.512  1.00  0.00     0.037 A 
HETATM   27  C   UNL     1      -8.216  -0.028   2.135  1.00  0.00     0.004 A 
HETATM   28  C   UNL     1      -7.244   0.470   1.265  1.00  0.00     0.015 A 
BRANCH  25  29
HETATM   29  O   UNL     1      -6.744   0.528   5.399  1.00  0.00    -0.356 OA
HETATM   30  C   UNL     1      -5.553   1.039   5.986  1.00  0.00     0.210 C 
ENDBRANCH  25  29
ENDBRANCH   3  23
TORSDOF 5
