REMARK  7 active torsions:
REMARK  status: ('A' for Active; 'I' for Inactive)
REMARK    1  A    between atoms: N_1  and  C_8 
REMARK    2  A    between atoms: N_2  and  C_7 
REMARK    3  A    between atoms: C_8  and  C_13 
REMARK    4  A    between atoms: C_13  and  C_16 
REMARK    5  A    between atoms: C_13  and  O_17 
REMARK    6  A    between atoms: C_14  and  C_16 
REMARK    7  A    between atoms: C_14  and  C_15 
ROOT
HETATM    1  N   UNL     1      -0.673   0.939  -0.253  1.00  0.00    -0.261 N 
HETATM    2  N   UNL     1       1.373  -0.221   0.056  1.00  0.00    -0.279 N 
HETATM    3  C   UNL     1       0.517   0.797   0.475  1.00  0.00     0.333 A 
HETATM    4  C   UNL     1      -1.057   0.084  -1.282  1.00  0.00     0.291 A 
HETATM    5  C   UNL     1      -0.160  -1.058  -1.532  1.00  0.00     0.200 A 
HETATM    6  C   UNL     1       1.004  -1.144  -0.896  1.00  0.00     0.146 A 
HETATM    7  O   UNL     1       0.809   1.541   1.414  1.00  0.00    -0.246 OA
HETATM    8  O   UNL     1      -2.055   0.242  -1.980  1.00  0.00    -0.264 OA
HETATM    9  F   UNL     1      -0.520  -1.937  -2.487  1.00  0.00    -0.199 F 
ENDROOT
BRANCH   1  10
HETATM   10  C   UNL     1      -1.389   2.209  -0.115  1.00  0.00     0.168 C 
BRANCH  10  11
HETATM   11  C   UNL     1      -2.910   2.163   0.127  1.00  0.00     0.137 C 
BRANCH  11  12
HETATM   12  C   UNL     1      -3.308   1.443   1.421  1.00  0.00     0.038 C 
BRANCH  12  13
HETATM   13  C   UNL     1      -4.839   1.414   1.579  1.00  0.00     0.041 C 
BRANCH  13  14
HETATM   14  C   UNL     1      -5.354   0.902   2.905  1.00  0.00    -0.058 A 
HETATM   15  C   UNL     1      -6.548   1.439   3.415  1.00  0.00     0.007 A 
HETATM   16  C   UNL     1      -7.056   1.019   4.645  1.00  0.00     0.001 A 
HETATM   17  C   UNL     1      -6.387   0.040   5.374  1.00  0.00     0.000 A 
HETATM   18  C   UNL     1      -5.227  -0.535   4.860  1.00  0.00     0.001 A 
HETATM   19  C   UNL     1      -4.717  -0.114   3.628  1.00  0.00     0.007 A 
ENDBRANCH  13  14
ENDBRANCH  12  13
ENDBRANCH  11  12
BRANCH  11  20
HETATM   20  O   UNL     1      -3.387   3.518   0.176  1.00  0.00    -0.394 OA
HETATM   21  H   UNL     1      -3.104   3.913   1.020  1.00  0.00     0.210 HD
ENDBRANCH  11  20
ENDBRANCH  10  11
ENDBRANCH   1  10
BRANCH   2  22
HETATM   22  C   UNL     1       2.715  -0.250   0.628  1.00  0.00     0.232 C 
HETATM   23  O   UNL     1       3.671  -0.692  -0.359  1.00  0.00    -0.366 OA
HETATM   24  C   UNL     1       4.610  -1.567   0.284  1.00  0.00     0.170 C 
HETATM   25  C   UNL     1       4.367  -1.453   1.773  1.00  0.00     0.031 C 
HETATM   26  C   UNL     1       2.881  -1.179   1.823  1.00  0.00     0.056 C 
ENDBRANCH   2  22
TORSDOF 7
