REMARK  6 active torsions:
REMARK  status: ('A' for Active; 'I' for Inactive)
REMARK    1  A    between atoms: C_2  and  C_4 
REMARK    2  A    between atoms: C_4  and  N_5 
REMARK    3  A    between atoms: C_9  and  C_10 
REMARK    4  A    between atoms: C_10  and  N_11 
REMARK       I    between atoms: N_11  and  C_12 
REMARK    5  A    between atoms: C_12  and  C_14 
REMARK    6  A    between atoms: C_14  and  N_15 
ROOT
HETATM    1  C   UNL     1       5.038  -3.768  -0.943  1.00  0.00     0.156 C 
ENDROOT
BRANCH   1   2
HETATM    2  C   UNL     1       4.600  -2.326  -0.634  1.00  0.00     0.167 C 
HETATM    3  O   UNL     1       5.387  -1.431  -1.446  1.00  0.00    -0.381 OA
HETATM    4  C   UNL     1       5.046  -0.061  -1.190  1.00  0.00     0.198 C 
HETATM    5  C   UNL     1       5.171   0.303   0.302  1.00  0.00     0.298 C 
HETATM    6  N   UNL     1       4.438  -0.604   1.216  1.00  0.00     0.093 N 
HETATM    7  C   UNL     1       4.819  -1.986   0.859  1.00  0.00     0.305 C 
BRANCH   6   8
HETATM    8  C   UNL     1       2.983  -0.362   1.175  1.00  0.00     0.276 C 
BRANCH   8   9
HETATM    9  C   UNL     1       2.137  -1.254   2.119  1.00  0.00     0.006 C 
HETATM   10  C   UNL     1       2.553  -1.113   3.584  1.00  0.00     0.011 C 
HETATM   11  C   UNL     1       0.650  -0.919   1.970  1.00  0.00     0.011 C 
ENDBRANCH   8   9
ENDBRANCH   6   8
ENDBRANCH   1   2
BRANCH   1  12
HETATM   12  N   UNL     1       4.297  -4.767  -0.187  1.00  0.00    -0.357 N 
HETATM   13  C   UNL     1       3.535  -5.755  -0.773  1.00  0.00     0.237 C 
HETATM   14  O   UNL     1       3.421  -5.895  -1.986  1.00  0.00    -0.272 OA
HETATM   15  H   UNL     1       4.275  -4.695   0.825  1.00  0.00     0.162 HD
BRANCH  13  16
HETATM   16  C   UNL     1       2.859  -6.678   0.212  1.00  0.00     0.250 C 
BRANCH  16  17
HETATM   17  N   UNL     1       1.569  -6.152   0.599  1.00  0.00    -0.295 N 
HETATM   18  C   UNL     1       0.366  -6.420   0.011  1.00  0.00     0.112 A 
HETATM   19  C   UNL     1      -0.576  -5.748   0.751  1.00  0.00     0.037 A 
HETATM   20  C   UNL     1       0.157  -5.102   1.763  1.00  0.00     0.108 A 
HETATM   21  N   UNL     1       1.469  -5.343   1.676  1.00  0.00    -0.310 N 
ATOM     22  HN  UNL     1       2.216  -4.998   2.279  1.00  0.00     0.186 HD
ENDBRANCH  16  17
ENDBRANCH  13  16
ENDBRANCH   1  12
TORSDOF 6
