REMARK  5 active torsions:
REMARK  status: ('A' for Active; 'I' for Inactive)
REMARK    1  A    between atoms: C_2  and  C_3 
REMARK       I    between atoms: C_2  and  N_12 
REMARK    2  A    between atoms: C_3  and  N_4 
REMARK    3  A    between atoms: N_12  and  C_13 
REMARK    4  A    between atoms: C_13  and  C_14 
REMARK    5  A    between atoms: C_14  and  C_15 
ROOT
HETATM    1  O   UNL     1       2.645  -0.515  -2.392  1.00  0.00    -0.272 OA
HETATM    2  C   UNL     1       2.123  -1.609  -2.194  1.00  0.00     0.235 C 
HETATM    3  N   UNL     1       2.842  -2.780  -2.043  1.00  0.00    -0.360 N 
HETATM    4  H   UNL     1       2.347  -3.659  -2.155  1.00  0.00     0.162 HD
ENDROOT
BRANCH   3   5
HETATM    5  C   UNL     1       4.291  -2.817  -2.123  1.00  0.00     0.123 C 
BRANCH   5   6
HETATM    6  C   UNL     1       4.951  -2.635  -0.748  1.00  0.00     0.029 C 
BRANCH   6   7
HETATM    7  C   UNL     1       6.504  -2.669  -0.754  1.00  0.00    -0.038 C 
HETATM    8  C   UNL     1       7.088  -1.519  -1.614  1.00  0.00     0.014 C 
HETATM    9  C   UNL     1       8.626  -1.546  -1.597  1.00  0.00    -0.013 C 
HETATM   10  C   UNL     1       9.110  -2.896  -2.152  1.00  0.00     0.009 C 
HETATM   11  C   UNL     1       9.122  -1.379  -0.154  1.00  0.00     0.009 C 
HETATM   12  C   UNL     1       8.579  -4.045  -1.280  1.00  0.00    -0.013 C 
HETATM   13  C   UNL     1       9.079  -3.863   0.161  1.00  0.00     0.009 C 
HETATM   14  C   UNL     1       7.041  -4.020  -1.295  1.00  0.00     0.014 C 
HETATM   15  C   UNL     1       8.581  -2.521   0.721  1.00  0.00    -0.013 C 
HETATM   16  C   UNL     1       7.040  -2.497   0.696  1.00  0.00     0.014 C 
ENDBRANCH   6   7
ENDBRANCH   5   6
ENDBRANCH   3   5
BRANCH   2  17
HETATM   17  C   UNL     1       0.608  -1.782  -2.054  1.00  0.00     0.235 C 
BRANCH  17  18
HETATM   18  N   UNL     1      -0.143  -1.340  -3.227  1.00  0.00    -0.301 N 
HETATM   19  C   UNL     1      -0.608  -0.043  -3.300  1.00  0.00     0.102 C 
HETATM   20  C   UNL     1      -1.418   0.357  -4.283  1.00  0.00     0.092 C 
HETATM   21  C   UNL     1      -1.824  -0.615  -5.311  1.00  0.00     0.250 C 
HETATM   22  O   UNL     1      -2.670  -0.334  -6.152  1.00  0.00    -0.268 OA
HETATM   23  N   UNL     1      -1.211  -1.833  -5.244  1.00  0.00    -0.275 N 
HETATM   24  C   UNL     1      -0.413  -2.272  -4.219  1.00  0.00     0.329 C 
HETATM   25  H   UNL     1      -1.478  -2.516  -5.936  1.00  0.00     0.173 HD
HETATM   26  O   UNL     1      -0.005  -3.433  -4.192  1.00  0.00    -0.246 OA
ENDBRANCH  17  18
ENDBRANCH   2  17
TORSDOF 5
