REMARK  7 active torsions:
REMARK  status: ('A' for Active; 'I' for Inactive)
REMARK    1  A    between atoms: N_1  and  C_3 
REMARK    2  A    between atoms: C_14  and  N_16 
REMARK    3  A    between atoms: C_15  and  C_27 
REMARK       I    between atoms: N_16  and  C_17 
REMARK    4  A    between atoms: C_17  and  C_29 
REMARK    5  A    between atoms: C_22  and  O_26 
REMARK    6  A    between atoms: C_22  and  C_31 
REMARK    7  A    between atoms: O_26  and  C_27 
ROOT
HETATM    1  N   UNL     1       1.359   1.024   0.042  1.00  0.00    -0.297 N 
HETATM    2  C   UNL     1       1.659  -0.018   0.883  1.00  0.00     0.142 A 
HETATM    3  C   UNL     1       0.811  -1.047   0.501  1.00  0.00     0.122 A 
HETATM    4  N   UNL     1      -0.027  -0.642  -0.513  1.00  0.00    -0.346 N 
ATOM      5  HN  UNL     1      -0.742  -1.192  -0.989  1.00  0.00     0.167 HD
HETATM    6  C   UNL     1       0.302   0.613  -0.730  1.00  0.00     0.188 A 
HETATM    7  C   UNL     1       0.927  -2.255   1.201  1.00  0.00     0.140 A 
HETATM    8  N   UNL     1       2.570  -0.047   1.867  1.00  0.00    -0.336 N 
ATOM      9  HN  UNL     1       3.175   0.735   2.116  1.00  0.00     0.168 HD
HETATM   10  N   UNL     1       1.826  -2.328   2.207  1.00  0.00    -0.337 N 
ATOM     11  HN  UNL     1       1.932  -3.186   2.748  1.00  0.00     0.168 HD
HETATM   12  C   UNL     1       2.580  -1.246   2.483  1.00  0.00     0.183 A 
ENDROOT
BRANCH   1  13
HETATM   13  C   UNL     1       2.099   2.276  -0.028  1.00  0.00     0.264 C 
HETATM   14  C   UNL     1       1.320   3.511  -0.501  1.00  0.00     0.226 C 
HETATM   15  C   UNL     1       2.033   3.976  -1.775  1.00  0.00     0.210 C 
HETATM   16  O   UNL     1       1.404   4.576   0.446  1.00  0.00    -0.241 OA
HETATM   17  O   UNL     1       2.856   5.097  -1.438  1.00  0.00    -0.243 OA
HETATM   18  C   UNL     1       2.931   2.816  -2.167  1.00  0.00     0.181 C 
HETATM   19  S   UNL     1       2.667   5.539   0.108  1.00  0.00     0.403 S 
HETATM   20  O   UNL     1       2.224   6.910   0.145  1.00  0.00    -0.169 OA
HETATM   21  O   UNL     1       3.805   5.051   0.855  1.00  0.00    -0.169 OA
HETATM   22  O   UNL     1       3.183   2.083  -0.953  1.00  0.00    -0.353 OA
BRANCH  18  23
HETATM   23  C   UNL     1       2.303   1.887  -3.212  1.00  0.00     0.213 C 
BRANCH  23  24
HETATM   24  O   UNL     1       3.162   0.759  -3.443  1.00  0.00    -0.315 OA
BRANCH  24  25
HETATM   25  C   UNL     1       4.119   0.992  -4.369  1.00  0.00     0.293 C 
HETATM   26  O   UNL     1       4.237   2.020  -5.020  1.00  0.00    -0.259 OA
BRANCH  25  27
HETATM   27  C   UNL     1       5.009  -0.176  -4.533  1.00  0.00     0.039 A 
HETATM   28  C   UNL     1       5.268  -1.084  -3.499  1.00  0.00     0.017 A 
HETATM   29  C   UNL     1       6.190  -2.113  -3.705  1.00  0.00     0.001 A 
HETATM   30  C   UNL     1       6.840  -2.239  -4.935  1.00  0.00     0.000 A 
HETATM   31  C   UNL     1       6.568  -1.344  -5.969  1.00  0.00     0.001 A 
HETATM   32  C   UNL     1       5.656  -0.312  -5.766  1.00  0.00     0.017 A 
ENDBRANCH  25  27
ENDBRANCH  24  25
ENDBRANCH  23  24
ENDBRANCH  18  23
ENDBRANCH   1  13
BRANCH   7  33
HETATM   33  N   UNL     1       0.083  -3.321   0.851  1.00  0.00    -0.307 N 
HETATM   34  C   UNL     1       0.084  -4.549   1.470  1.00  0.00     0.257 C 
HETATM   35  O   UNL     1       0.852  -4.917   2.355  1.00  0.00    -0.267 OA
HETATM   36  H   UNL     1      -0.522  -3.145   0.061  1.00  0.00     0.170 HD
BRANCH  34  37
HETATM   37  C   UNL     1      -0.940  -5.526   0.999  1.00  0.00     0.032 A 
HETATM   38  C   UNL     1      -0.634  -6.891   1.096  1.00  0.00     0.017 A 
HETATM   39  C   UNL     1      -1.574  -7.856   0.731  1.00  0.00     0.001 A 
HETATM   40  C   UNL     1      -2.829  -7.462   0.274  1.00  0.00     0.000 A 
HETATM   41  C   UNL     1      -3.144  -6.105   0.177  1.00  0.00     0.001 A 
HETATM   42  C   UNL     1      -2.204  -5.135   0.538  1.00  0.00     0.017 A 
ENDBRANCH  34  37
ENDBRANCH   7  33
TORSDOF 7
