REMARK  5 active torsions:
REMARK  status: ('A' for Active; 'I' for Inactive)
REMARK    1  A    between atoms: C_2  and  S_3 
REMARK    2  A    between atoms: S_3  and  C_4 
REMARK    3  A    between atoms: C_7  and  N_8 
REMARK       I    between atoms: N_8  and  C_9 
REMARK       I    between atoms: C_9  and  N_11 
REMARK    4  A    between atoms: N_11  and  C_12 
REMARK    5  A    between atoms: C_12  and  C_13 
ROOT
HETATM    1  N   UNL     1       9.185   1.111  -0.672  1.00  0.00    -0.308 N 
HETATM    2  C   UNL     1       9.911   0.353   0.221  1.00  0.00     0.320 C 
HETATM    3  O   UNL     1       9.445  -0.266   1.172  1.00  0.00    -0.247 OA
HETATM    4  N   UNL     1      11.264   0.369  -0.023  1.00  0.00    -0.340 N 
HETATM    5  H   UNL     1       9.627   1.333  -1.551  1.00  0.00     0.170 HD
HETATM    6  H   UNL     1      11.601   0.579  -0.951  1.00  0.00     0.164 HD
ENDROOT
BRANCH   1   7
HETATM    7  C   UNL     1       7.803   1.393  -0.537  1.00  0.00     0.051 A 
HETATM    8  C   UNL     1       7.122   1.281   0.673  1.00  0.00     0.034 A 
HETATM    9  C   UNL     1       5.761   1.570   0.743  1.00  0.00     0.039 A 
HETATM   10  C   UNL     1       5.098   1.968  -0.406  1.00  0.00     0.069 A 
HETATM   11  N   UNL     1       5.724   2.108  -1.597  1.00  0.00    -0.358 N 
HETATM   12  C   UNL     1       7.056   1.827  -1.630  1.00  0.00     0.118 A 
ATOM     13  HN  UNL     1       5.222   2.410  -2.432  1.00  0.00     0.166 HD
BRANCH  10  14
HETATM   14  S   UNL     1       3.369   2.381  -0.268  1.00  0.00    -0.113 SA
BRANCH  14  15
HETATM   15  C   UNL     1       2.795   1.988  -1.947  1.00  0.00     0.076 C 
HETATM   16  C   UNL     1       1.294   2.217  -2.027  1.00  0.00     0.016 C 
ENDBRANCH  14  15
ENDBRANCH  10  14
ENDBRANCH   1   7
BRANCH   4  17
HETATM   17  C   UNL     1      12.121  -0.479   0.797  1.00  0.00     0.156 C 
BRANCH  17  18
HETATM   18  C   UNL     1      13.572  -0.016   0.856  1.00  0.00     0.139 C 
HETATM   19  C   UNL     1      13.778   1.390   1.397  1.00  0.00     0.035 C 
HETATM   20  C   UNL     1      14.960   1.923   0.611  1.00  0.00     0.029 C 
HETATM   21  C   UNL     1      15.333   0.805  -0.341  1.00  0.00     0.168 C 
HETATM   22  O   UNL     1      14.166  -0.017  -0.452  1.00  0.00    -0.384 OA
ENDBRANCH  17  18
ENDBRANCH   4  17
TORSDOF 5
