REMARK  5 active torsions:
REMARK  status: ('A' for Active; 'I' for Inactive)
REMARK    1  A    between atoms: C_2  and  C_3 
REMARK    2  A    between atoms: C_2  and  N_10 
REMARK    3  A    between atoms: C_3  and  N_4 
REMARK    4  A    between atoms: N_10  and  C_11 
REMARK    5  A    between atoms: C_11  and  C_13 
REMARK       I    between atoms: C_13  and  N_15 
ROOT
HETATM    1  N   UNL     1       3.159   1.178   0.565  1.00  0.00     0.102 N 
HETATM    2  H   UNL     1       2.779   1.266   1.506  1.00  0.00     0.317 HD
ENDROOT
BRANCH   1   3
HETATM    3  C   UNL     1       2.571   0.049  -0.177  1.00  0.00     0.237 C 
HETATM    4  C   UNL     1       2.967  -1.302   0.438  1.00  0.00     0.044 C 
BRANCH   3   5
HETATM    5  C   UNL     1       1.028   0.114  -0.204  1.00  0.00     0.183 C 
BRANCH   5   6
HETATM    6  N   UNL     1       0.463   1.279  -0.855  1.00  0.00    -0.302 N 
HETATM    7  C   UNL     1       0.127   2.458  -0.251  1.00  0.00     0.111 A 
HETATM    8  C   UNL     1      -0.572   3.183  -1.185  1.00  0.00     0.037 A 
HETATM    9  C   UNL     1      -0.607   2.356  -2.322  1.00  0.00     0.108 A 
HETATM   10  N   UNL     1       0.012   1.189  -2.125  1.00  0.00    -0.310 N 
ATOM     11  HN  UNL     1       0.119   0.413  -2.779  1.00  0.00     0.186 HD
ENDBRANCH   5   6
ENDBRANCH   3   5
ENDBRANCH   1   3
BRANCH   1  12
HETATM   12  C   UNL     1       4.636   1.212   0.637  1.00  0.00     0.308 C 
HETATM   13  C   UNL     1       5.293   1.270  -0.744  1.00  0.00     0.053 C 
BRANCH  12  14
HETATM   14  C   UNL     1       5.111   2.435   1.472  1.00  0.00     0.253 C 
HETATM   15  O   UNL     1       4.396   3.429   1.622  1.00  0.00    -0.271 OA
HETATM   16  N   UNL     1       6.388   2.379   2.021  1.00  0.00    -0.346 N 
HETATM   17  C   UNL     1       6.930   3.550   2.714  1.00  0.00     0.152 C 
HETATM   18  C   UNL     1       7.289   1.219   2.056  1.00  0.00     0.152 C 
HETATM   19  C   UNL     1       8.329   3.869   2.176  1.00  0.00     0.187 C 
HETATM   20  O   UNL     1       9.201   2.731   2.306  1.00  0.00    -0.388 OA
HETATM   21  C   UNL     1       8.689   1.611   1.571  1.00  0.00     0.187 C 
ENDBRANCH  12  14
ENDBRANCH   1  12
TORSDOF 5
