REMARK  3 active torsions:
REMARK  status: ('A' for Active; 'I' for Inactive)
REMARK    1  A    between atoms: C_8  and  N_9 
REMARK    2  A    between atoms: N_9  and  C_10 
REMARK    3  A    between atoms: C_10  and  C_11 
ROOT
HETATM    1  N   UNL     1       2.731  -2.442   0.115  1.00  0.00    -0.382 N 
HETATM    2  H   UNL     1       3.268  -3.125  -0.419  1.00  0.00     0.160 HD
ENDROOT
BRANCH   1   3
HETATM    3  C   UNL     1       3.340  -1.182   0.175  1.00  0.00     0.052 A 
HETATM    4  C   UNL     1       2.726   0.079   0.292  1.00  0.00     0.075 A 
HETATM    5 CL   UNL     1       1.030   0.388   0.227  1.00  0.00    -0.080 Cl
HETATM    6  C   UNL     1       3.537   1.208   0.448  1.00  0.00     0.113 A 
HETATM    7  N   UNL     1       4.887   1.191   0.521  1.00  0.00    -0.373 N 
HETATM    8  C   UNL     1       5.459  -0.023   0.440  1.00  0.00     0.090 A 
ATOM      9  HN  UNL     1       5.436   2.044   0.630  1.00  0.00     0.164 HD
HETATM   10  C   UNL     1       4.742  -1.201   0.279  1.00  0.00     0.048 A 
ENDBRANCH   1   3
BRANCH   1  11
HETATM   11  C   UNL     1       1.303  -2.640  -0.059  1.00  0.00     0.186 C 
BRANCH  11  12
HETATM   12  C   UNL     1       1.000  -4.123  -0.159  1.00  0.00     0.085 C 
HETATM   13  C   UNL     1       0.044  -4.691   0.592  1.00  0.00     0.168 C 
HETATM   14  O   UNL     1      -0.393  -5.980   0.499  1.00  0.00    -0.358 OA
HETATM   15  C   UNL     1       0.360  -6.788  -0.404  1.00  0.00     0.201 C 
HETATM   16  C   UNL     1       1.053  -6.025  -1.531  1.00  0.00     0.202 C 
HETATM   17  O   UNL     1       1.701  -4.814  -1.127  1.00  0.00    -0.350 OA
ENDBRANCH  11  12
ENDBRANCH   1  11
TORSDOF 3
