REMARK  5 active torsions:
REMARK  status: ('A' for Active; 'I' for Inactive)
REMARK    1  A    between atoms: C_2  and  C_3 
REMARK    2  A    between atoms: C_2  and  C_15 
REMARK       I    between atoms: C_3  and  N_5 
REMARK    3  A    between atoms: N_5  and  C_6 
REMARK    4  A    between atoms: C_6  and  C_11 
REMARK    5  A    between atoms: C_11  and  N_12 
ROOT
HETATM    1  C   UNL     1       3.032  -0.804  -1.371  1.00  0.00     0.227 C 
HETATM    2  O   UNL     1       3.828  -1.705  -1.112  1.00  0.00    -0.273 OA
HETATM    3  N   UNL     1       2.592  -0.578  -2.662  1.00  0.00    -0.340 N 
HETATM    4  H   UNL     1       1.966   0.199  -2.836  1.00  0.00     0.164 HD
ENDROOT
BRANCH   1   5
HETATM    5  C   UNL     1       2.473   0.102  -0.264  1.00  0.00     0.111 C 
HETATM    6  C   UNL     1       0.959  -0.072  -0.169  1.00  0.00     0.025 C 
BRANCH   5   7
HETATM    7  C   UNL     1       2.984   1.520  -0.382  1.00  0.00     0.002 A 
HETATM    8  C   UNL     1       4.367   1.890  -0.449  1.00  0.00     0.031 A 
HETATM    9  C   UNL     1       5.579   1.030  -0.404  1.00  0.00     0.070 C 
HETATM   10  N   UNL     1       4.525   3.210  -0.558  1.00  0.00    -0.303 N 
HETATM   11  N   UNL     1       3.285   3.705  -0.498  1.00  0.00    -0.300 N 
ATOM     12  HN  UNL     1       5.398   3.727  -0.664  1.00  0.00     0.186 HD
HETATM   13  C   UNL     1       3.110   5.138  -0.575  1.00  0.00     0.177 C 
HETATM   14  C   UNL     1       2.314   2.743  -0.354  1.00  0.00     0.033 A 
HETATM   15  C   UNL     1       0.879   3.091  -0.169  1.00  0.00     0.070 C 
ENDBRANCH   5   7
ENDBRANCH   1   5
BRANCH   3  16
HETATM   16  C   UNL     1       2.965  -1.480  -3.773  1.00  0.00     0.104 C 
HETATM   17  C   UNL     1       4.489  -1.509  -4.004  1.00  0.00     0.045 C 
HETATM   18  C   UNL     1       4.709  -1.525  -5.518  1.00  0.00     0.004 C 
HETATM   19  C   UNL     1       3.327  -1.588  -6.150  1.00  0.00     0.004 C 
HETATM   20  C   UNL     1       2.409  -0.967  -5.107  1.00  0.00     0.045 C 
BRANCH  16  21
HETATM   21  C   UNL     1       2.423  -2.867  -3.467  1.00  0.00    -0.046 C 
BRANCH  21  22
HETATM   22  N   UNL     1       1.973  -4.017  -3.214  1.00  0.00    -0.367 N 
ATOM     23  HN2 UNL     1       2.313  -3.084  -3.449  1.00  0.00     0.165 HD
ATOM     24  HN1 UNL     1       1.609  -4.948  -3.009  1.00  0.00     0.165 HD
ENDBRANCH  21  22
ENDBRANCH  16  21
ENDBRANCH   3  16
TORSDOF 5
