REMARK  4 active torsions:
REMARK  status: ('A' for Active; 'I' for Inactive)
REMARK    1  A    between atoms: C_6  and  N_8 
REMARK       I    between atoms: N_8  and  C_9 
REMARK       I    between atoms: C_9  and  N_11 
REMARK    2  A    between atoms: N_11  and  C_12 
REMARK    3  A    between atoms: C_12  and  C_13 
REMARK    4  A    between atoms: C_13  and  C_14 
ROOT
HETATM    1  N   UNL     1       3.012  -3.170  -2.325  1.00  0.00    -0.337 N 
HETATM    2  C   UNL     1       2.423  -3.785  -3.403  1.00  0.00     0.316 C 
HETATM    3  O   UNL     1       1.512  -3.297  -4.057  1.00  0.00    -0.247 OA
HETATM    4  N   UNL     1       3.009  -4.996  -3.687  1.00  0.00    -0.343 N 
HETATM    5  H   UNL     1       3.339  -3.795  -1.603  1.00  0.00     0.164 HD
HETATM    6  H   UNL     1       3.992  -5.024  -3.455  1.00  0.00     0.164 HD
ENDROOT
BRANCH   1   7
HETATM    7  C   UNL     1       2.536  -1.851  -1.912  1.00  0.00     0.114 C 
HETATM    8  C   UNL     1       3.620  -1.086  -1.149  1.00  0.00     0.029 C 
HETATM    9  C   UNL     1       3.097   0.282  -0.714  1.00  0.00     0.032 C 
HETATM   10  C   UNL     1       1.789   0.160   0.073  1.00  0.00     0.272 C 
HETATM   11  N   UNL     1       0.740  -0.609  -0.609  1.00  0.00     0.086 N 
HETATM   12  C   UNL     1       0.131   0.141  -1.708  1.00  0.00     0.310 C 
HETATM   13  C   UNL     1       1.243  -1.920  -1.063  1.00  0.00     0.296 C 
ENDBRANCH   1   7
BRANCH   4  14
HETATM   14  C   UNL     1       2.602  -5.667  -4.913  1.00  0.00     0.129 C 
BRANCH  14  15
HETATM   15  C   UNL     1       3.279  -7.023  -5.112  1.00  0.00     0.058 C 
BRANCH  15  16
HETATM   16  C   UNL     1       2.837  -7.692  -6.391  1.00  0.00    -0.054 A 
HETATM   17  C   UNL     1       3.513  -7.460  -7.593  1.00  0.00     0.024 A 
HETATM   18  C   UNL     1       3.057  -8.084  -8.745  1.00  0.00     0.088 A 
HETATM   19  N   UNL     1       1.988  -8.907  -8.782  1.00  0.00    -0.375 N 
HETATM   20  C   UNL     1       1.342  -9.111  -7.615  1.00  0.00     0.088 A 
ATOM     21  HN  UNL     1       1.684  -9.352  -9.648  1.00  0.00     0.164 HD
HETATM   22  C   UNL     1       1.721  -8.533  -6.412  1.00  0.00     0.024 A 
ENDBRANCH  15  16
ENDBRANCH  14  15
ENDBRANCH   4  14
TORSDOF 4
