REMARK  4 active torsions:
REMARK  status: ('A' for Active; 'I' for Inactive)
REMARK    1  A    between atoms: C_9  and  N_10 
REMARK       I    between atoms: N_10  and  C_11 
REMARK       I    between atoms: C_11  and  N_13 
REMARK    2  A    between atoms: N_13  and  C_14 
REMARK    3  A    between atoms: C_14  and  C_15 
REMARK    4  A    between atoms: C_15  and  C_16 
ROOT
HETATM    1  N   UNL     1       2.252  -2.309  -0.169  1.00  0.00    -0.307 N 
HETATM    2  C   UNL     1       0.877  -2.475  -0.142  1.00  0.00     0.320 C 
HETATM    3  O   UNL     1       0.047  -1.571  -0.111  1.00  0.00    -0.247 OA
HETATM    4  N   UNL     1       0.452  -3.794  -0.132  1.00  0.00    -0.343 N 
HETATM    5  H   UNL     1       2.814  -3.137  -0.085  1.00  0.00     0.170 HD
HETATM    6  H   UNL     1       1.011  -4.460  -0.646  1.00  0.00     0.164 HD
ENDROOT
BRANCH   1   7
HETATM    7  C   UNL     1       2.920  -1.079  -0.192  1.00  0.00     0.058 A 
HETATM    8  C   UNL     1       4.393  -1.023  -0.163  1.00  0.00    -0.029 A 
HETATM    9  C   UNL     1       5.242  -2.259  -0.067  1.00  0.00     0.050 C 
HETATM   10  C   UNL     1       5.015   0.173  -0.211  1.00  0.00     0.083 A 
HETATM   11  C   UNL     1       4.274   1.459  -0.265  1.00  0.00     0.247 A 
HETATM   12  O   UNL     1       4.898   2.516  -0.304  1.00  0.00    -0.268 OA
HETATM   13  N   UNL     1       2.897   1.333  -0.251  1.00  0.00    -0.327 N 
HETATM   14  C   UNL     1       2.060   2.522  -0.256  1.00  0.00     0.159 C 
HETATM   15  C   UNL     1       2.269   0.102  -0.241  1.00  0.00     0.123 A 
ENDBRANCH   1   7
BRANCH   4  16
HETATM   16  C   UNL     1      -1.001  -3.963  -0.197  1.00  0.00     0.128 C 
BRANCH  16  17
HETATM   17  C   UNL     1      -1.540  -5.390  -0.136  1.00  0.00     0.053 C 
BRANCH  17  18
HETATM   18  C   UNL     1      -1.193  -6.235  -1.320  1.00  0.00    -0.082 C 
HETATM   19  C   UNL     1      -0.625  -7.446  -1.292  1.00  0.00    -0.024 C 
HETATM   20  C   UNL     1      -0.426  -7.997  -2.663  1.00  0.00     0.027 C 
HETATM   21  C   UNL     1      -1.295  -7.084  -3.526  1.00  0.00     0.008 C 
HETATM   22  C   UNL     1      -1.492  -5.799  -2.723  1.00  0.00     0.034 C 
ENDBRANCH  17  18
ENDBRANCH  16  17
ENDBRANCH   4  16
TORSDOF 4
