REMARK  3 active torsions:
REMARK  status: ('A' for Active; 'I' for Inactive)
REMARK    1  A    between atoms: C_5  and  N_6 
REMARK       I    between atoms: N_6  and  C_7 
REMARK    2  A    between atoms: C_7  and  C_9 
REMARK    3  A    between atoms: C_9  and  C_10 
ROOT
HETATM    1  N   UNL     1       5.548  -1.662   0.919  1.00  0.00    -0.353 N 
HETATM    2  C   UNL     1       6.570  -1.879   1.817  1.00  0.00     0.222 C 
HETATM    3  O   UNL     1       6.570  -1.424   2.957  1.00  0.00    -0.273 OA
HETATM    4  H   UNL     1       5.630  -2.028  -0.021  1.00  0.00     0.163 HD
ENDROOT
BRANCH   1   5
HETATM    5  C   UNL     1       4.396  -0.836   1.258  1.00  0.00     0.121 C 
HETATM    6  C   UNL     1       3.161  -1.236   0.463  1.00  0.00     0.065 C 
HETATM    7  C   UNL     1       2.609   0.053  -0.139  1.00  0.00     0.057 C 
HETATM    8  C   UNL     1       1.111   0.208   0.130  1.00  0.00     0.045 C 
HETATM    9  C   UNL     1       2.842   0.123  -1.652  1.00  0.00     0.045 C 
HETATM   10  O   UNL     1       3.298   1.142   0.493  1.00  0.00    -0.369 OA
HETATM   11  C   UNL     1       4.559   0.684   1.028  1.00  0.00     0.075 C 
HETATM   12  C   UNL     1       4.806   1.434   2.341  1.00  0.00     0.048 C 
HETATM   13  C   UNL     1       5.663   1.080   0.038  1.00  0.00     0.048 C 
ENDBRANCH   1   5
BRANCH   2  14
HETATM   14  C   UNL     1       7.695  -2.757   1.300  1.00  0.00     0.142 C 
BRANCH  14  15
HETATM   15  C   UNL     1       7.473  -4.236   1.476  1.00  0.00    -0.034 A 
HETATM   16  C   UNL     1       8.074  -5.145   0.596  1.00  0.00     0.010 A 
HETATM   17  C   UNL     1       7.912  -6.516   0.793  1.00  0.00     0.018 A 
HETATM   18  C   UNL     1       7.156  -6.938   1.870  1.00  0.00     0.087 A 
HETATM   19  N   UNL     1       6.572  -6.097   2.749  1.00  0.00    -0.375 N 
HETATM   20  C   UNL     1       6.755  -4.770   2.542  1.00  0.00     0.095 A 
ATOM     21  HN  UNL     1       6.019  -6.444   3.533  1.00  0.00     0.164 HD
ENDBRANCH  14  15
ENDBRANCH   2  14
TORSDOF 3
