REMARK  5 active torsions:
REMARK  status: ('A' for Active; 'I' for Inactive)
REMARK    1  A    between atoms: O_2  and  C_3 
REMARK    2  A    between atoms: C_6  and  N_7 
REMARK       I    between atoms: N_7  and  C_8 
REMARK       I    between atoms: C_8  and  N_10 
REMARK    3  A    between atoms: N_10  and  C_11 
REMARK    4  A    between atoms: C_11  and  C_12 
REMARK    5  A    between atoms: C_12  and  C_13 
ROOT
HETATM    1  N   UNL     1       5.472   4.563  -1.676  1.00  0.00    -0.307 N 
HETATM    2  C   UNL     1       6.593   4.464  -2.472  1.00  0.00     0.320 C 
HETATM    3  O   UNL     1       7.298   3.467  -2.581  1.00  0.00    -0.247 OA
HETATM    4  N   UNL     1       6.884   5.631  -3.170  1.00  0.00    -0.343 N 
HETATM    5  H   UNL     1       5.236   5.491  -1.360  1.00  0.00     0.170 HD
HETATM    6  H   UNL     1       6.068   6.147  -3.473  1.00  0.00     0.164 HD
ENDROOT
BRANCH   1   7
HETATM    7  C   UNL     1       4.876   3.451  -1.002  1.00  0.00     0.058 A 
HETATM    8  C   UNL     1       5.074   2.139  -1.453  1.00  0.00     0.036 A 
HETATM    9  C   UNL     1       4.478   1.058  -0.807  1.00  0.00     0.058 A 
HETATM   10  C   UNL     1       3.660   1.318   0.271  1.00  0.00     0.141 A 
HETATM   11  N   UNL     1       3.433   2.558   0.743  1.00  0.00    -0.339 N 
HETATM   12  C   UNL     1       4.045   3.605   0.121  1.00  0.00     0.034 A 
ATOM     13  HN  UNL     1       2.820   2.710   1.544  1.00  0.00     0.168 HD
HETATM   14  C   UNL     1       3.742   4.930   0.753  1.00  0.00     0.070 C 
BRANCH  10  15
HETATM   15  O   UNL     1       3.049   0.229   0.857  1.00  0.00    -0.341 OA
HETATM   16  C   UNL     1       2.181   0.593   1.926  1.00  0.00     0.211 C 
ENDBRANCH  10  15
ENDBRANCH   1   7
BRANCH   4  17
HETATM   17  C   UNL     1       7.971   5.504  -4.129  1.00  0.00     0.125 C 
BRANCH  17  18
HETATM   18  C   UNL     1       8.384   6.773  -4.875  1.00  0.00     0.024 C 
BRANCH  18  19
HETATM   19  C   UNL     1       9.661   6.544  -5.735  1.00  0.00    -0.010 C 
HETATM   20  C   UNL     1      10.087   7.815  -6.488  1.00  0.00     0.035 C 
HETATM   21  C   UNL     1       9.217   8.095  -7.719  1.00  0.00     0.272 C 
HETATM   22  N   UNL     1       9.099   6.965  -8.649  1.00  0.00     0.084 N 
HETATM   23  C   UNL     1      10.309   6.769  -9.446  1.00  0.00     0.309 C 
HETATM   24  C   UNL     1       8.686   5.739  -7.957  1.00  0.00     0.272 C 
HETATM   25  C   UNL     1       9.559   5.388  -6.749  1.00  0.00     0.035 C 
ENDBRANCH  18  19
ENDBRANCH  17  18
ENDBRANCH   4  17
TORSDOF 5
