REMARK  3 active torsions:
REMARK  status: ('A' for Active; 'I' for Inactive)
REMARK    1  A    between atoms: O_2  and  C_3 
REMARK    2  A    between atoms: C_9  and  N_10 
REMARK       I    between atoms: N_10  and  C_11 
REMARK       I    between atoms: C_11  and  N_13 
REMARK    3  A    between atoms: N_13  and  C_14 
ROOT
HETATM    1  C   UNL     1       4.201   1.343   2.642  1.00  0.00     0.169 A 
HETATM    2  N   UNL     1       3.795   2.638   2.661  1.00  0.00    -0.345 N 
ATOM      3  HN  UNL     1       4.065   3.270   3.415  1.00  0.00     0.167 HD
HETATM    4  C   UNL     1       3.019   3.052   1.640  1.00  0.00     0.090 A 
HETATM    5  C   UNL     1       2.623   2.231   0.604  1.00  0.00     0.019 A 
HETATM    6  C   UNL     1       3.026   0.895   0.626  1.00  0.00     0.035 A 
HETATM    7  C   UNL     1       3.829   0.415   1.659  1.00  0.00     0.087 A 
ENDROOT
BRANCH   7   8
HETATM    8  N   UNL     1       4.250  -0.942   1.737  1.00  0.00    -0.305 N 
HETATM    9  C   UNL     1       4.229  -1.829   0.681  1.00  0.00     0.321 C 
HETATM   10  O   UNL     1       3.979  -1.534  -0.484  1.00  0.00    -0.247 OA
HETATM   11  N   UNL     1       4.501  -3.134   1.041  1.00  0.00    -0.338 N 
HETATM   12  H   UNL     1       4.874  -3.335   1.956  1.00  0.00     0.164 HD
HETATM   13  H   UNL     1       4.748  -1.197   2.581  1.00  0.00     0.171 HD
BRANCH  11  14
HETATM   14  C   UNL     1       4.558  -4.150   0.026  1.00  0.00     0.086 A 
HETATM   15  C   UNL     1       3.311  -4.902  -0.362  1.00  0.00     0.027 A 
HETATM   16  C   UNL     1       4.438  -5.616   0.324  1.00  0.00     0.027 A 
ENDBRANCH  11  14
ENDBRANCH   7   8
BRANCH   1  17
HETATM   17  O   UNL     1       5.066   0.923   3.640  1.00  0.00    -0.339 OA
HETATM   18  C   UNL     1       5.795   2.031   4.176  1.00  0.00     0.211 C 
ENDBRANCH   1  17
TORSDOF 3
