REMARK  4 active torsions:
REMARK  status: ('A' for Active; 'I' for Inactive)
REMARK    1  A    between atoms: C_2  and  C_3 
REMARK    2  A    between atoms: C_2  and  N_10 
REMARK    3  A    between atoms: C_3  and  N_4 
REMARK       I    between atoms: N_10  and  C_11 
REMARK       I    between atoms: C_11  and  N_13 
REMARK    4  A    between atoms: N_13  and  C_14 
ROOT
HETATM    1  N   UNL     1       3.262   1.150  -0.835  1.00  0.00    -0.341 N 
HETATM    2  C   UNL     1       4.628   1.199  -0.978  1.00  0.00     0.300 C 
HETATM    3  O   UNL     1       5.394   0.511  -0.313  1.00  0.00    -0.254 OA
HETATM    4  N   UNL     1       5.012   2.102  -1.948  1.00  0.00    -0.196 NA
HETATM    5  H   UNL     1       2.725   1.565  -1.587  1.00  0.00     0.164 HD
HETATM    6  H   UNL     1       4.648   3.023  -1.743  1.00  0.00     0.139 HD
ENDROOT
BRANCH   1   7
HETATM    7  C   UNL     1       2.611   0.176   0.047  1.00  0.00     0.110 C 
HETATM    8  C   UNL     1       1.103   0.404  -0.001  1.00  0.00     0.034 C 
BRANCH   7   9
HETATM    9  C   UNL     1       2.992  -1.289  -0.325  1.00  0.00     0.297 C 
BRANCH   9  10
HETATM   10  N   UNL     1       2.455  -2.397   0.498  1.00  0.00     0.094 N 
HETATM   11  C   UNL     1       2.850  -2.315   1.924  1.00  0.00     0.298 C 
HETATM   12  C   UNL     1       4.344  -2.580   2.197  1.00  0.00     0.198 C 
HETATM   13  O   UNL     1       4.766  -3.840   1.655  1.00  0.00    -0.388 OA
HETATM   14  C   UNL     1       4.479  -3.915   0.254  1.00  0.00     0.198 C 
HETATM   15  C   UNL     1       2.976  -3.694  -0.014  1.00  0.00     0.298 C 
ENDBRANCH   9  10
ENDBRANCH   7   9
ENDBRANCH   1   7
BRANCH   4  16
HETATM   16  C   UNL     1       6.369   2.183  -2.291  1.00  0.00     0.094 C 
HETATM   17  N   UNL     1       6.935   3.380  -2.028  1.00  0.00    -0.356 N 
HETATM   18  C   UNL     1       8.274   3.464  -2.177  1.00  0.00     0.089 C 
ATOM     19  HN  UNL     1       6.378   4.182  -1.731  1.00  0.00     0.166 HD
HETATM   20  C   UNL     1       9.068   2.418  -2.612  1.00  0.00     0.018 C 
HETATM   21  C   UNL     1       8.449   1.229  -2.973  1.00  0.00     0.011 C 
HETATM   22  C   UNL     1       7.062   1.101  -2.848  1.00  0.00    -0.023 C 
HETATM   23  C   UNL     1       6.375  -0.130  -3.363  1.00  0.00     0.052 C 
ENDBRANCH   4  16
TORSDOF 4
