REMARK  4 active torsions:
REMARK  status: ('A' for Active; 'I' for Inactive)
REMARK    1  A    between atoms: O_2  and  C_3 
REMARK    2  A    between atoms: C_9  and  N_10 
REMARK       I    between atoms: N_10  and  C_11 
REMARK       I    between atoms: C_11  and  N_13 
REMARK    3  A    between atoms: N_13  and  C_14 
REMARK    4  A    between atoms: C_18  and  C_19 
REMARK       I    between atoms: C_19  and  N_21 
ROOT
HETATM    1  N   UNL     1       1.571  -2.631  -0.054  1.00  0.00    -0.305 N 
HETATM    2  C   UNL     1       0.912  -1.763   0.791  1.00  0.00     0.321 C 
HETATM    3  O   UNL     1       1.379  -0.733   1.261  1.00  0.00    -0.247 OA
HETATM    4  N   UNL     1      -0.366  -2.163   1.119  1.00  0.00    -0.337 N 
HETATM    5  H   UNL     1       1.242  -3.588  -0.088  1.00  0.00     0.171 HD
HETATM    6  H   UNL     1      -0.895  -2.584   0.359  1.00  0.00     0.164 HD
ENDROOT
BRANCH   1   7
HETATM    7  C   UNL     1       2.891  -2.406  -0.547  1.00  0.00     0.087 A 
HETATM    8  C   UNL     1       3.706  -3.453  -1.009  1.00  0.00     0.169 A 
HETATM    9  N   UNL     1       4.985  -3.283  -1.441  1.00  0.00    -0.345 N 
HETATM   10  C   UNL     1       5.490  -2.035  -1.411  1.00  0.00     0.090 A 
ATOM     11  HN  UNL     1       5.540  -4.071  -1.775  1.00  0.00     0.167 HD
HETATM   12  C   UNL     1       4.771  -0.935  -0.998  1.00  0.00     0.019 A 
HETATM   13  C   UNL     1       3.459  -1.128  -0.582  1.00  0.00     0.035 A 
BRANCH   8  14
HETATM   14  O   UNL     1       3.194  -4.741  -1.012  1.00  0.00    -0.339 OA
HETATM   15  C   UNL     1       4.217  -5.718  -1.237  1.00  0.00     0.211 C 
ENDBRANCH   8  14
ENDBRANCH   1   7
BRANCH   4  16
HETATM   16  C   UNL     1      -1.131  -1.326   2.039  1.00  0.00     0.099 C 
HETATM   17  C   UNL     1      -2.254  -2.064   2.774  1.00  0.00     0.026 C 
HETATM   18  C   UNL     1      -3.485  -1.168   2.689  1.00  0.00     0.003 C 
HETATM   19  C   UNL     1      -2.954   0.223   2.363  1.00  0.00     0.016 C 
HETATM   20  C   UNL     1      -1.748  -0.041   1.457  1.00  0.00     0.100 C 
BRANCH  20  21
HETATM   21  C   UNL     1      -2.200  -0.130   0.010  1.00  0.00     0.221 C 
HETATM   22  O   UNL     1      -2.477  -1.174  -0.569  1.00  0.00    -0.273 OA
HETATM   23  N   UNL     1      -2.345   1.080  -0.612  1.00  0.00    -0.370 N 
HETATM   24  H   UNL     1      -1.900   1.916  -0.249  1.00  0.00     0.159 HD
HETATM   25  H   UNL     1      -2.570   1.068  -1.598  1.00  0.00     0.159 HD
ENDBRANCH  20  21
ENDBRANCH   4  16
TORSDOF 4
