REMARK  7 active torsions:
REMARK  status: ('A' for Active; 'I' for Inactive)
REMARK    1  A    between atoms: C_2  and  C_3 
REMARK       I    between atoms: C_2  and  N_13 
REMARK    2  A    between atoms: C_3  and  N_4 
REMARK    3  A    between atoms: N_4  and  C_5 
REMARK    4  A    between atoms: C_5  and  C_6 
REMARK    5  A    between atoms: C_6  and  N_7 
REMARK    6  A    between atoms: N_13  and  C_14 
REMARK    7  A    between atoms: C_14  and  C_15 
ROOT
HETATM    1  N   UNL     1       1.955  -2.265   0.021  1.00  0.00     0.093 N 
HETATM    2  H   UNL     1       1.318  -2.207  -0.780  1.00  0.00     0.316 HD
ENDROOT
BRANCH   1   3
HETATM    3  C   UNL     1       2.874  -1.109  -0.074  1.00  0.00     0.371 C 
BRANCH   3   4
HETATM    4  C   UNL     1       2.119   0.219  -0.051  1.00  0.00     0.245 C 
HETATM    5  O   UNL     1       2.383   1.122  -0.839  1.00  0.00    -0.272 OA
HETATM    6  N   UNL     1       1.216   0.344   0.982  1.00  0.00    -0.359 N 
HETATM    7  H   UNL     1       0.982  -0.489   1.510  1.00  0.00     0.162 HD
BRANCH   6   8
HETATM    8  C   UNL     1       0.627   1.616   1.317  1.00  0.00     0.127 C 
BRANCH   8   9
HETATM    9  C   UNL     1      -0.782   1.725   0.831  1.00  0.00     0.003 A 
HETATM   10  C   UNL     1      -1.170   1.568  -0.620  1.00  0.00     0.007 A 
HETATM   11  C   UNL     1      -1.171   2.931   0.009  1.00  0.00     0.007 A 
ENDBRANCH   8   9
ENDBRANCH   6   8
ENDBRANCH   3   4
ENDBRANCH   1   3
BRANCH   1  12
HETATM   12  C   UNL     1       2.714  -3.531  -0.105  1.00  0.00     0.291 C 
BRANCH  12  13
HETATM   13  C   UNL     1       3.638  -3.813   1.085  1.00  0.00     0.178 C 
BRANCH  13  14
HETATM   14  N   UNL     1       4.347  -5.073   0.971  1.00  0.00    -0.302 N 
HETATM   15  C   UNL     1       4.332  -6.103   1.867  1.00  0.00     0.111 A 
HETATM   16  C   UNL     1       5.236  -7.027   1.400  1.00  0.00     0.037 A 
HETATM   17  C   UNL     1       5.749  -6.460   0.220  1.00  0.00     0.108 A 
HETATM   18  N   UNL     1       5.213  -5.265  -0.044  1.00  0.00    -0.310 N 
ATOM     19  HN  UNL     1       5.412  -4.644  -0.829  1.00  0.00     0.186 HD
ENDBRANCH  13  14
ENDBRANCH  12  13
ENDBRANCH   1  12
TORSDOF 7
