REMARK  7 active torsions:
REMARK  status: ('A' for Active; 'I' for Inactive)
REMARK    1  A    between atoms: N_2  and  C_10 
REMARK    2  A    between atoms: C_3  and  N_7 
REMARK    3  A    between atoms: C_9  and  C_10 
REMARK    4  A    between atoms: C_9  and  O_21 
REMARK    5  A    between atoms: C_16  and  C_24 
REMARK    6  A    between atoms: C_24  and  C_28 
REMARK    7  A    between atoms: O_26  and  C_28 
ROOT
HETATM    1  C   UNL     1       0.453  -0.792  -0.066  1.00  0.00     0.122 A 
HETATM    2  N   UNL     1       1.615   1.067  -0.149  1.00  0.00    -0.324 N 
HETATM    3  C   UNL     1      -0.752  -1.540  -0.021  1.00  0.00     0.136 A 
HETATM    4  C   UNL     1       0.342   0.578  -0.249  1.00  0.00     0.140 A 
HETATM    5  N   UNL     1       1.791  -1.135   0.073  1.00  0.00    -0.346 N 
ATOM      6  HN  UNL     1       2.181  -2.072   0.173  1.00  0.00     0.167 HD
HETATM    7  C   UNL     1       2.450   0.003   0.049  1.00  0.00     0.185 A 
HETATM    8  N   UNL     1      -1.907  -0.824  -0.198  1.00  0.00    -0.337 N 
ATOM      9  HN  UNL     1      -2.809  -1.300  -0.167  1.00  0.00     0.168 HD
HETATM   10  N   UNL     1      -0.772   1.295  -0.455  1.00  0.00    -0.336 N 
ATOM     11  HN  UNL     1      -0.792   2.301  -0.621  1.00  0.00     0.168 HD
HETATM   12  C   UNL     1      -1.857   0.505  -0.413  1.00  0.00     0.183 A 
ENDROOT
BRANCH   3  13
HETATM   13  N   UNL     1      -0.862  -2.911   0.157  1.00  0.00    -0.356 N 
HETATM   14  C   UNL     1       0.317  -3.801   0.219  1.00  0.00     0.111 C 
HETATM   15  C   UNL     1      -0.149  -5.205  -0.255  1.00  0.00     0.193 C 
HETATM   16  O   UNL     1      -1.207  -5.710   0.577  1.00  0.00    -0.388 OA
HETATM   17  C   UNL     1      -2.359  -4.859   0.465  1.00  0.00     0.187 C 
HETATM   18  C   UNL     1      -2.063  -3.400   0.854  1.00  0.00     0.151 C 
BRANCH  14  19
HETATM   19  C   UNL     1       0.934  -3.852   1.633  1.00  0.00     0.053 C 
BRANCH  19  20
HETATM   20  C   UNL     1       2.223  -4.672   1.646  1.00  0.00     0.169 C 
BRANCH  20  21
HETATM   21  O   UNL     1       2.799  -4.679   2.952  1.00  0.00    -0.396 OA
HETATM   22  C   UNL     1       3.912  -5.568   3.002  1.00  0.00     0.201 C 
ENDBRANCH  20  21
ENDBRANCH  19  20
ENDBRANCH  14  19
ENDBRANCH   3  13
BRANCH   2  23
HETATM   23  C   UNL     1       1.984   2.467  -0.100  1.00  0.00     0.172 C 
BRANCH  23  24
HETATM   24  C   UNL     1       2.254   3.123  -1.463  1.00  0.00     0.102 C 
HETATM   25  C   UNL     1       3.415   2.507  -2.273  1.00  0.00     0.153 C 
HETATM   26  O   UNL     1       4.058   3.589  -2.988  1.00  0.00    -0.383 OA
HETATM   27  C   UNL     1       3.028   1.451  -3.295  1.00  0.00     0.042 C 
HETATM   28  C   UNL     1       3.417   4.815  -2.616  1.00  0.00     0.171 C 
HETATM   29  C   UNL     1       2.770   4.546  -1.276  1.00  0.00     0.068 C 
BRANCH  24  30
HETATM   30  O   UNL     1       1.049   3.239  -2.231  1.00  0.00    -0.385 OA
HETATM   31  H   UNL     1       0.549   2.402  -2.185  1.00  0.00     0.210 HD
ENDBRANCH  24  30
ENDBRANCH  23  24
ENDBRANCH   2  23
TORSDOF 7
