REMARK  7 active torsions:
REMARK  status: ('A' for Active; 'I' for Inactive)
REMARK    1  A    between atoms: N_6  and  C_7 
REMARK    2  A    between atoms: C_7  and  C_8 
REMARK    3  A    between atoms: C_8  and  O_9 
REMARK    4  A    between atoms: C_8  and  C_10 
REMARK    5  A    between atoms: C_10  and  O_11 
REMARK    6  A    between atoms: O_11  and  C_12 
REMARK    7  A    between atoms: C_12  and  C_13 
ROOT
HETATM    1  C   UNL     1       7.400  -1.331   0.042  1.00  0.00     0.160 C 
ENDROOT
BRANCH   1   2
HETATM    2  C   UNL     1       6.734   0.059   0.100  1.00  0.00     0.166 C 
BRANCH   2   3
HETATM    3  N   UNL     1       5.277  -0.003   0.031  1.00  0.00    -0.307 N 
HETATM    4  C   UNL     1       4.536  -0.079   1.178  1.00  0.00     0.186 A 
HETATM    5  N   UNL     1       3.246  -0.106   1.226  1.00  0.00    -0.355 N 
HETATM    6  C   UNL     1       2.570  -0.046   0.034  1.00  0.00     0.017 A 
ATOM      7  HN  UNL     1       2.749  -0.169   2.115  1.00  0.00     0.166 HD
HETATM    8  C   UNL     1       1.067  -0.055   0.172  1.00  0.00     0.069 C 
HETATM    9  C   UNL     1       3.170   0.007  -1.171  1.00  0.00     0.028 A 
HETATM   10  C   UNL     1       4.658   0.009  -1.199  1.00  0.00     0.256 A 
HETATM   11  C   UNL     1       2.439   0.075  -2.476  1.00  0.00     0.056 C 
HETATM   12  O   UNL     1       5.280   0.033  -2.261  1.00  0.00    -0.267 OA
ENDBRANCH   2   3
ENDBRANCH   1   2
BRANCH   1  13
HETATM   13  O   UNL     1       7.081  -2.045  -1.156  1.00  0.00    -0.392 OA
HETATM   14  H   UNL     1       7.019  -1.407  -1.893  1.00  0.00     0.210 HD
ENDBRANCH   1  13
BRANCH   1  15
HETATM   15  C   UNL     1       8.927  -1.198   0.132  1.00  0.00     0.201 C 
BRANCH  15  16
HETATM   16  O   UNL     1       9.272  -0.532   1.340  1.00  0.00    -0.384 OA
BRANCH  16  17
HETATM   17  C   UNL     1      10.680  -0.351   1.472  1.00  0.00     0.206 C 
BRANCH  17  18
HETATM   18  C   UNL     1      10.936   0.340   2.787  1.00  0.00    -0.035 A 
HETATM   19  C   UNL     1      10.537  -0.267   3.987  1.00  0.00     0.009 A 
HETATM   20  C   UNL     1      10.757   0.366   5.210  1.00  0.00     0.001 A 
HETATM   21  C   UNL     1      11.380   1.612   5.245  1.00  0.00     0.000 A 
HETATM   22  C   UNL     1      11.785   2.223   4.059  1.00  0.00     0.001 A 
HETATM   23  C   UNL     1      11.565   1.591   2.834  1.00  0.00     0.009 A 
ENDBRANCH  17  18
ENDBRANCH  16  17
ENDBRANCH  15  16
ENDBRANCH   1  15
TORSDOF 7
