REMARK  4 active torsions:
REMARK  status: ('A' for Active; 'I' for Inactive)
REMARK    1  A    between atoms: C_2  and  C_3 
REMARK    2  A    between atoms: C_3  and  C_4 
REMARK    3  A    between atoms: C_4  and  N_5 
REMARK       I    between atoms: N_5  and  C_6 
REMARK       I    between atoms: C_6  and  N_8 
REMARK    4  A    between atoms: N_8  and  C_9 
ROOT
HETATM    1  N   UNL     1       5.506  -0.147  -2.327  1.00  0.00    -0.342 N 
HETATM    2  C   UNL     1       6.697  -0.849  -2.212  1.00  0.00     0.321 C 
HETATM    3  O   UNL     1       6.926  -1.568  -1.245  1.00  0.00    -0.247 OA
HETATM    4  N   UNL     1       7.582  -0.588  -3.222  1.00  0.00    -0.290 N 
HETATM    5  H   UNL     1       5.142  -0.071  -3.266  1.00  0.00     0.164 HD
HETATM    6  H   UNL     1       7.584   0.364  -3.574  1.00  0.00     0.172 HD
ENDROOT
BRANCH   4   7
HETATM    7  C   UNL     1       8.789  -1.259  -3.299  1.00  0.00     0.178 A 
HETATM    8  N   UNL     1       8.942  -2.478  -2.882  1.00  0.00    -0.346 N 
HETATM    9  C   UNL     1      10.209  -2.992  -2.914  1.00  0.00     0.107 A 
ATOM     10  HN  UNL     1       8.152  -3.029  -2.545  1.00  0.00     0.167 HD
HETATM   11  C   UNL     1      11.285  -2.340  -3.374  1.00  0.00     0.111 A 
HETATM   12  N   UNL     1      11.169  -1.068  -3.892  1.00  0.00    -0.325 N 
HETATM   13  C   UNL     1      12.346  -0.356  -4.346  1.00  0.00     0.159 C 
HETATM   14  C   UNL     1       9.932  -0.433  -3.906  1.00  0.00     0.291 A 
HETATM   15  O   UNL     1       9.689   0.694  -4.322  1.00  0.00    -0.264 OA
ENDBRANCH   4   7
BRANCH   1  16
HETATM   16  C   UNL     1       4.569  -0.407  -1.255  1.00  0.00     0.133 C 
BRANCH  16  17
HETATM   17  C   UNL     1       3.263   0.356  -1.258  1.00  0.00    -0.025 A 
HETATM   18  C   UNL     1       3.173   1.755  -1.834  1.00  0.00     0.012 A 
HETATM   19  C   UNL     1       2.532   0.607  -2.565  1.00  0.00     0.012 A 
BRANCH  17  20
HETATM   20  C   UNL     1       2.390   0.022  -0.050  1.00  0.00     0.006 C 
HETATM   21  C   UNL     1       3.032   0.395   1.281  1.00  0.00     0.006 C 
ENDBRANCH  17  20
ENDBRANCH  16  17
ENDBRANCH   1  16
TORSDOF 4
