REMARK  7 active torsions:
REMARK  status: ('A' for Active; 'I' for Inactive)
REMARK    1  A    between atoms: C_2  and  C_3 
REMARK    2  A    between atoms: C_2  and  N_10 
REMARK    3  A    between atoms: C_3  and  N_4 
REMARK    4  A    between atoms: N_10  and  C_11 
REMARK    5  A    between atoms: C_11  and  C_12 
REMARK       I    between atoms: C_12  and  N_14 
REMARK    6  A    between atoms: N_14  and  C_15 
REMARK    7  A    between atoms: C_15  and  C_16 
ROOT
HETATM    1  C   UNL     1       6.033  -0.274   3.165  1.00  0.00     0.143 C 
HETATM    2  C   UNL     1       7.146  -0.178   2.213  1.00  0.00     0.060 C 
HETATM    3  N   UNL     1       8.038  -0.078   1.476  1.00  0.00    -0.197 NA
ENDROOT
BRANCH   1   4
HETATM    4  C   UNL     1       5.413   1.098   3.419  1.00  0.00     0.136 C 
BRANCH   4   5
HETATM    5  N   UNL     1       4.700   1.618   2.267  1.00  0.00    -0.359 N 
HETATM    6  C   UNL     1       3.341   1.836   2.261  1.00  0.00     0.245 C 
HETATM    7  O   UNL     1       2.613   1.651   3.232  1.00  0.00    -0.272 OA
HETATM    8  H   UNL     1       5.178   1.696   1.371  1.00  0.00     0.162 HD
BRANCH   6   9
HETATM    9  C   UNL     1       2.807   2.350   0.921  1.00  0.00     0.372 C 
BRANCH   9  10
HETATM   10  N   UNL     1       3.054   1.401  -0.184  1.00  0.00     0.098 N 
HETATM   11  H   UNL     1       2.684   1.807  -1.043  1.00  0.00     0.317 HD
BRANCH  10  12
HETATM   12  C   UNL     1       2.460   0.058   0.028  1.00  0.00     0.236 C 
HETATM   13  C   UNL     1       0.928   0.122   0.113  1.00  0.00     0.044 C 
BRANCH  12  14
HETATM   14  C   UNL     1       2.833  -0.915  -1.115  1.00  0.00     0.183 C 
BRANCH  14  15
HETATM   15  N   UNL     1       4.253  -1.162  -1.261  1.00  0.00    -0.302 N 
HETATM   16  C   UNL     1       5.009  -0.900  -2.370  1.00  0.00     0.111 A 
HETATM   17  C   UNL     1       6.270  -1.372  -2.094  1.00  0.00     0.037 A 
HETATM   18  C   UNL     1       6.167  -1.927  -0.806  1.00  0.00     0.108 A 
HETATM   19  N   UNL     1       4.934  -1.819  -0.298  1.00  0.00    -0.310 N 
ATOM     20  HN  UNL     1       4.590  -2.153   0.602  1.00  0.00     0.186 HD
ENDBRANCH  14  15
ENDBRANCH  12  14
ENDBRANCH  10  12
ENDBRANCH   9  10
ENDBRANCH   6   9
ENDBRANCH   4   5
ENDBRANCH   1   4
TORSDOF 7
