REMARK  5 active torsions:
REMARK  status: ('A' for Active; 'I' for Inactive)
REMARK    1  A    between atoms: C_2  and  N_3 
REMARK    2  A    between atoms: C_2  and  C_12 
REMARK    3  A    between atoms: N_3  and  C_4 
REMARK    4  A    between atoms: C_10  and  O_11 
REMARK    5  A    between atoms: C_12  and  N_14 
ROOT
HETATM    1  C   UNL     1       0.762  -0.048   0.353  1.00  0.00     0.045 C 
HETATM    2  C   UNL     1       2.290  -0.005   0.201  1.00  0.00     0.241 C 
ENDROOT
BRANCH   2   3
HETATM    3  N   UNL     1       2.639   0.119  -1.236  1.00  0.00     0.098 N 
HETATM    4  H   UNL     1       3.648   0.246  -1.354  1.00  0.00     0.317 HD
BRANCH   3   5
HETATM    5  C   UNL     1       2.176  -0.965  -2.124  1.00  0.00     0.264 C 
HETATM    6  C   UNL     1       2.802  -2.337  -1.832  1.00  0.00     0.178 C 
HETATM    7  S   UNL     1       3.222  -3.051  -3.403  1.00  0.00     0.149 S 
HETATM    8  O   UNL     1       4.628  -2.784  -3.650  1.00  0.00    -0.228 OA
HETATM    9  O   UNL     1       2.654  -4.376  -3.511  1.00  0.00    -0.228 OA
HETATM   10  C   UNL     1       2.292  -1.924  -4.405  1.00  0.00     0.174 C 
HETATM   11  C   UNL     1       2.385  -0.621  -3.629  1.00  0.00     0.166 C 
BRANCH  11  12
HETATM   12  O   UNL     1       3.625   0.047  -3.875  1.00  0.00    -0.392 OA
HETATM   13  H   UNL     1       4.366  -0.590  -3.861  1.00  0.00     0.210 HD
ENDBRANCH  11  12
ENDBRANCH   3   5
ENDBRANCH   2   3
BRANCH   2  14
HETATM   14  C   UNL     1       2.928   1.152   1.049  1.00  0.00     0.136 C 
HETATM   15  C   UNL     1       2.506   2.560   0.608  1.00  0.00     0.036 C 
BRANCH  14  16
HETATM   16  N   UNL     1       2.713   0.943   2.487  1.00  0.00    -0.297 N 
HETATM   17  C   UNL     1       1.702   1.437   3.266  1.00  0.00     0.118 A 
HETATM   18  C   UNL     1       1.881   0.921   4.530  1.00  0.00    -0.028 A 
HETATM   19  C   UNL     1       1.030   1.125   5.723  1.00  0.00     0.051 C 
HETATM   20  C   UNL     1       3.058   0.149   4.416  1.00  0.00     0.115 A 
HETATM   21  N   UNL     1       3.559   0.151   3.177  1.00  0.00    -0.309 N 
ATOM     22  HN  UNL     1       4.388  -0.334   2.833  1.00  0.00     0.186 HD
ENDBRANCH  14  16
ENDBRANCH   2  14
TORSDOF 5
