REMARK  5 active torsions:
REMARK  status: ('A' for Active; 'I' for Inactive)
REMARK    1  A    between atoms: C_2  and  C_4 
REMARK    2  A    between atoms: C_4  and  N_5 
REMARK    3  A    between atoms: C_8  and  N_11 
REMARK       I    between atoms: N_11  and  C_12 
REMARK    4  A    between atoms: C_12  and  C_14 
REMARK    5  A    between atoms: C_14  and  N_15 
ROOT
HETATM    1  N   UNL     1       6.608   2.427  -1.374  1.00  0.00    -0.355 N 
HETATM    2  C   UNL     1       7.258   3.477  -0.775  1.00  0.00     0.236 C 
HETATM    3  O   UNL     1       8.485   3.445  -0.671  1.00  0.00    -0.272 OA
HETATM    4  H   UNL     1       7.228   1.656  -1.596  1.00  0.00     0.162 HD
ENDROOT
BRANCH   1   5
HETATM    5  C   UNL     1       5.172   2.174  -1.308  1.00  0.00     0.087 C 
HETATM    6  C   UNL     1       4.813   1.505   0.021  1.00  0.00     0.055 C 
HETATM    7  C   UNL     1       5.082   0.000  -0.007  1.00  0.00     0.274 C 
HETATM    8  N   UNL     1       4.437  -0.688  -1.137  1.00  0.00     0.088 N 
HETATM    9  C   UNL     1       4.904  -0.109  -2.403  1.00  0.00     0.274 C 
HETATM   10  C   UNL     1       4.663   1.393  -2.521  1.00  0.00     0.055 C 
BRANCH   8  11
HETATM   11  C   UNL     1       2.970  -0.739  -0.975  1.00  0.00     0.276 C 
BRANCH  11  12
HETATM   12  C   UNL     1       2.198  -1.499  -2.076  1.00  0.00     0.006 C 
HETATM   13  C   UNL     1       2.657  -2.951  -2.211  1.00  0.00     0.011 C 
HETATM   14  C   UNL     1       0.692  -1.459  -1.795  1.00  0.00     0.011 C 
ENDBRANCH  11  12
ENDBRANCH   8  11
ENDBRANCH   1   5
BRANCH   2  15
HETATM   15  C   UNL     1       6.444   4.705  -0.340  1.00  0.00     0.235 C 
BRANCH  15  16
HETATM   16  N   UNL     1       5.953   5.471  -1.498  1.00  0.00    -0.301 N 
HETATM   17  C   UNL     1       6.831   5.762  -2.514  1.00  0.00     0.102 C 
HETATM   18  C   UNL     1       6.433   6.332  -3.648  1.00  0.00     0.092 C 
HETATM   19  C   UNL     1       5.010   6.684  -3.813  1.00  0.00     0.252 C 
HETATM   20  O   UNL     1       4.636   7.110  -4.902  1.00  0.00    -0.268 OA
HETATM   21  N   UNL     1       4.206   6.499  -2.708  1.00  0.00    -0.271 N 
HETATM   22  C   UNL     1       2.818   6.905  -2.792  1.00  0.00     0.164 C 
HETATM   23  C   UNL     1       4.610   5.843  -1.542  1.00  0.00     0.331 C 
HETATM   24  O   UNL     1       3.823   5.581  -0.623  1.00  0.00    -0.246 OA
ENDBRANCH  15  16
ENDBRANCH   2  15
TORSDOF 5
