REMARK  5 active torsions:
REMARK  status: ('A' for Active; 'I' for Inactive)
REMARK    1  A    between atoms: C_2  and  C_3 
REMARK       I    between atoms: C_2  and  N_12 
REMARK    2  A    between atoms: C_3  and  N_4 
REMARK    3  A    between atoms: N_12  and  C_13 
REMARK    4  A    between atoms: C_13  and  C_14 
REMARK    5  A    between atoms: C_14  and  N_20 
ROOT
HETATM    1  O   UNL     1       3.075  -0.790  -1.203  1.00  0.00    -0.272 OA
HETATM    2  C   UNL     1       2.362   0.184  -0.939  1.00  0.00     0.236 C 
HETATM    3  N   UNL     1       2.842   1.291  -0.245  1.00  0.00    -0.357 N 
HETATM    4  H   UNL     1       2.190   1.931   0.194  1.00  0.00     0.162 HD
ENDROOT
BRANCH   3   5
HETATM    5  C   UNL     1       4.182   1.194   0.305  1.00  0.00     0.164 C 
BRANCH   5   6
HETATM    6  C   UNL     1       5.104   2.477   0.429  1.00  0.00     0.175 C 
HETATM    7  C   UNL     1       5.052   3.344  -0.863  1.00  0.00     0.043 C 
HETATM    8  C   UNL     1       5.469   2.616  -2.135  1.00  0.00     0.003 C 
HETATM    9  C   UNL     1       6.860   2.007  -2.012  1.00  0.00     0.000 C 
HETATM   10  C   UNL     1       7.060   1.187  -0.745  1.00  0.00     0.003 C 
HETATM   11  C   UNL     1       6.555   1.892   0.524  1.00  0.00     0.043 C 
BRANCH   6  12
HETATM   12  N   UNL     1       4.665   3.289   1.622  1.00  0.00     0.103 N 
HETATM   13  C   UNL     1       5.022   4.731   1.650  1.00  0.00     0.299 C 
HETATM   14  C   UNL     1       6.489   5.001   2.009  1.00  0.00     0.198 C 
HETATM   15  O   UNL     1       6.797   4.485   3.308  1.00  0.00    -0.388 OA
HETATM   16  C   UNL     1       6.452   3.102   3.455  1.00  0.00     0.198 C 
HETATM   17  C   UNL     1       5.028   2.758   2.957  1.00  0.00     0.299 C 
ENDBRANCH   6  12
ENDBRANCH   5   6
ENDBRANCH   3   5
BRANCH   2  18
HETATM   18  C   UNL     1       0.909   0.213  -1.402  1.00  0.00     0.235 C 
BRANCH  18  19
HETATM   19  N   UNL     1       0.812   0.192  -2.866  1.00  0.00    -0.301 N 
HETATM   20  C   UNL     1       1.173  -0.944  -3.568  1.00  0.00     0.097 A 
HETATM   21  C   UNL     1       1.117  -0.975  -4.901  1.00  0.00     0.034 A 
HETATM   22  C   UNL     1       0.603   0.254  -5.511  1.00  0.00     0.094 A 
HETATM   23  N   UNL     1       0.287   1.335  -4.885  1.00  0.00    -0.319 N 
HETATM   24  C   UNL     1       0.428   1.365  -3.516  1.00  0.00     0.326 A 
ATOM     25  HN  UNL     1      -0.060   2.149  -5.392  1.00  0.00     0.170 HD
HETATM   26  O   UNL     1       0.204   2.396  -2.881  1.00  0.00    -0.246 OA
ENDBRANCH  18  19
ENDBRANCH   2  18
TORSDOF 5
