REMARK  5 active torsions:
REMARK  status: ('A' for Active; 'I' for Inactive)
REMARK    1  A    between atoms: C_2  and  C_3 
REMARK    2  A    between atoms: C_2  and  N_10 
REMARK    3  A    between atoms: C_3  and  N_4 
REMARK       I    between atoms: N_10  and  C_11 
REMARK    4  A    between atoms: C_11  and  C_13 
REMARK    5  A    between atoms: C_13  and  N_14 
ROOT
HETATM    1  N   UNL     1       3.197   1.095   0.766  1.00  0.00    -0.354 N 
HETATM    2  C   UNL     1       4.494   1.039   1.242  1.00  0.00     0.235 C 
HETATM    3  O   UNL     1       5.179   0.021   1.180  1.00  0.00    -0.272 OA
HETATM    4  H   UNL     1       2.752   2.001   0.682  1.00  0.00     0.163 HD
ENDROOT
BRANCH   1   5
HETATM    5  C   UNL     1       2.581  -0.037   0.056  1.00  0.00     0.100 C 
HETATM    6  C   UNL     1       1.060   0.072   0.171  1.00  0.00     0.034 C 
BRANCH   5   7
HETATM    7  C   UNL     1       3.057  -0.112  -1.407  1.00  0.00     0.172 C 
BRANCH   7   8
HETATM    8  N   UNL     1       2.578  -1.292  -2.102  1.00  0.00    -0.302 N 
HETATM    9  C   UNL     1       3.177  -2.518  -2.141  1.00  0.00     0.111 A 
HETATM   10  C   UNL     1       2.361  -3.316  -2.908  1.00  0.00     0.037 A 
HETATM   11  C   UNL     1       1.301  -2.476  -3.294  1.00  0.00     0.108 A 
HETATM   12  N   UNL     1       1.431  -1.239  -2.810  1.00  0.00    -0.310 N 
ATOM     13  HN  UNL     1       0.809  -0.441  -2.944  1.00  0.00     0.186 HD
ENDBRANCH   7   8
ENDBRANCH   5   7
ENDBRANCH   1   5
BRANCH   2  14
HETATM   14  C   UNL     1       4.963   2.331   1.934  1.00  0.00     0.229 C 
BRANCH  14  15
HETATM   15  N   UNL     1       6.410   2.471   1.921  1.00  0.00    -0.334 N 
HETATM   16  C   UNL     1       7.223   1.960   2.999  1.00  0.00     0.138 C 
HETATM   17  C   UNL     1       8.693   2.046   2.625  1.00  0.00     0.104 C 
HETATM   18  S   UNL     1       8.778   3.022   1.108  1.00  0.00    -0.068 SA
HETATM   19  C   UNL     1       7.051   3.048   0.858  1.00  0.00     0.282 C 
HETATM   20  O   UNL     1       6.519   3.535  -0.127  1.00  0.00    -0.260 OA
ENDBRANCH  14  15
ENDBRANCH   2  14
TORSDOF 5
