REMARK  6 active torsions:
REMARK  status: ('A' for Active; 'I' for Inactive)
REMARK    1  A    between atoms: C_2  and  O_3 
REMARK    2  A    between atoms: C_2  and  C_4 
REMARK    3  A    between atoms: C_4  and  N_5 
REMARK    4  A    between atoms: N_5  and  C_6 
REMARK    5  A    between atoms: N_15  and  C_16 
REMARK    6  A    between atoms: C_16  and  C_17 
ROOT
HETATM    1  C   UNL     1       5.080  -1.239  -2.304  1.00  0.00     0.160 A 
HETATM    2  N   UNL     1       5.724  -0.553  -3.215  1.00  0.00    -0.331 N 
ATOM      3  HN  UNL     1       5.848   0.459  -3.251  1.00  0.00     0.168 HD
HETATM    4  C   UNL     1       6.196  -1.478  -4.110  1.00  0.00     0.061 A 
HETATM    5  C   UNL     1       6.994  -1.280  -5.247  1.00  0.00     0.032 A 
HETATM    6  C   UNL     1       7.362  -2.389  -6.016  1.00  0.00     0.002 A 
HETATM    7  C   UNL     1       6.936  -3.672  -5.661  1.00  0.00     0.002 A 
HETATM    8  C   UNL     1       6.136  -3.889  -4.530  1.00  0.00     0.032 A 
HETATM    9  C   UNL     1       5.783  -2.765  -3.767  1.00  0.00     0.063 A 
HETATM   10  N   UNL     1       5.039  -2.580  -2.624  1.00  0.00    -0.319 N 
ENDROOT
BRANCH   1  11
HETATM   11  N   UNL     1       4.478  -0.761  -1.187  1.00  0.00    -0.261 NA
HETATM   12  H   UNL     1       4.960  -1.005  -0.323  1.00  0.00     0.130 HD
BRANCH  11  13
HETATM   13  C   UNL     1       4.111   0.660  -1.206  1.00  0.00     0.126 C 
BRANCH  13  14
HETATM   14  C   UNL     1       3.485   1.096   0.137  1.00  0.00     0.127 C 
HETATM   15  C   UNL     1       3.070   2.559   0.091  1.00  0.00     0.040 C 
BRANCH  14  16
HETATM   16  O   UNL     1       2.317   0.342   0.463  1.00  0.00    -0.395 OA
HETATM   17  H   UNL     1       1.746   0.343  -0.326  1.00  0.00     0.210 HD
ENDBRANCH  14  16
ENDBRANCH  13  14
ENDBRANCH  11  13
ENDBRANCH   1  11
BRANCH  10  18
HETATM   18  C   UNL     1       4.327  -3.602  -1.883  1.00  0.00     0.164 C 
BRANCH  18  19
HETATM   19  C   UNL     1       2.878  -3.853  -2.351  1.00  0.00     0.139 C 
HETATM   20  C   UNL     1       1.916  -2.664  -2.256  1.00  0.00     0.034 C 
HETATM   21  C   UNL     1       1.522  -2.365  -0.816  1.00  0.00     0.005 C 
HETATM   22  C   UNL     1       0.999  -3.610  -0.125  1.00  0.00     0.026 C 
HETATM   23  C   UNL     1       1.985  -4.756  -0.290  1.00  0.00     0.168 C 
HETATM   24  O   UNL     1       2.309  -4.987  -1.663  1.00  0.00    -0.384 OA
ENDBRANCH  18  19
ENDBRANCH  10  18
TORSDOF 6
