REMARK  5 active torsions:
REMARK  status: ('A' for Active; 'I' for Inactive)
REMARK    1  A    between atoms: C_2  and  C_3 
REMARK    2  A    between atoms: C_3  and  O_4 
REMARK    3  A    between atoms: C_3  and  C_10 
REMARK    4  A    between atoms: O_4  and  C_5 
REMARK       I    between atoms: C_10  and  N_12 
REMARK    5  A    between atoms: N_12  and  C_13 
ROOT
HETATM    1  C   UNL     1       4.747  -0.839  -0.955  1.00  0.00     0.251 C 
HETATM    2  O   UNL     1       5.326  -0.357   0.014  1.00  0.00    -0.270 OA
HETATM    3  N   UNL     1       5.381  -1.480  -2.011  1.00  0.00    -0.323 N 
HETATM    4  H   UNL     1       4.779  -1.899  -2.714  1.00  0.00     0.169 HD
ENDROOT
BRANCH   1   5
HETATM    5  C   UNL     1       3.196  -0.766  -1.047  1.00  0.00     0.213 C 
BRANCH   5   6
HETATM    6  C   UNL     1       2.695   0.015   0.186  1.00  0.00     0.037 C 
HETATM    7  C   UNL     1       1.198   0.011   0.426  1.00  0.00     0.008 C 
ENDBRANCH   5   6
BRANCH   5   8
HETATM    8  O   UNL     1       2.654  -0.344  -2.298  1.00  0.00    -0.371 OA
BRANCH   8   9
HETATM    9  C   UNL     1       2.814   1.023  -2.686  1.00  0.00     0.122 C 
HETATM   10  C   UNL     1       2.079   1.249  -4.016  1.00  0.00     0.032 C 
HETATM   11  C   UNL     1       2.995   2.081  -4.909  1.00  0.00     0.002 C 
HETATM   12  C   UNL     1       4.199   2.462  -4.066  1.00  0.00     0.002 C 
HETATM   13  C   UNL     1       4.259   1.405  -2.983  1.00  0.00     0.032 C 
ENDBRANCH   8   9
ENDBRANCH   5   8
ENDBRANCH   1   5
BRANCH   3  14
HETATM   14  C   UNL     1       6.794  -1.538  -2.215  1.00  0.00     0.057 A 
HETATM   15  C   UNL     1       7.692  -0.860  -1.381  1.00  0.00     0.033 A 
HETATM   16  C   UNL     1       9.066  -0.940  -1.579  1.00  0.00     0.019 A 
HETATM   17  C   UNL     1       9.523  -1.699  -2.634  1.00  0.00     0.088 A 
HETATM   18  N   UNL     1       8.705  -2.346  -3.487  1.00  0.00    -0.368 N 
HETATM   19  C   UNL     1       7.359  -2.257  -3.281  1.00  0.00     0.032 A 
ATOM     20  HN  UNL     1       9.081  -2.887  -4.265  1.00  0.00     0.165 HD
HETATM   21  C   UNL     1       6.533  -2.996  -4.294  1.00  0.00     0.070 C 
ENDBRANCH   3  14
TORSDOF 5
