REMARK  6 active torsions:
REMARK  status: ('A' for Active; 'I' for Inactive)
REMARK    1  A    between atoms: C_7  and  O_8 
REMARK    2  A    between atoms: O_8  and  C_9 
REMARK    3  A    between atoms: C_9  and  C_10 
REMARK    4  A    between atoms: C_10  and  O_11 
REMARK    5  A    between atoms: C_10  and  C_12 
REMARK    6  A    between atoms: C_12  and  N_13 
ROOT
HETATM    1  C   UNL     1       7.194   3.924   0.049  1.00  0.00     0.161 C 
ENDROOT
BRANCH   1   2
HETATM    2  C   UNL     1       6.758   2.448  -0.004  1.00  0.00     0.209 C 
BRANCH   2   3
HETATM    3  O   UNL     1       5.327   2.399   0.076  1.00  0.00    -0.349 OA
BRANCH   3   4
HETATM    4  C   UNL     1       4.740   1.164   0.023  1.00  0.00     0.069 A 
HETATM    5  C   UNL     1       5.411  -0.054  -0.097  1.00  0.00     0.043 A 
HETATM    6  C   UNL     1       4.694  -1.261  -0.141  1.00  0.00    -0.059 A 
HETATM    7  C   UNL     1       3.296  -1.238  -0.061  1.00  0.00     0.013 A 
HETATM    8  C   UNL     1       5.440  -2.557  -0.268  1.00  0.00     0.048 C 
HETATM    9  C   UNL     1       2.610  -0.024   0.060  1.00  0.00    -0.059 A 
HETATM   10  C   UNL     1       1.112   0.011   0.150  1.00  0.00     0.048 C 
HETATM   11  C   UNL     1       3.344   1.170   0.101  1.00  0.00     0.043 A 
ENDBRANCH   3   4
ENDBRANCH   2   3
ENDBRANCH   1   2
BRANCH   1  12
HETATM   12  O   UNL     1       6.777   4.533   1.284  1.00  0.00    -0.392 OA
HETATM   13  H   UNL     1       6.857   3.870   1.992  1.00  0.00     0.210 HD
ENDBRANCH   1  12
BRANCH   1  14
HETATM   14  C   UNL     1       8.714   4.124  -0.065  1.00  0.00     0.166 C 
BRANCH  14  15
HETATM   15  N   UNL     1       9.288   3.674  -1.323  1.00  0.00    -0.307 N 
HETATM   16  C   UNL     1       9.311   4.506  -2.409  1.00  0.00     0.186 A 
HETATM   17  N   UNL     1       9.808   4.204  -3.558  1.00  0.00    -0.355 N 
HETATM   18  C   UNL     1      10.337   2.945  -3.713  1.00  0.00     0.017 A 
ATOM     19  HN  UNL     1       9.809   4.875  -4.326  1.00  0.00     0.166 HD
HETATM   20  C   UNL     1      10.869   2.659  -5.094  1.00  0.00     0.069 C 
HETATM   21  C   UNL     1      10.371   2.023  -2.733  1.00  0.00     0.028 A 
HETATM   22  C   UNL     1      10.876   0.618  -2.845  1.00  0.00     0.056 C 
HETATM   23  C   UNL     1       9.846   2.418  -1.401  1.00  0.00     0.256 A 
HETATM   24  O   UNL     1       9.896   1.640  -0.450  1.00  0.00    -0.267 OA
ENDBRANCH  14  15
ENDBRANCH   1  14
TORSDOF 6
