REMARK  5 active torsions:
REMARK  status: ('A' for Active; 'I' for Inactive)
REMARK    1  A    between atoms: C_2  and  C_3 
REMARK    2  A    between atoms: C_3  and  C_5 
REMARK       I    between atoms: C_5  and  N_7 
REMARK    3  A    between atoms: N_7  and  C_8 
REMARK    4  A    between atoms: C_11  and  C_12 
REMARK    5  A    between atoms: C_12  and  C_13 
REMARK       I    between atoms: C_13  and  N_15 
ROOT
HETATM    1  C   UNL     1       6.647   2.593  -0.575  1.00  0.00     0.130 C 
HETATM    2  N   UNL     1       7.299   3.303   0.308  1.00  0.00    -0.344 N 
ATOM      3  HN  UNL     1       6.879   3.939   0.986  1.00  0.00     0.167 HD
HETATM    4  C   UNL     1       8.662   3.049   0.171  1.00  0.00     0.026 C 
HETATM    5  C   UNL     1       8.993   2.302  -0.948  1.00  0.00     0.078 C 
HETATM    6  S   UNL     1       7.573   1.792  -1.762  1.00  0.00    -0.070 SA
ENDROOT
BRANCH   1   7
HETATM    7  N   UNL     1       5.281   2.549  -0.682  1.00  0.00    -0.208 NA
HETATM    8  C   UNL     1       4.675   1.328  -0.425  1.00  0.00     0.207 C 
HETATM    9  O   UNL     1       5.263   0.297  -0.106  1.00  0.00    -0.279 OA
HETATM   10  H   UNL     1       4.826   3.330  -0.229  1.00  0.00     0.138 HD
BRANCH   8  11
HETATM   11  C   UNL     1       3.157   1.374  -0.594  1.00  0.00     0.068 C 
HETATM   12  C   UNL     1       2.496   0.155   0.051  1.00  0.00     0.019 C 
BRANCH  11  13
HETATM   13  C   UNL     1       2.792   1.512  -2.082  1.00  0.00     0.008 C 
HETATM   14  C   UNL     1       3.305   0.376  -2.962  1.00  0.00     0.006 C 
ENDBRANCH  11  13
ENDBRANCH   8  11
ENDBRANCH   1   7
BRANCH   4  15
HETATM   15  C   UNL     1       9.565   3.510   1.268  1.00  0.00     0.160 C 
BRANCH  15  16
HETATM   16  C   UNL     1      10.933   3.997   0.837  1.00  0.00     0.221 C 
HETATM   17  O   UNL     1      11.358   4.030  -0.315  1.00  0.00    -0.273 OA
HETATM   18  N   UNL     1      11.735   4.403   1.868  1.00  0.00    -0.370 N 
HETATM   19  H   UNL     1      11.420   4.463   2.826  1.00  0.00     0.159 HD
HETATM   20  H   UNL     1      12.655   4.755   1.634  1.00  0.00     0.159 HD
ENDBRANCH  15  16
ENDBRANCH   4  15
TORSDOF 5
