REMARK  3 active torsions:
REMARK  status: ('A' for Active; 'I' for Inactive)
REMARK    1  A    between atoms: O_2  and  C_3 
REMARK    2  A    between atoms: C_6  and  N_7 
REMARK       I    between atoms: N_7  and  C_8 
REMARK       I    between atoms: C_8  and  N_10 
REMARK    3  A    between atoms: N_10  and  C_11 
ROOT
HETATM    1  N   UNL     1       3.864  -3.933   1.682  1.00  0.00    -0.337 N 
HETATM    2  C   UNL     1       4.282  -5.177   1.256  1.00  0.00     0.321 C 
HETATM    3  O   UNL     1       3.636  -5.834   0.446  1.00  0.00    -0.247 OA
HETATM    4  N   UNL     1       5.487  -5.551   1.805  1.00  0.00    -0.306 N 
HETATM    5  H   UNL     1       4.221  -3.620   2.572  1.00  0.00     0.164 HD
HETATM    6  H   UNL     1       6.080  -4.839   2.203  1.00  0.00     0.171 HD
ENDROOT
BRANCH   1   7
HETATM    7  C   UNL     1       2.661  -3.322   1.064  1.00  0.00     0.099 C 
HETATM    8  C   UNL     1       3.008  -2.484  -0.187  1.00  0.00     0.064 C 
HETATM    9  C   UNL     1       2.924  -1.186   0.673  1.00  0.00     0.067 C 
HETATM   10  C   UNL     1       4.322  -0.730   1.111  1.00  0.00     0.047 C 
HETATM   11  C   UNL     1       2.063  -2.031   1.712  1.00  0.00     0.004 C 
HETATM   12  C   UNL     1       2.334  -1.767   3.192  1.00  0.00     0.020 C 
HETATM   13  C   UNL     1       0.537  -2.032   1.479  1.00  0.00     0.020 C 
BRANCH   9  14
HETATM   14  O   UNL     1       2.236  -0.112  -0.024  1.00  0.00    -0.384 OA
HETATM   15  C   UNL     1       2.106   1.153   0.607  1.00  0.00     0.202 C 
ENDBRANCH   9  14
ENDBRANCH   1   7
BRANCH   4  16
HETATM   16  C   UNL     1       6.057  -6.788   1.551  1.00  0.00     0.070 A 
HETATM   17  C   UNL     1       5.505  -7.953   0.966  1.00  0.00     0.138 A 
HETATM   18  N   UNL     1       6.389  -8.950   0.884  1.00  0.00    -0.308 N 
HETATM   19  N   UNL     1       7.509  -8.420   1.398  1.00  0.00    -0.306 N 
ATOM     20  HN  UNL     1       6.247  -9.891   0.518  1.00  0.00     0.186 HD
HETATM   21  C   UNL     1       8.722  -9.199   1.410  1.00  0.00     0.177 C 
HETATM   22  C   UNL     1       7.355  -7.134   1.842  1.00  0.00     0.140 A 
ENDBRANCH   4  16
TORSDOF 3
