REMARK  4 active torsions:
REMARK  status: ('A' for Active; 'I' for Inactive)
REMARK    1  A    between atoms: N_5  and  C_8 
REMARK    2  A    between atoms: C_8  and  C_11 
REMARK    3  A    between atoms: C_11  and  N_12 
REMARK       I    between atoms: N_12  and  C_13 
REMARK       I    between atoms: C_13  and  N_15 
REMARK    4  A    between atoms: N_15  and  C_16 
ROOT
HETATM    1  N   UNL     1       4.720  -0.192  -5.073  1.00  0.00    -0.340 N 
HETATM    2  C   UNL     1       5.588  -0.589  -6.063  1.00  0.00     0.320 C 
HETATM    3  O   UNL     1       6.786  -0.746  -5.863  1.00  0.00    -0.247 OA
HETATM    4  N   UNL     1       4.965  -0.704  -7.282  1.00  0.00    -0.306 N 
HETATM    5  H   UNL     1       3.758  -0.496  -5.115  1.00  0.00     0.164 HD
HETATM    6  H   UNL     1       4.038  -0.323  -7.372  1.00  0.00     0.171 HD
ENDROOT
BRANCH   1   7
HETATM    7  C   UNL     1       5.233   0.122  -3.749  1.00  0.00     0.165 C 
BRANCH   7   8
HETATM    8  C   UNL     1       4.707  -0.820  -2.610  1.00  0.00     0.168 C 
HETATM    9  C   UNL     1       5.514  -0.418  -1.357  1.00  0.00     0.050 C 
HETATM   10  C   UNL     1       5.138  -2.265  -2.978  1.00  0.00     0.050 C 
BRANCH   8  11
HETATM   11  N   UNL     1       3.213  -0.738  -2.509  1.00  0.00     0.102 N 
HETATM   12  C   UNL     1       2.635   0.584  -2.190  1.00  0.00     0.303 C 
HETATM   13  C   UNL     1       2.592   0.964  -0.691  1.00  0.00     0.302 C 
HETATM   14  N   UNL     1       2.036  -0.052   0.220  1.00  0.00     0.087 N 
HETATM   15  C   UNL     1       0.580   0.023   0.280  1.00  0.00     0.310 C 
HETATM   16  C   UNL     1       2.493  -1.408  -0.135  1.00  0.00     0.302 C 
HETATM   17  C   UNL     1       2.537  -1.732  -1.648  1.00  0.00     0.303 C 
ENDBRANCH   8  11
ENDBRANCH   7   8
ENDBRANCH   1   7
BRANCH   4  18
HETATM   18  C   UNL     1       5.654  -1.012  -8.439  1.00  0.00     0.070 A 
HETATM   19  C   UNL     1       6.962  -1.515  -8.635  1.00  0.00     0.138 A 
HETATM   20  N   UNL     1       7.268  -1.646  -9.931  1.00  0.00    -0.310 N 
HETATM   21  N   UNL     1       6.166  -1.210 -10.556  1.00  0.00    -0.310 N 
ATOM     22  HN  UNL     1       8.133  -1.994 -10.344  1.00  0.00     0.186 HD
HETATM   23  C   UNL     1       5.155  -0.854  -9.708  1.00  0.00     0.138 A 
HETATM   24  H   UNL     1       6.177  -1.176 -11.570  1.00  0.00     0.186 HD
ENDBRANCH   4  18
TORSDOF 4
