REMARK  2 active torsions:
REMARK  status: ('A' for Active; 'I' for Inactive)
REMARK       I    between atoms: C_2  and  N_4 
REMARK    1  A    between atoms: C_7  and  N_10 
REMARK       I    between atoms: N_10  and  C_11 
REMARK       I    between atoms: C_11  and  N_13 
REMARK    2  A    between atoms: N_13  and  C_14 
ROOT
HETATM    1  N   UNL     1       5.009  -1.848  -4.177  1.00  0.00    -0.338 N 
HETATM    2  C   UNL     1       5.543  -2.935  -4.844  1.00  0.00     0.322 C 
HETATM    3  O   UNL     1       4.843  -3.868  -5.209  1.00  0.00    -0.247 OA
HETATM    4  N   UNL     1       6.904  -2.852  -4.962  1.00  0.00    -0.288 N 
HETATM    5  H   UNL     1       5.494  -0.968  -4.273  1.00  0.00     0.164 HD
HETATM    6  H   UNL     1       7.420  -2.283  -4.313  1.00  0.00     0.172 HD
ENDROOT
BRANCH   1   7
HETATM    7  C   UNL     1       3.577  -1.842  -3.874  1.00  0.00     0.089 C 
HETATM    8  C   UNL     1       3.016  -0.430  -3.698  1.00  0.00     0.045 C 
HETATM    9  C   UNL     1       3.438   0.215  -2.383  1.00  0.00     0.127 C 
HETATM   10  N   UNL     1       3.200  -0.670  -1.247  1.00  0.00    -0.352 N 
HETATM   11  C   UNL     1       2.734  -0.121  -0.059  1.00  0.00     0.215 C 
HETATM   12  C   UNL     1       3.766  -2.013  -1.363  1.00  0.00     0.127 C 
HETATM   13  C   UNL     1       2.559  -1.063   1.105  1.00  0.00     0.117 C 
HETATM   14  O   UNL     1       2.455   1.071   0.061  1.00  0.00    -0.274 OA
HETATM   15  C   UNL     1       3.290  -2.699  -2.635  1.00  0.00     0.045 C 
ENDBRANCH   1   7
BRANCH   4  16
HETATM   16  C   UNL     1       7.583  -3.847  -5.615  1.00  0.00     0.168 A 
HETATM   17  N   UNL     1       7.144  -4.737  -6.473  1.00  0.00    -0.279 N 
HETATM   18  N   UNL     1       8.135  -5.617  -6.859  1.00  0.00    -0.303 N 
ATOM     19  HN  UNL     1       6.184  -4.774  -6.815  1.00  0.00     0.189 HD
HETATM   20  C   UNL     1       9.280  -5.341  -6.273  1.00  0.00     0.160 A 
ATOM     21  HN  UNL     1       7.997  -6.385  -7.516  1.00  0.00     0.186 HD
HETATM   22  S   UNL     1       9.248  -3.957  -5.254  1.00  0.00    -0.046 SA
ENDBRANCH   4  16
TORSDOF 2
