REMARK  4 active torsions:
REMARK  status: ('A' for Active; 'I' for Inactive)
REMARK    1  A    between atoms: C_2  and  C_4 
REMARK    2  A    between atoms: C_2  and  N_16 
REMARK    3  A    between atoms: C_4  and  N_5 
REMARK       I    between atoms: N_5  and  C_6 
REMARK       I    between atoms: C_6  and  N_8 
REMARK    4  A    between atoms: N_8  and  C_9 
ROOT
HETATM    1  N   UNL     1       2.009  -0.999  -2.367  1.00  0.00    -0.340 N 
HETATM    2  C   UNL     1       2.777  -2.054  -2.791  1.00  0.00     0.321 C 
HETATM    3  O   UNL     1       3.918  -2.263  -2.397  1.00  0.00    -0.247 OA
HETATM    4  N   UNL     1       2.243  -2.816  -3.790  1.00  0.00    -0.295 N 
HETATM    5  H   UNL     1       1.367  -0.665  -3.072  1.00  0.00     0.164 HD
HETATM    6  H   UNL     1       2.947  -3.204  -4.404  1.00  0.00     0.172 HD
ENDROOT
BRANCH   1   7
HETATM    7  C   UNL     1       2.580   0.053  -1.551  1.00  0.00     0.165 C 
BRANCH   7   8
HETATM    8  C   UNL     1       2.386  -0.082  -0.013  1.00  0.00     0.168 C 
HETATM    9  C   UNL     1       0.859  -0.072   0.281  1.00  0.00     0.050 C 
HETATM   10  C   UNL     1       2.881  -1.465   0.480  1.00  0.00     0.050 C 
BRANCH   8  11
HETATM   11  N   UNL     1       3.044   0.998   0.783  1.00  0.00     0.103 N 
HETATM   12  C   UNL     1       2.602   2.391   0.559  1.00  0.00     0.299 C 
HETATM   13  C   UNL     1       3.326   3.140  -0.574  1.00  0.00     0.198 C 
HETATM   14  O   UNL     1       4.749   3.098  -0.425  1.00  0.00    -0.388 OA
HETATM   15  C   UNL     1       5.229   1.755  -0.302  1.00  0.00     0.198 C 
HETATM   16  C   UNL     1       4.525   1.000   0.839  1.00  0.00     0.299 C 
ENDBRANCH   8  11
ENDBRANCH   7   8
ENDBRANCH   1   7
BRANCH   4  17
HETATM   17  C   UNL     1       0.970  -2.723  -4.335  1.00  0.00     0.108 A 
HETATM   18  C   UNL     1      -0.162  -2.631  -3.528  1.00  0.00     0.049 A 
HETATM   19  C   UNL     1      -1.397  -2.436  -4.134  1.00  0.00     0.005 A 
HETATM   20  C   UNL     1      -1.461  -2.326  -5.517  1.00  0.00     0.017 A 
HETATM   21  C   UNL     1      -0.286  -2.459  -6.239  1.00  0.00     0.089 A 
HETATM   22  N   UNL     1       0.920  -2.686  -5.680  1.00  0.00    -0.352 N 
ATOM     23  HN  UNL     1       1.755  -2.823  -6.249  1.00  0.00     0.166 HD
ENDBRANCH   4  17
TORSDOF 4
