REMARK  4 active torsions:
REMARK  status: ('A' for Active; 'I' for Inactive)
REMARK    1  A    between atoms: O_2  and  C_3 
REMARK    2  A    between atoms: C_3  and  C_4 
REMARK    3  A    between atoms: C_4  and  N_5 
REMARK    4  A    between atoms: C_7  and  N_8 
REMARK       I    between atoms: N_8  and  C_9 
REMARK       I    between atoms: C_9  and  N_11 
ROOT
HETATM    1  N   UNL     1       5.835   2.833   5.015  1.00  0.00    -0.307 N 
HETATM    2  C   UNL     1       5.781   4.056   4.373  1.00  0.00     0.322 C 
HETATM    3  O   UNL     1       5.420   4.204   3.207  1.00  0.00    -0.247 OA
HETATM    4  N   UNL     1       6.211   5.144   5.135  1.00  0.00    -0.334 N 
HETATM    5  C   UNL     1       6.432   6.411   4.426  1.00  0.00     0.128 C 
HETATM    6  C   UNL     1       5.230   7.351   4.484  1.00  0.00     0.024 C 
HETATM    7  C   UNL     1       5.164   8.220   5.751  1.00  0.00    -0.017 C 
HETATM    8  C   UNL     1       3.777   8.854   5.909  1.00  0.00     0.010 C 
HETATM    9  C   UNL     1       5.628   7.565   7.061  1.00  0.00     0.010 C 
HETATM   10  C   UNL     1       5.322   6.080   7.306  1.00  0.00    -0.000 C 
HETATM   11  C   UNL     1       3.873   5.657   7.067  1.00  0.00     0.011 C 
HETATM   12  C   UNL     1       6.331   5.167   6.592  1.00  0.00     0.132 C 
HETATM   13  H   UNL     1       6.381   2.806   5.858  1.00  0.00     0.170 HD
ENDROOT
BRANCH   1  14
HETATM   14  C   UNL     1       5.489   1.596   4.518  1.00  0.00     0.052 A 
HETATM   15  C   UNL     1       4.965   1.373   3.303  1.00  0.00     0.123 A 
HETATM   16  N   UNL     1       4.735   0.097   2.813  1.00  0.00    -0.320 N 
HETATM   17  C   UNL     1       4.954  -1.041   3.583  1.00  0.00     0.247 A 
HETATM   18  C   UNL     1       5.487  -0.797   4.951  1.00  0.00     0.077 A 
HETATM   19  O   UNL     1       4.731  -2.197   3.234  1.00  0.00    -0.268 OA
HETATM   20  C   UNL     1       5.747   0.450   5.370  1.00  0.00     0.036 A 
BRANCH  16  21
HETATM   21  C   UNL     1       4.335  -0.048   1.408  1.00  0.00     0.158 C 
BRANCH  21  22
HETATM   22  C   UNL     1       5.375   0.506   0.418  1.00  0.00     0.187 C 
BRANCH  22  23
HETATM   23  O   UNL     1       6.607  -0.210   0.533  1.00  0.00    -0.394 OA
HETATM   24  C   UNL     1       7.610   0.334  -0.314  1.00  0.00     0.201 C 
ENDBRANCH  22  23
ENDBRANCH  21  22
ENDBRANCH  16  21
ENDBRANCH   1  14
TORSDOF 4
