REMARK  3 active torsions:
REMARK  status: ('A' for Active; 'I' for Inactive)
REMARK    1  A    between atoms: C_8  and  N_9 
REMARK       I    between atoms: N_9  and  C_10 
REMARK       I    between atoms: C_10  and  N_12 
REMARK    2  A    between atoms: N_12  and  C_13 
REMARK    3  A    between atoms: C_13  and  C_14 
ROOT
HETATM    1  N   UNL     1       2.360  -2.360   0.058  1.00  0.00    -0.294 N 
HETATM    2  C   UNL     1       1.002  -2.406   0.167  1.00  0.00     0.321 C 
HETATM    3  O   UNL     1       0.360  -1.358   0.126  1.00  0.00    -0.247 OA
HETATM    4  N   UNL     1       0.411  -3.637   0.247  1.00  0.00    -0.342 N 
HETATM    5  H   UNL     1       2.698  -1.427  -0.121  1.00  0.00     0.172 HD
HETATM    6  H   UNL     1       1.041  -4.358   0.596  1.00  0.00     0.164 HD
ENDROOT
BRANCH   1   7
HETATM    7  C   UNL     1       3.293  -3.399   0.151  1.00  0.00     0.114 A 
HETATM    8  C   UNL     1       4.626  -3.175  -0.229  1.00  0.00    -0.018 A 
HETATM    9  C   UNL     1       5.136  -1.869  -0.773  1.00  0.00     0.052 C 
HETATM   10  C   UNL     1       5.525  -4.244  -0.103  1.00  0.00     0.012 A 
HETATM   11  C   UNL     1       5.095  -5.470   0.391  1.00  0.00     0.018 A 
HETATM   12  C   UNL     1       3.763  -5.590   0.744  1.00  0.00     0.089 A 
HETATM   13  N   UNL     1       2.862  -4.594   0.629  1.00  0.00    -0.352 N 
ATOM     14  HN  UNL     1       1.887  -4.734   0.893  1.00  0.00     0.166 HD
ENDBRANCH   1   7
BRANCH   4  15
HETATM   15  C   UNL     1      -1.025  -3.742   0.392  1.00  0.00     0.130 C 
BRANCH  15  16
HETATM   16  C   UNL     1      -1.603  -5.157   0.438  1.00  0.00     0.018 C 
HETATM   17  C   UNL     1      -1.135  -5.998   1.638  1.00  0.00     0.022 C 
HETATM   18  C   UNL     1      -1.410  -7.479   1.361  1.00  0.00     0.141 C 
HETATM   19  S   UNL     1      -1.870  -7.621  -0.354  1.00  0.00     0.144 S 
HETATM   20  O   UNL     1      -1.013  -8.595  -0.997  1.00  0.00    -0.228 OA
HETATM   21  O   UNL     1      -3.315  -7.686  -0.439  1.00  0.00    -0.228 OA
HETATM   22  C   UNL     1      -1.347  -5.982  -0.818  1.00  0.00     0.146 C 
ENDBRANCH  15  16
ENDBRANCH   4  15
TORSDOF 3
