REMARK  4 active torsions:
REMARK  status: ('A' for Active; 'I' for Inactive)
REMARK    1  A    between atoms: C_2  and  C_3 
REMARK    2  A    between atoms: C_7  and  C_8 
REMARK    3  A    between atoms: C_8  and  C_9 
REMARK    4  A    between atoms: C_9  and  N_10 
REMARK       I    between atoms: N_10  and  C_11 
REMARK       I    between atoms: C_11  and  N_13 
ROOT
HETATM    1  N   UNL     1       3.500  -4.733   4.729  1.00  0.00    -0.343 N 
HETATM    2  C   UNL     1       3.559  -6.066   4.403  1.00  0.00     0.318 C 
HETATM    3  O   UNL     1       3.429  -6.446   3.242  1.00  0.00    -0.247 OA
HETATM    4  N   UNL     1       3.743  -6.941   5.466  1.00  0.00    -0.334 N 
HETATM    5  C   UNL     1       3.845  -6.561   6.878  1.00  0.00     0.127 C 
HETATM    6  C   UNL     1       2.495  -6.659   7.577  1.00  0.00     0.020 C 
HETATM    7  C   UNL     1       2.226  -8.036   8.183  1.00  0.00     0.002 C 
HETATM    8  C   UNL     1       2.672  -9.244   7.358  1.00  0.00     0.002 C 
HETATM    9  C   UNL     1       2.497  -9.094   5.848  1.00  0.00     0.020 C 
HETATM   10  C   UNL     1       3.676  -8.376   5.179  1.00  0.00     0.127 C 
HETATM   11  H   UNL     1       4.107  -4.457   5.480  1.00  0.00     0.164 HD
ENDROOT
BRANCH   1  12
HETATM   12  C   UNL     1       3.349  -3.712   3.700  1.00  0.00     0.131 C 
BRANCH  12  13
HETATM   13  C   UNL     1       2.036  -3.797   2.922  1.00  0.00     0.084 C 
BRANCH  13  14
HETATM   14  C   UNL     1       1.946  -2.706   1.900  1.00  0.00     0.052 A 
HETATM   15  N   UNL     1       1.947  -1.420   2.184  1.00  0.00    -0.363 N 
HETATM   16  C   UNL     1       1.777  -0.690   1.023  1.00  0.00     0.103 A 
ATOM     17  HN  UNL     1       2.056  -1.024   3.117  1.00  0.00     0.165 HD
HETATM   18  C   UNL     1       1.654  -1.426  -0.138  1.00  0.00    -0.001 A 
HETATM   19  S   UNL     1       1.799  -3.093   0.231  1.00  0.00    -0.080 SA
BRANCH  18  20
HETATM   20  C   UNL     1       1.403  -0.960  -1.534  1.00  0.00     0.043 C 
HETATM   21  C   UNL     1       2.691  -0.649  -2.278  1.00  0.00     0.010 C 
ENDBRANCH  18  20
ENDBRANCH  13  14
ENDBRANCH  12  13
ENDBRANCH   1  12
TORSDOF 4
