REMARK  5 active torsions:
REMARK  status: ('A' for Active; 'I' for Inactive)
REMARK    1  A    between atoms: C_4  and  C_5 
REMARK    2  A    between atoms: C_5  and  C_6 
REMARK    3  A    between atoms: C_6  and  N_7 
REMARK       I    between atoms: N_7  and  C_8 
REMARK       I    between atoms: C_8  and  N_10 
REMARK    4  A    between atoms: N_10  and  C_11 
REMARK    5  A    between atoms: C_11  and  C_12 
ROOT
HETATM    1  N   UNL     1       6.735   3.940   0.110  1.00  0.00    -0.343 N 
HETATM    2  C   UNL     1       6.542   5.297   0.021  1.00  0.00     0.316 C 
HETATM    3  O   UNL     1       5.440   5.831   0.025  1.00  0.00    -0.247 OA
HETATM    4  N   UNL     1       7.723   5.974  -0.120  1.00  0.00    -0.342 N 
HETATM    5  H   UNL     1       7.582   3.612  -0.332  1.00  0.00     0.164 HD
HETATM    6  H   UNL     1       8.538   5.540   0.290  1.00  0.00     0.164 HD
ENDROOT
BRANCH   1   7
HETATM    7  C   UNL     1       5.568   3.076   0.030  1.00  0.00     0.129 C 
BRANCH   7   8
HETATM    8  C   UNL     1       5.906   1.585   0.003  1.00  0.00     0.061 C 
BRANCH   8   9
HETATM    9  C   UNL     1       6.626   1.161  -1.235  1.00  0.00    -0.023 A 
HETATM   10  C   UNL     1       6.207   1.256  -2.549  1.00  0.00     0.118 A 
HETATM   11  N   UNL     1       7.212   0.732  -3.310  1.00  0.00    -0.308 N 
HETATM   12  C   UNL     1       7.245   0.616  -4.748  1.00  0.00     0.177 C 
HETATM   13  N   UNL     1       8.258   0.297  -2.586  1.00  0.00    -0.310 N 
HETATM   14  C   UNL     1       7.895   0.545  -1.326  1.00  0.00     0.115 A 
ATOM     15  HN  UNL     1       9.125  -0.124  -2.921  1.00  0.00     0.186 HD
ENDBRANCH   8   9
ENDBRANCH   7   8
ENDBRANCH   1   7
BRANCH   4  16
HETATM   16  C   UNL     1       7.729   7.428  -0.179  1.00  0.00     0.144 C 
BRANCH  16  17
HETATM   17  C   UNL     1       8.925   8.021  -0.951  1.00  0.00     0.020 C 
HETATM   18  C   UNL     1       8.831   9.556  -0.923  1.00  0.00     0.028 C 
HETATM   19  C   UNL     1       9.011   7.511  -2.402  1.00  0.00     0.022 C 
HETATM   20  C   UNL     1      10.472   7.363  -2.851  1.00  0.00     0.012 C 
HETATM   21  C   UNL     1      11.430   7.796  -1.756  1.00  0.00     0.075 C 
HETATM   22  S   UNL     1      10.522   7.500  -0.230  1.00  0.00    -0.158 SA
ENDBRANCH  16  17
ENDBRANCH   4  16
TORSDOF 5
