REMARK  4 active torsions:
REMARK  status: ('A' for Active; 'I' for Inactive)
REMARK    1  A    between atoms: C_2  and  S_3 
REMARK    2  A    between atoms: S_3  and  C_4 
REMARK    3  A    between atoms: C_7  and  N_8 
REMARK       I    between atoms: N_8  and  C_9 
REMARK    4  A    between atoms: C_9  and  C_11 
ROOT
HETATM    1  C   UNL     1       4.935  -1.634  -0.022  1.00  0.00     0.069 A 
HETATM    2  C   UNL     1       5.581  -0.411  -0.131  1.00  0.00     0.039 A 
HETATM    3  C   UNL     1       6.967  -0.387  -0.292  1.00  0.00     0.034 A 
HETATM    4  C   UNL     1       7.685  -1.578  -0.353  1.00  0.00     0.050 A 
HETATM    5  C   UNL     1       6.944  -2.752  -0.247  1.00  0.00     0.118 A 
HETATM    6  N   UNL     1       5.596  -2.811  -0.078  1.00  0.00    -0.358 N 
ATOM      7  HN  UNL     1       5.107  -3.702   0.003  1.00  0.00     0.166 HD
ENDROOT
BRANCH   4   8
HETATM    8  N   UNL     1       9.088  -1.634  -0.537  1.00  0.00    -0.320 N 
HETATM    9  C   UNL     1       9.960  -0.566  -0.443  1.00  0.00     0.281 C 
HETATM   10  O   UNL     1       9.666   0.577  -0.105  1.00  0.00    -0.265 OA
HETATM   11  H   UNL     1       9.509  -2.539  -0.716  1.00  0.00     0.169 HD
BRANCH   9  12
HETATM   12  C   UNL     1      11.387  -0.932  -0.762  1.00  0.00     0.159 C 
HETATM   13  C   UNL     1      12.311   0.015  -0.560  1.00  0.00     0.177 C 
HETATM   14  O   UNL     1      13.649  -0.102  -0.766  1.00  0.00    -0.358 OA
HETATM   15  C   UNL     1      14.070  -1.330  -1.341  1.00  0.00     0.201 C 
HETATM   16  C   UNL     1      13.048  -2.467  -1.454  1.00  0.00     0.202 C 
HETATM   17  O   UNL     1      11.665  -2.192  -1.232  1.00  0.00    -0.342 OA
ENDBRANCH   9  12
ENDBRANCH   4   8
BRANCH   1  18
HETATM   18  S   UNL     1       3.155  -1.634   0.113  1.00  0.00    -0.113 SA
BRANCH  18  19
HETATM   19  C   UNL     1       2.883  -3.180   1.030  1.00  0.00     0.076 C 
HETATM   20  C   UNL     1       1.390  -3.405   1.208  1.00  0.00     0.016 C 
ENDBRANCH  18  19
ENDBRANCH   1  18
TORSDOF 4
