REMARK  5 active torsions:
REMARK  status: ('A' for Active; 'I' for Inactive)
REMARK    1  A    between atoms: N_5  and  C_6 
REMARK    2  A    between atoms: C_6  and  C_7 
REMARK       I    between atoms: N_11  and  C_13 
REMARK       I    between atoms: C_13  and  N_15 
REMARK    3  A    between atoms: N_15  and  C_16 
REMARK    4  A    between atoms: C_16  and  C_17 
REMARK    5  A    between atoms: C_17  and  C_18 
ROOT
HETATM    1  C   UNL     1       5.113   0.384  -3.839  1.00  0.00     0.032 C 
HETATM    2  C   UNL     1       5.740   1.648  -3.229  1.00  0.00     0.009 C 
HETATM    3  C   UNL     1       4.702   2.664  -2.752  1.00  0.00     0.020 C 
HETATM    4  C   UNL     1       3.623   2.938  -3.796  1.00  0.00     0.127 C 
HETATM    5  N   UNL     1       3.067   1.714  -4.360  1.00  0.00    -0.334 N 
HETATM    6  C   UNL     1       4.045   0.759  -4.872  1.00  0.00     0.134 C 
HETATM    7  C   UNL     1       1.698   1.629  -4.560  1.00  0.00     0.318 C 
HETATM    8  O   UNL     1       0.891   2.418  -4.077  1.00  0.00    -0.247 OA
HETATM    9  N   UNL     1       1.299   0.570  -5.336  1.00  0.00    -0.343 N 
HETATM   10  H   UNL     1       1.916   0.353  -6.102  1.00  0.00     0.164 HD
ENDROOT
BRANCH   1  11
HETATM   11  C   UNL     1       4.553  -0.615  -2.787  1.00  0.00     0.278 C 
BRANCH  11  12
HETATM   12  N   UNL     1       5.583  -1.204  -1.905  1.00  0.00     0.088 N 
HETATM   13  C   UNL     1       6.635  -1.949  -2.612  1.00  0.00     0.272 C 
HETATM   14  C   UNL     1       6.188  -3.321  -3.121  1.00  0.00     0.034 C 
HETATM   15  C   UNL     1       5.706  -4.205  -1.969  1.00  0.00    -0.015 C 
HETATM   16  C   UNL     1       6.869  -4.635  -1.070  1.00  0.00     0.010 C 
HETATM   17  C   UNL     1       4.611  -3.457  -1.198  1.00  0.00     0.034 C 
HETATM   18  C   UNL     1       5.007  -2.019  -0.819  1.00  0.00     0.272 C 
ENDBRANCH  11  12
ENDBRANCH   1  11
BRANCH   9  19
HETATM   19  C   UNL     1      -0.105   0.309  -5.584  1.00  0.00     0.130 C 
BRANCH  19  20
HETATM   20  C   UNL     1      -0.331  -0.987  -6.367  1.00  0.00     0.076 C 
BRANCH  20  21
HETATM   21  C   UNL     1       0.163  -2.233  -5.673  1.00  0.00     0.010 A 
HETATM   22  C   UNL     1      -0.353  -2.620  -4.438  1.00  0.00     0.025 A 
HETATM   23  C   UNL     1       0.117  -3.790  -3.847  1.00  0.00     0.003 A 
HETATM   24  C   UNL     1       1.075  -4.550  -4.505  1.00  0.00     0.017 A 
HETATM   25  C   UNL     1       1.529  -4.103  -5.733  1.00  0.00     0.088 A 
HETATM   26  N   UNL     1       1.101  -2.965  -6.326  1.00  0.00    -0.369 N 
ATOM     27  HN  UNL     1       1.469  -2.668  -7.230  1.00  0.00     0.165 HD
ENDBRANCH  20  21
ENDBRANCH  19  20
ENDBRANCH   9  19
TORSDOF 5
