REMARK  6 active torsions:
REMARK  status: ('A' for Active; 'I' for Inactive)
REMARK    1  A    between atoms: C_2  and  C_3 
REMARK    2  A    between atoms: C_8  and  N_9 
REMARK       I    between atoms: N_9  and  C_10 
REMARK    3  A    between atoms: C_10  and  C_12 
REMARK    4  A    between atoms: N_17  and  C_18 
REMARK    5  A    between atoms: C_18  and  C_19 
REMARK    6  A    between atoms: C_19  and  O_20 
ROOT
HETATM    1  C   UNL     1       4.785  -1.685   3.395  1.00  0.00     0.116 A 
HETATM    2  C   UNL     1       4.536  -1.657   4.849  1.00  0.00     0.042 A 
HETATM    3  C   UNL     1       4.683  -2.806   5.508  1.00  0.00     0.078 A 
HETATM    4  C   UNL     1       5.091  -4.036   4.801  1.00  0.00     0.262 A 
HETATM    5  O   UNL     1       5.183  -5.083   5.435  1.00  0.00    -0.267 OA
HETATM    6  N   UNL     1       5.357  -3.902   3.443  1.00  0.00    -0.255 N 
HETATM    7  N   UNL     1       5.170  -2.731   2.724  1.00  0.00    -0.290 N 
ATOM      8  HN  UNL     1       5.327  -2.692   1.717  1.00  0.00     0.187 HD
ENDROOT
BRANCH   1   9
HETATM    9  C   UNL     1       4.564  -0.364   2.648  1.00  0.00     0.269 C 
HETATM   10  N   UNL     1       4.840  -0.410   1.298  1.00  0.00    -0.351 N 
HETATM   11  H   UNL     1       5.057  -1.324   0.912  1.00  0.00     0.163 HD
HETATM   12  O   UNL     1       4.163   0.620   3.253  1.00  0.00    -0.266 OA
BRANCH  10  13
HETATM   13  C   UNL     1       4.556   0.715   0.420  1.00  0.00     0.088 C 
HETATM   14  C   UNL     1       3.069   0.756  -0.023  1.00  0.00     0.008 C 
HETATM   15  C   UNL     1       2.852   2.049  -0.831  1.00  0.00     0.007 C 
HETATM   16  C   UNL     1       3.766   2.130  -2.052  1.00  0.00     0.001 C 
HETATM   17  C   UNL     1       5.240   1.954  -1.685  1.00  0.00     0.002 C 
HETATM   18  C   UNL     1       5.505   0.745  -0.785  1.00  0.00     0.025 C 
BRANCH  14  19
HETATM   19  C   UNL     1       2.655  -0.522  -0.793  1.00  0.00     0.002 C 
HETATM   20  C   UNL     1       1.192  -0.551  -1.213  1.00  0.00     0.005 C 
ENDBRANCH  14  19
ENDBRANCH  10  13
ENDBRANCH   1   9
BRANCH   6  21
HETATM   21  C   UNL     1       5.849  -5.056   2.698  1.00  0.00     0.178 C 
BRANCH  21  22
HETATM   22  C   UNL     1       4.729  -5.961   2.193  1.00  0.00     0.189 C 
BRANCH  22  23
HETATM   23  O   UNL     1       5.309  -7.056   1.476  1.00  0.00    -0.394 OA
HETATM   24  C   UNL     1       4.319  -7.947   0.982  1.00  0.00     0.201 C 
ENDBRANCH  22  23
ENDBRANCH  21  22
ENDBRANCH   6  21
TORSDOF 6
