REMARK  2 active torsions:
REMARK  status: ('A' for Active; 'I' for Inactive)
REMARK    1  A    between atoms: C_9  and  N_10 
REMARK    2  A    between atoms: N_10  and  C_11 
ROOT
HETATM    1  N   UNL     1       6.646   0.105  -1.153  1.00  0.00    -0.191 NA
HETATM    2  C   UNL     1       6.388  -0.806  -0.480  1.00  0.00     0.102 C 
HETATM    3  C   UNL     1       6.121  -1.955   0.329  1.00  0.00     0.083 A 
HETATM    4  C   UNL     1       7.168  -2.535   1.056  1.00  0.00     0.027 A 
HETATM    5  C   UNL     1       6.926  -3.675   1.809  1.00  0.00     0.019 A 
HETATM    6  C   UNL     1       5.641  -4.183   1.816  1.00  0.00     0.089 A 
HETATM    7  N   UNL     1       4.600  -3.606   1.174  1.00  0.00    -0.356 N 
ATOM      8  HN  UNL     1       3.661  -3.999   1.244  1.00  0.00     0.166 HD
HETATM    9  C   UNL     1       4.832  -2.498   0.439  1.00  0.00     0.101 A 
ENDROOT
BRANCH   9  10
HETATM   10  N   UNL     1       3.753  -1.882  -0.215  1.00  0.00    -0.271 NA
HETATM   11  H   UNL     1       3.887  -1.971  -1.221  1.00  0.00     0.129 HD
BRANCH  10  12
HETATM   12  C   UNL     1       2.409  -2.297   0.199  1.00  0.00     0.093 C 
HETATM   13  C   UNL     1       1.357  -1.540  -0.633  1.00  0.00     0.054 C 
HETATM   14  C   UNL     1       0.614  -0.736   0.430  1.00  0.00     0.123 C 
HETATM   15  C   UNL     1       1.494   0.362   1.030  1.00  0.00     0.034 C 
HETATM   16  O   UNL     1       0.569  -1.699   1.507  1.00  0.00    -0.379 OA
HETATM   17  C   UNL     1       2.408  -0.432   1.962  1.00  0.00     0.036 C 
HETATM   18  C   UNL     1       2.011  -1.871   1.636  1.00  0.00     0.140 C 
ENDBRANCH  10  12
ENDBRANCH   9  10
TORSDOF 2
