REMARK  6 active torsions:
REMARK  status: ('A' for Active; 'I' for Inactive)
REMARK    1  A    between atoms: C_2  and  N_3 
REMARK    2  A    between atoms: N_6  and  C_7 
REMARK    3  A    between atoms: C_7  and  C_8 
REMARK    4  A    between atoms: C_8  and  O_11 
REMARK    5  A    between atoms: C_14  and  S_18 
REMARK    6  A    between atoms: S_18  and  N_21 
ROOT
HETATM    1  N   UNL     1       2.951  -1.158  -0.670  1.00  0.00    -0.298 N 
HETATM    2  C   UNL     1       3.570  -0.940  -1.925  1.00  0.00     0.330 A 
HETATM    3  O   UNL     1       3.890   0.130  -2.414  1.00  0.00    -0.246 OA
HETATM    4  N   UNL     1       3.716  -2.214  -2.517  1.00  0.00    -0.294 N 
HETATM    5  C   UNL     1       3.174  -3.180  -1.660  1.00  0.00     0.067 A 
HETATM    6  C   UNL     1       3.041  -4.541  -1.835  1.00  0.00     0.057 A 
HETATM    7  C   UNL     1       2.397  -5.246  -0.812  1.00  0.00     0.077 A 
HETATM    8  C   UNL     1       1.971  -4.604   0.373  1.00  0.00     0.027 A 
HETATM    9  C   UNL     1       2.124  -3.221   0.529  1.00  0.00     0.034 A 
HETATM   10  C   UNL     1       2.710  -2.530  -0.513  1.00  0.00     0.066 A 
ENDROOT
BRANCH   4  11
HETATM   11  C   UNL     1       4.371  -2.481  -3.777  1.00  0.00     0.171 C 
BRANCH  11  12
HETATM   12  C   UNL     1       3.433  -2.468  -5.009  1.00  0.00     0.067 C 
HETATM   13  C   UNL     1       2.856  -1.077  -5.284  1.00  0.00     0.047 C 
HETATM   14  C   UNL     1       4.214  -2.968  -6.229  1.00  0.00     0.047 C 
BRANCH  12  15
HETATM   15  O   UNL     1       2.340  -3.379  -4.820  1.00  0.00    -0.389 OA
HETATM   16  H   UNL     1       1.788  -3.003  -4.111  1.00  0.00     0.210 HD
ENDBRANCH  12  15
ENDBRANCH  11  12
ENDBRANCH   4  11
BRANCH   1  17
HETATM   17  C   UNL     1       2.460  -0.114   0.195  1.00  0.00     0.130 C 
HETATM   18  C   UNL     1       1.006   0.218  -0.102  1.00  0.00     0.027 C 
ENDBRANCH   1  17
BRANCH   7  19
HETATM   19  S   UNL     1       2.154  -6.998  -0.988  1.00  0.00     0.243 S 
HETATM   20  O   UNL     1       3.075  -7.486  -1.993  1.00  0.00    -0.206 OA
HETATM   21  O   UNL     1       2.141  -7.556   0.349  1.00  0.00    -0.206 OA
BRANCH  19  22
HETATM   22  N   UNL     1       0.568  -7.103  -1.633  1.00  0.00    -0.215 NA
HETATM   23  C   UNL     1       0.409  -6.588  -3.015  1.00  0.00     0.129 C 
HETATM   24  C   UNL     1      -0.011  -8.462  -1.508  1.00  0.00     0.129 C 
ENDBRANCH  19  22
ENDBRANCH   7  19
TORSDOF 6
