REMARK  1 active torsions:
REMARK  status: ('A' for Active; 'I' for Inactive)
REMARK    1  A    between atoms: C_6  and  N_7 
ROOT
HETATM    1  N   UNL     2       1.027  -0.617   1.633  1.00  0.00    -0.277 N 
HETATM    2  C   UNL     2       2.152  -1.185   2.099  1.00  0.00     0.126 A 
HETATM    3  C   UNL     2       2.102  -1.089   3.470  1.00  0.00     0.123 A 
HETATM    4  N   UNL     2       0.953  -0.467   3.800  1.00  0.00    -0.294 N 
ATOM      5  HN  UNL     2       0.632  -0.248   4.743  1.00  0.00     0.183 HD
HETATM    6  N   UNL     2       0.319  -0.193   2.669  1.00  0.00    -0.021 NA
ENDROOT
BRANCH   1   7
HETATM    7  C   UNL     2       0.638  -0.494   0.223  1.00  0.00     0.161 C 
HETATM    8  C   UNL     2      -0.046   0.835  -0.054  1.00  0.00     0.298 C 
HETATM    9  N   UNL     2      -1.377   0.239   0.099  1.00  0.00     0.087 N 
HETATM   10  C   UNL     2      -0.744  -1.080   0.001  1.00  0.00     0.298 C 
HETATM   11  H   UNL     2      -1.962   0.425  -0.749  1.00  0.00     0.316 HD
ENDBRANCH   1   7
TORSDOF 1
