REMARK  6 active torsions:
REMARK  status: ('A' for Active; 'I' for Inactive)
REMARK    1  A    between atoms: N_11  and  C_12 
REMARK    2  A    between atoms: C_12  and  C_13 
REMARK    3  A    between atoms: C_13  and  O_14 
REMARK    4  A    between atoms: C_13  and  C_15 
REMARK    5  A    between atoms: C_15  and  O_16 
REMARK    6  A    between atoms: O_16  and  C_17 
ROOT
HETATM    1  C   UNL     1       2.805  -2.331   0.100  1.00  0.00     0.164 C 
ENDROOT
BRANCH   1   2
HETATM    2  N   UNL     1       3.340  -0.987  -0.036  1.00  0.00    -0.332 N 
HETATM    3  C   UNL     1       3.605  -0.333  -1.225  1.00  0.00     0.080 A 
HETATM    4  C   UNL     1       3.431  -0.924  -2.578  1.00  0.00     0.089 C 
HETATM    5  N   UNL     1       4.020   0.896  -0.999  1.00  0.00    -0.344 N 
HETATM    6  C   UNL     1       3.994   1.062   0.359  1.00  0.00     0.060 A 
ATOM      7  HN  UNL     1       4.304   1.585  -1.696  1.00  0.00     0.167 HD
HETATM    8  C   UNL     1       4.311   2.198   1.117  1.00  0.00     0.032 A 
HETATM    9  C   UNL     1       3.577  -0.104   0.997  1.00  0.00     0.062 A 
HETATM   10  C   UNL     1       4.209   2.130   2.510  1.00  0.00     0.002 A 
HETATM   11  C   UNL     1       3.801   0.951   3.135  1.00  0.00     0.002 A 
HETATM   12  C   UNL     1       3.474  -0.193   2.394  1.00  0.00     0.032 A 
ENDBRANCH   1   2
BRANCH   1  13
HETATM   13  C   UNL     1       3.858  -3.447   0.151  1.00  0.00     0.160 C 
BRANCH  13  14
HETATM   14  O   UNL     1       4.664  -3.432  -1.033  1.00  0.00    -0.392 OA
HETATM   15  H   UNL     1       5.384  -2.788  -0.901  1.00  0.00     0.210 HD
ENDBRANCH  13  14
BRANCH  13  16
HETATM   16  C   UNL     1       4.726  -3.420   1.417  1.00  0.00     0.209 C 
BRANCH  16  17
HETATM   17  O   UNL     1       5.572  -4.575   1.387  1.00  0.00    -0.345 OA
BRANCH  17  18
HETATM   18  C   UNL     1       6.438  -4.753   2.429  1.00  0.00     0.107 A 
HETATM   19  C   UNL     1       7.305  -5.839   2.271  1.00  0.00     0.040 A 
HETATM   20  C   UNL     1       8.238  -6.161   3.261  1.00  0.00     0.003 A 
HETATM   21  C   UNL     1       8.309  -5.396   4.424  1.00  0.00     0.003 A 
HETATM   22  C   UNL     1       7.452  -4.309   4.590  1.00  0.00     0.045 A 
HETATM   23  C   UNL     1       6.524  -3.993   3.597  1.00  0.00     0.149 A 
HETATM   24  F   UNL     1       5.719  -2.941   3.811  1.00  0.00    -0.203 F 
ENDBRANCH  17  18
ENDBRANCH  16  17
ENDBRANCH  13  16
ENDBRANCH   1  13
TORSDOF 6
