REMARK  3 active torsions:
REMARK  status: ('A' for Active; 'I' for Inactive)
REMARK    1  A    between atoms: C_6  and  C_7 
REMARK    2  A    between atoms: C_7  and  N_8 
REMARK       I    between atoms: N_8  and  C_9 
REMARK       I    between atoms: C_9  and  N_11 
REMARK    3  A    between atoms: N_11  and  C_12 
ROOT
HETATM    1  N   UNL     1       2.672  -3.548  -3.698  1.00  0.00    -0.340 N 
HETATM    2  C   UNL     1       3.412  -3.190  -4.798  1.00  0.00     0.321 C 
HETATM    3  O   UNL     1       4.414  -2.488  -4.715  1.00  0.00    -0.247 OA
HETATM    4  N   UNL     1       2.911  -3.730  -5.957  1.00  0.00    -0.295 N 
HETATM    5  H   UNL     1       1.678  -3.671  -3.859  1.00  0.00     0.164 HD
HETATM    6  H   UNL     1       2.713  -4.717  -5.881  1.00  0.00     0.172 HD
ENDROOT
BRANCH   1   7
HETATM    7  C   UNL     1       3.050  -3.065  -2.380  1.00  0.00     0.158 C 
BRANCH   7   8
HETATM    8  C   UNL     1       2.497  -1.671  -2.028  1.00  0.00     0.167 C 
HETATM    9  O   UNL     1       1.055  -1.746  -2.024  1.00  0.00    -0.381 OA
HETATM   10  C   UNL     1       0.487  -0.486  -1.639  1.00  0.00     0.198 C 
HETATM   11  C   UNL     1       0.946   0.651  -2.567  1.00  0.00     0.298 C 
HETATM   12  N   UNL     1       2.410   0.785  -2.677  1.00  0.00     0.088 N 
HETATM   13  C   UNL     1       3.012   1.384  -1.491  1.00  0.00     0.310 C 
HETATM   14  C   UNL     1       2.983  -0.547  -2.976  1.00  0.00     0.305 C 
ENDBRANCH   7   8
ENDBRANCH   1   7
BRANCH   4  15
HETATM   15  C   UNL     1       3.511  -3.408  -7.179  1.00  0.00     0.109 A 
HETATM   16  C   UNL     1       3.707  -2.081  -7.546  1.00  0.00     0.049 A 
HETATM   17  C   UNL     1       4.378  -1.815  -8.731  1.00  0.00     0.006 A 
HETATM   18  C   UNL     1       4.855  -2.877  -9.491  1.00  0.00     0.025 A 
HETATM   19  C   UNL     1       4.597  -4.177  -9.060  1.00  0.00     0.007 A 
HETATM   20  C   UNL     1       5.175  -5.351  -9.789  1.00  0.00     0.068 C 
HETATM   21  N   UNL     1       3.889  -4.453  -7.938  1.00  0.00    -0.346 N 
ATOM     22  HN  UNL     1       3.653  -5.411  -7.680  1.00  0.00     0.167 HD
ENDBRANCH   4  15
TORSDOF 3
