REMARK  7 active torsions:
REMARK  status: ('A' for Active; 'I' for Inactive)
REMARK    1  A    between atoms: N_6  and  C_7 
REMARK    2  A    between atoms: C_7  and  C_8 
REMARK    3  A    between atoms: C_8  and  O_9 
REMARK    4  A    between atoms: C_8  and  C_10 
REMARK    5  A    between atoms: C_10  and  O_11 
REMARK    6  A    between atoms: O_11  and  C_12 
REMARK    7  A    between atoms: C_12  and  C_13 
ROOT
HETATM    1  C   UNL     1       7.371  -1.335   0.038  1.00  0.00     0.160 C 
ENDROOT
BRANCH   1   2
HETATM    2  C   UNL     1       6.681   0.044   0.106  1.00  0.00     0.166 C 
BRANCH   2   3
HETATM    3  N   UNL     1       5.223  -0.037   0.064  1.00  0.00    -0.307 N 
HETATM    4  C   UNL     1       4.502  -0.119   1.222  1.00  0.00     0.186 A 
HETATM    5  N   UNL     1       3.215  -0.164   1.290  1.00  0.00    -0.355 N 
HETATM    6  C   UNL     1       2.518  -0.126   0.107  1.00  0.00     0.017 A 
ATOM      7  HN  UNL     1       2.733  -0.225   2.187  1.00  0.00     0.166 HD
HETATM    8  C   UNL     1       1.019  -0.157   0.266  1.00  0.00     0.069 C 
HETATM    9  C   UNL     1       3.098  -0.069  -1.107  1.00  0.00     0.028 A 
HETATM   10  C   UNL     1       4.583  -0.050  -1.157  1.00  0.00     0.256 A 
HETATM   11  C   UNL     1       2.350  -0.020  -2.403  1.00  0.00     0.056 C 
HETATM   12  O   UNL     1       5.191  -0.031  -2.226  1.00  0.00    -0.267 OA
ENDBRANCH   2   3
ENDBRANCH   1   2
BRANCH   1  13
HETATM   13  O   UNL     1       7.060  -2.051  -1.159  1.00  0.00    -0.392 OA
HETATM   14  H   UNL     1       6.954  -1.410  -1.889  1.00  0.00     0.210 HD
ENDBRANCH   1  13
BRANCH   1  15
HETATM   15  C   UNL     1       8.893  -1.171   0.127  1.00  0.00     0.201 C 
BRANCH  15  16
HETATM   16  O   UNL     1       9.215  -0.506   1.341  1.00  0.00    -0.384 OA
BRANCH  16  17
HETATM   17  C   UNL     1      10.616  -0.275   1.489  1.00  0.00     0.208 C 
BRANCH  17  18
HETATM   18  C   UNL     1      10.810   0.398   2.823  1.00  0.00    -0.013 A 
HETATM   19  C   UNL     1      10.360  -0.275   3.977  1.00  0.00     0.011 A 
HETATM   20  C   UNL     1      10.474   0.303   5.241  1.00  0.00     0.001 A 
HETATM   21  C   UNL     1      11.045   1.563   5.377  1.00  0.00     0.002 A 
HETATM   22  C   UNL     1      11.509   2.240   4.249  1.00  0.00     0.024 A 
HETATM   23  C   UNL     1      11.397   1.662   2.978  1.00  0.00     0.042 A 
HETATM   24 CL   UNL     1      12.000   2.573   1.640  1.00  0.00    -0.084 Cl
ENDBRANCH  17  18
ENDBRANCH  16  17
ENDBRANCH  15  16
ENDBRANCH   1  15
TORSDOF 7
