REMARK  2 active torsions:
REMARK  status: ('A' for Active; 'I' for Inactive)
REMARK    1  A    between atoms: C_5  and  N_8 
REMARK       I    between atoms: N_8  and  C_9 
REMARK       I    between atoms: C_9  and  N_11 
REMARK    2  A    between atoms: N_11  and  C_12 
ROOT
HETATM    1  N   UNL     1       4.528  -0.724  -2.981  1.00  0.00    -0.338 N 
HETATM    2  C   UNL     1       5.113  -0.222  -4.125  1.00  0.00     0.322 C 
HETATM    3  O   UNL     1       4.468   0.351  -4.994  1.00  0.00    -0.247 OA
HETATM    4  N   UNL     1       6.455  -0.506  -4.174  1.00  0.00    -0.293 N 
HETATM    5  H   UNL     1       5.098  -0.655  -2.148  1.00  0.00     0.164 HD
HETATM    6  H   UNL     1       6.754  -1.362  -3.736  1.00  0.00     0.172 HD
ENDROOT
BRANCH   1   7
HETATM    7  C   UNL     1       3.075  -0.672  -2.816  1.00  0.00     0.089 C 
HETATM    8  C   UNL     1       2.572   0.726  -2.440  1.00  0.00     0.055 C 
HETATM    9  C   UNL     1       2.848   1.059  -0.972  1.00  0.00     0.274 C 
HETATM   10  N   UNL     1       2.363   0.046  -0.028  1.00  0.00     0.084 N 
HETATM   11  C   UNL     1       0.908   0.071   0.114  1.00  0.00     0.309 C 
HETATM   12  C   UNL     1       2.867  -1.291  -0.363  1.00  0.00     0.274 C 
HETATM   13  C   UNL     1       2.600  -1.718  -1.806  1.00  0.00     0.055 C 
ENDBRANCH   1   7
BRANCH   4  14
HETATM   14  C   UNL     1       7.216  -0.139  -5.262  1.00  0.00     0.132 A 
HETATM   15  C   UNL     1       7.071   1.009  -6.074  1.00  0.00     0.084 A 
HETATM   16  C   UNL     1       7.986   0.839  -7.080  1.00  0.00     0.076 A 
HETATM   17  C   UNL     1       8.318   1.601  -8.295  1.00  0.00     0.079 C 
HETATM   18  O   UNL     1       8.685  -0.305  -6.856  1.00  0.00    -0.241 OA
HETATM   19  N   UNL     1       8.237  -0.898  -5.684  1.00  0.00    -0.245 N 
ATOM     20  HN  UNL     1       8.607  -1.737  -5.237  1.00  0.00     0.196 HD
ENDBRANCH   4  14
TORSDOF 2
