REMARK  7 active torsions:
REMARK  status: ('A' for Active; 'I' for Inactive)
REMARK    1  A    between atoms: C_2  and  N_3 
REMARK    2  A    between atoms: C_7  and  N_9 
REMARK       I    between atoms: N_9  and  C_10 
REMARK    3  A    between atoms: C_10  and  C_12 
REMARK    4  A    between atoms: C_18  and  O_19 
REMARK    5  A    between atoms: O_19  and  C_20 
REMARK    6  A    between atoms: C_20  and  C_21 
REMARK    7  A    between atoms: C_21  and  O_22 
ROOT
HETATM    1  C   UNL     1      -2.343  -0.708  -4.367  1.00  0.00     0.083 A 
HETATM    2  C   UNL     1      -1.916  -0.500  -5.690  1.00  0.00     0.023 A 
HETATM    3  C   UNL     1      -2.561  -1.138  -6.743  1.00  0.00     0.018 A 
HETATM    4  C   UNL     1      -3.637  -1.952  -6.447  1.00  0.00     0.090 A 
HETATM    5  N   UNL     1      -4.086  -2.159  -5.191  1.00  0.00    -0.346 N 
ATOM      6  HN  UNL     1      -4.888  -2.764  -5.016  1.00  0.00     0.167 HD
HETATM    7  C   UNL     1      -3.443  -1.541  -4.164  1.00  0.00     0.158 A 
ENDROOT
BRANCH   1   8
HETATM    8  C   UNL     1      -1.617  -0.044  -3.254  1.00  0.00     0.256 C 
HETATM    9  N   UNL     1      -0.256   0.148  -3.459  1.00  0.00    -0.350 N 
HETATM   10  H   UNL     1       0.203  -0.362  -4.202  1.00  0.00     0.163 HD
HETATM   11  O   UNL     1      -2.191   0.316  -2.235  1.00  0.00    -0.268 OA
BRANCH   9  12
HETATM   12  C   UNL     1       0.588   0.720  -2.416  1.00  0.00     0.113 C 
HETATM   13  C   UNL     1       1.865   1.320  -3.016  1.00  0.00     0.029 C 
HETATM   14  C   UNL     1       2.781   1.851  -1.913  1.00  0.00     0.032 C 
HETATM   15  C   UNL     1       3.041   0.793  -0.831  1.00  0.00     0.272 C 
HETATM   16  N   UNL     1       1.822   0.187  -0.268  1.00  0.00     0.090 N 
HETATM   17  C   UNL     1       0.967  -0.332  -1.350  1.00  0.00     0.297 C 
BRANCH  16  18
HETATM   18  C   UNL     1       1.131   1.119   0.640  1.00  0.00     0.268 C 
HETATM   19  C   UNL     1      -0.122   0.552   1.302  1.00  0.00     0.037 C 
ENDBRANCH  16  18
ENDBRANCH   9  12
ENDBRANCH   1   8
BRANCH   7  20
HETATM   20  O   UNL     1      -3.932  -1.769  -2.890  1.00  0.00    -0.333 OA
BRANCH  20  21
HETATM   21  C   UNL     1      -4.690  -2.983  -2.812  1.00  0.00     0.203 C 
BRANCH  21  22
HETATM   22  C   UNL     1      -5.334  -3.163  -1.438  1.00  0.00     0.193 C 
BRANCH  22  23
HETATM   23  O   UNL     1      -5.947  -4.456  -1.415  1.00  0.00    -0.394 OA
HETATM   24  C   UNL     1      -6.603  -4.731  -0.189  1.00  0.00     0.201 C 
ENDBRANCH  22  23
ENDBRANCH  21  22
ENDBRANCH  20  21
ENDBRANCH   7  20
TORSDOF 7
