REMARK  2 active torsions:
REMARK  status: ('A' for Active; 'I' for Inactive)
REMARK    1  A    between atoms: N_1  and  C_2 
REMARK    2  A    between atoms: C_8  and  N_9 
ROOT
HETATM    1  C   UNL     1       3.347  -0.622   1.307  1.00  0.00     0.048 A 
HETATM    2  C   UNL     1       4.023   0.611   1.338  1.00  0.00     0.113 A 
HETATM    3  N   UNL     1       4.334   1.373   0.267  1.00  0.00    -0.373 N 
ATOM      4  HN  UNL     1       4.786   2.283   0.358  1.00  0.00     0.164 HD
HETATM    5  C   UNL     1       4.008   0.852  -0.923  1.00  0.00     0.090 A 
HETATM    6  C   UNL     1       3.401  -0.388  -1.080  1.00  0.00     0.048 A 
HETATM    7  C   UNL     1       3.058  -1.176   0.038  1.00  0.00     0.054 A 
ENDROOT
BRANCH   7   8
HETATM    8  N   UNL     1       2.504  -2.433  -0.200  1.00  0.00    -0.375 N 
HETATM    9  C   UNL     1       2.585  -3.562   0.740  1.00  0.00     0.149 C 
HETATM   10  C   UNL     1       2.552  -4.893  -0.038  1.00  0.00     0.187 C 
HETATM   11  O   UNL     1       1.416  -4.983  -0.915  1.00  0.00    -0.388 OA
HETATM   12  C   UNL     1       1.434  -3.896  -1.855  1.00  0.00     0.187 C 
HETATM   13  C   UNL     1       1.362  -2.543  -1.131  1.00  0.00     0.149 C 
ENDBRANCH   7   8
BRANCH   1  14
HETATM   14  N   UNL     1       3.144  -1.310   2.525  1.00  0.00    -0.300 NA
HETATM   15  H   UNL     1       3.144  -0.697   3.334  1.00  0.00     0.124 HD
HETATM   16  H   UNL     1       2.297  -1.864   2.487  1.00  0.00     0.124 HD
ENDBRANCH   1  14
TORSDOF 2
