REMARK  8 active torsions:
REMARK  status: ('A' for Active; 'I' for Inactive)
REMARK    1  A    between atoms: N_1  and  C_8 
REMARK    2  A    between atoms: C_6  and  N_9 
REMARK    3  A    between atoms: C_14  and  C_27 
REMARK    4  A    between atoms: C_14  and  C_28 
REMARK    5  A    between atoms: N_15  and  C_22 
REMARK       I    between atoms: N_15  and  C_19 
REMARK    6  A    between atoms: C_22  and  C_23 
REMARK    7  A    between atoms: C_27  and  O_29 
REMARK    8  A    between atoms: C_28  and  O_30 
ROOT
HETATM    1  N   UNL     1       1.619   1.181   0.041  1.00  0.00    -0.322 N 
HETATM    2  C   UNL     1       0.405  -0.626   0.092  1.00  0.00     0.122 A 
HETATM    3  C   UNL     1       0.311   0.764   0.051  1.00  0.00     0.140 A 
HETATM    4  N   UNL     1       1.727  -1.033   0.149  1.00  0.00    -0.346 N 
ATOM      5  HN  UNL     1       2.082  -1.987   0.209  1.00  0.00     0.167 HD
HETATM    6  C   UNL     1      -0.790  -1.388   0.073  1.00  0.00     0.135 A 
HETATM    7  C   UNL     1       2.420   0.073   0.109  1.00  0.00     0.185 A 
HETATM    8  N   UNL     1      -0.824   1.483   0.025  1.00  0.00    -0.336 N 
ATOM      9  HN  UNL     1      -0.863   2.502  -0.006  1.00  0.00     0.168 HD
HETATM   10  N   UNL     1      -1.956  -0.680   0.079  1.00  0.00    -0.337 N 
ATOM     11  HN  UNL     1      -2.854  -1.164   0.109  1.00  0.00     0.168 HD
HETATM   12  C   UNL     1      -1.907   0.676   0.045  1.00  0.00     0.183 A 
ENDROOT
BRANCH   6  13
HETATM   13  N   UNL     1      -0.784  -2.795   0.093  1.00  0.00    -0.365 N 
HETATM   14  C   UNL     1      -2.088  -3.451   0.195  1.00  0.00     0.125 C 
HETATM   15  C   UNL     1      -1.882  -4.945   0.502  1.00  0.00     0.026 C 
HETATM   16  C   UNL     1      -0.951  -5.645  -0.512  1.00  0.00     0.011 C 
HETATM   17  C   UNL     1       0.373  -4.863  -0.533  1.00  0.00     0.026 C 
HETATM   18  C   UNL     1       0.146  -3.394  -0.878  1.00  0.00     0.125 C 
BRANCH  16  19
HETATM   19  C   UNL     1      -1.564  -5.785  -1.932  1.00  0.00     0.084 C 
HETATM   20  C   UNL     1      -2.842  -6.626  -1.935  1.00  0.00     0.032 C 
BRANCH  19  21
HETATM   21  N   UNL     1      -0.596  -6.385  -2.851  1.00  0.00    -0.357 N 
HETATM   22  C   UNL     1      -0.599  -6.103  -4.200  1.00  0.00     0.213 C 
HETATM   23  O   UNL     1      -1.350  -5.289  -4.726  1.00  0.00    -0.274 OA
HETATM   24  C   UNL     1       0.450  -6.844  -4.986  1.00  0.00     0.117 C 
HETATM   25  H   UNL     1      -0.051  -7.172  -2.524  1.00  0.00     0.162 HD
ENDBRANCH  19  21
ENDBRANCH  16  19
ENDBRANCH   6  13
BRANCH   1  26
HETATM   26  C   UNL     1       2.225   2.476   0.023  1.00  0.00     0.094 C 
HETATM   27  C   UNL     1       1.790   3.416   1.184  1.00  0.00     0.039 C 
HETATM   28  C   UNL     1       2.078   4.601   0.196  1.00  0.00     0.006 C 
HETATM   29  C   UNL     1       1.647   3.562  -0.914  1.00  0.00     0.039 C 
BRANCH  28  30
HETATM   30  C   UNL     1       1.151   5.800   0.383  1.00  0.00     0.175 C 
BRANCH  30  31
HETATM   31  O   UNL     1       1.207   6.644  -0.762  1.00  0.00    -0.400 OA
HETATM   32  H   UNL     1       2.151   6.854  -0.919  1.00  0.00     0.209 HD
ENDBRANCH  30  31
ENDBRANCH  28  30
BRANCH  28  33
HETATM   33  C   UNL     1       3.556   5.040   0.216  1.00  0.00     0.175 C 
BRANCH  33  34
HETATM   34  O   UNL     1       3.862   5.754  -0.977  1.00  0.00    -0.400 OA
HETATM   35  H   UNL     1       4.001   5.096  -1.683  1.00  0.00     0.209 HD
ENDBRANCH  33  34
ENDBRANCH  28  33
ENDBRANCH   1  26
TORSDOF 8
