REMARK  9 active torsions:
REMARK  status: ('A' for Active; 'I' for Inactive)
REMARK    1  A    between atoms: N_1  and  C_3 
REMARK    2  A    between atoms: N_2  and  C_5 
REMARK       I    between atoms: N_2  and  C_12 
REMARK       I    between atoms: N_2  and  C_13 
REMARK    3  A    between atoms: C_9  and  O_30 
REMARK    4  A    between atoms: C_12  and  C_26 
REMARK    5  A    between atoms: C_13  and  C_27 
REMARK    6  A    between atoms: C_15  and  C_25 
REMARK    7  A    between atoms: C_20  and  O_22 
REMARK    8  A    between atoms: C_20  and  C_29 
REMARK    9  A    between atoms: O_22  and  C_25 
ROOT
HETATM    1  N   UNL     1       1.102   1.535  -0.132  1.00  0.00    -0.297 N 
HETATM    2  C   UNL     1       0.112  -0.419  -0.351  1.00  0.00     0.123 A 
HETATM    3  C   UNL     1      -0.969  -1.339  -0.211  1.00  0.00     0.149 A 
HETATM    4  C   UNL     1      -0.137   0.934  -0.098  1.00  0.00     0.142 A 
HETATM    5  N   UNL     1       1.439  -0.586  -0.675  1.00  0.00    -0.346 N 
ATOM      6  HN  UNL     1       1.880  -1.420  -1.063  1.00  0.00     0.167 HD
HETATM    7  C   UNL     1       2.016   0.552  -0.380  1.00  0.00     0.188 C 
HETATM    8  N   UNL     1      -2.192  -0.801   0.073  1.00  0.00    -0.336 N 
ATOM      9  HN  UNL     1      -3.011  -1.401   0.174  1.00  0.00     0.168 HD
HETATM   10  N   UNL     1      -1.334   1.487   0.168  1.00  0.00    -0.336 N 
ATOM     11  HN  UNL     1      -1.489   2.485   0.312  1.00  0.00     0.168 HD
HETATM   12  C   UNL     1      -2.302   0.549   0.219  1.00  0.00     0.183 A 
ENDROOT
BRANCH   1  13
HETATM   13  C   UNL     1       1.433   2.941   0.045  1.00  0.00     0.262 C 
HETATM   14  C   UNL     1       2.246   3.535  -1.120  1.00  0.00     0.204 C 
HETATM   15  C   UNL     1       3.399   4.279  -0.459  1.00  0.00     0.234 C 
HETATM   16  F   UNL     1       3.482   5.535  -0.962  1.00  0.00    -0.244 F 
HETATM   17  C   UNL     1       3.092   4.249   1.032  1.00  0.00     0.185 C 
HETATM   18  O   UNL     1       2.256   3.088   1.225  1.00  0.00    -0.353 OA
BRANCH  14  19
HETATM   19  O   UNL     1       1.438   4.400  -1.923  1.00  0.00    -0.388 OA
HETATM   20  H   UNL     1       1.821   5.299  -1.864  1.00  0.00     0.210 HD
ENDBRANCH  14  19
BRANCH  17  21
HETATM   21  C   UNL     1       2.379   5.512   1.537  1.00  0.00     0.214 C 
BRANCH  21  22
HETATM   22  O   UNL     1       3.162   6.699   1.328  1.00  0.00    -0.315 OA
BRANCH  22  23
HETATM   23  C   UNL     1       4.073   6.987   2.288  1.00  0.00     0.293 C 
HETATM   24  O   UNL     1       4.266   6.344   3.303  1.00  0.00    -0.259 OA
BRANCH  23  25
HETATM   25  C   UNL     1       4.819   8.223   1.941  1.00  0.00     0.039 A 
HETATM   26  C   UNL     1       4.999   8.632   0.615  1.00  0.00     0.017 A 
HETATM   27  C   UNL     1       5.745   9.784   0.333  1.00  0.00     0.001 A 
HETATM   28  C   UNL     1       6.302  10.526   1.372  1.00  0.00     0.000 A 
HETATM   29  C   UNL     1       6.122  10.124   2.696  1.00  0.00     0.001 A 
HETATM   30  C   UNL     1       5.385   8.974   2.979  1.00  0.00     0.017 A 
ENDBRANCH  23  25
ENDBRANCH  22  23
ENDBRANCH  21  22
ENDBRANCH  17  21
ENDBRANCH   1  13
BRANCH   3  31
HETATM   31  N   UNL     1      -0.755  -2.772  -0.288  1.00  0.00    -0.226 N 
HETATM   32  C   UNL     1      -1.769  -3.715  -0.069  1.00  0.00     0.266 C 
HETATM   33  O   UNL     1      -1.579  -4.658   0.716  1.00  0.00    -0.267 OA
HETATM   34  C   UNL     1       0.524  -3.196   0.127  1.00  0.00     0.266 C 
HETATM   35  O   UNL     1       1.176  -2.620   1.005  1.00  0.00    -0.267 OA
BRANCH  32  36
HETATM   36  C   UNL     1      -3.103  -3.779  -0.767  1.00  0.00     0.033 C 
HETATM   37  C   UNL     1      -3.750  -2.748  -1.443  1.00  0.00     0.017 C 
HETATM   38  C   UNL     1      -5.103  -2.871  -1.802  1.00  0.00     0.001 C 
HETATM   39  C   UNL     1      -5.795  -4.064  -1.596  1.00  0.00     0.000 C 
HETATM   40  C   UNL     1      -5.122  -5.159  -1.077  1.00  0.00     0.001 C 
HETATM   41  C   UNL     1      -3.795  -5.013  -0.665  1.00  0.00     0.017 C 
ENDBRANCH  32  36
BRANCH  34  42
HETATM   42  C   UNL     1       1.085  -4.503  -0.374  1.00  0.00     0.033 A 
HETATM   43  C   UNL     1       0.524  -5.255  -1.414  1.00  0.00     0.017 A 
HETATM   44  C   UNL     1       1.023  -6.530  -1.708  1.00  0.00     0.001 A 
HETATM   45  C   UNL     1       2.117  -7.040  -1.008  1.00  0.00     0.000 A 
HETATM   46  C   UNL     1       2.729  -6.270  -0.024  1.00  0.00     0.001 A 
HETATM   47  C   UNL     1       2.216  -5.011   0.290  1.00  0.00     0.017 A 
ENDBRANCH  34  42
ENDBRANCH   3  31
TORSDOF 9
