REMARK  5 active torsions:
REMARK  status: ('A' for Active; 'I' for Inactive)
REMARK    1  A    between atoms: C_2  and  C_4 
REMARK    2  A    between atoms: C_6  and  N_15 
REMARK    3  A    between atoms: C_9  and  C_12 
REMARK    4  A    between atoms: C_19  and  C_20 
REMARK    5  A    between atoms: C_20  and  N_21 
REMARK       I    between atoms: N_21  and  C_22 
ROOT
HETATM    1  C   UNL     1       2.989   0.717   1.228  1.00  0.00     0.017 A 
HETATM    2  C   UNL     1       3.551   0.038   2.290  1.00  0.00     0.073 A 
HETATM    3  C   UNL     1       3.961   0.768   3.389  1.00  0.00     0.106 A 
HETATM    4  N   UNL     1       3.817   2.109   3.411  1.00  0.00    -0.332 N 
ATOM      5  HN  UNL     1       4.144   2.659   4.205  1.00  0.00     0.168 HD
HETATM    6  C   UNL     1       3.228   2.700   2.352  1.00  0.00     0.086 A 
HETATM    7  N   UNL     1       2.814   2.050   1.251  1.00  0.00    -0.349 N 
ATOM      8  HN  UNL     1       2.387   2.545   0.468  1.00  0.00     0.167 HD
ENDROOT
BRANCH   3   9
HETATM    9  N   UNL     1       4.474   0.155   4.506  1.00  0.00    -0.363 N 
HETATM   10  C   UNL     1       4.139  -1.208   4.913  1.00  0.00     0.150 C 
HETATM   11  C   UNL     1       3.955  -1.237   6.440  1.00  0.00     0.188 C 
HETATM   12  O   UNL     1       5.103  -0.717   7.130  1.00  0.00    -0.381 OA
HETATM   13  C   UNL     1       5.365   0.656   6.733  1.00  0.00     0.157 C 
HETATM   14  C   UNL     1       5.604   0.758   5.213  1.00  0.00     0.158 C 
BRANCH  13  15
HETATM   15  C   UNL     1       6.607   1.132   7.492  1.00  0.00     0.156 C 
BRANCH  15  16
HETATM   16  N   UNL     1       6.380   1.159   8.928  1.00  0.00    -0.359 N 
HETATM   17  C   UNL     1       7.360   1.622   9.774  1.00  0.00     0.213 C 
HETATM   18  O   UNL     1       8.425   2.090   9.386  1.00  0.00    -0.274 OA
HETATM   19  C   UNL     1       7.012   1.525  11.235  1.00  0.00     0.117 C 
HETATM   20  H   UNL     1       5.710   0.491   9.290  1.00  0.00     0.162 HD
ENDBRANCH  15  16
ENDBRANCH  13  15
ENDBRANCH   3   9
BRANCH   1  21
HETATM   21  C   UNL     1       2.532  -0.037  -0.003  1.00  0.00     0.027 C 
HETATM   22  C   UNL     1       1.044   0.204  -0.256  1.00  0.00     0.016 C 
HETATM   23  C   UNL     1       3.371   0.351  -1.219  1.00  0.00     0.016 C 
ENDBRANCH   1  21
BRANCH   6  24
HETATM   24  C   UNL     1       2.936   4.185   2.407  1.00  0.00     0.045 C 
HETATM   25  C   UNL     1       1.980   4.520   3.552  1.00  0.00     0.017 C 
HETATM   26  C   UNL     1       4.216   5.011   2.497  1.00  0.00     0.017 C 
ENDBRANCH   6  24
TORSDOF 5
