REMARK  4 active torsions:
REMARK  status: ('A' for Active; 'I' for Inactive)
REMARK    1  A    between atoms: O_2  and  C_3 
REMARK    2  A    between atoms: C_9  and  N_10 
REMARK       I    between atoms: N_10  and  C_11 
REMARK       I    between atoms: C_11  and  N_13 
REMARK    3  A    between atoms: N_13  and  C_14 
REMARK    4  A    between atoms: C_14  and  C_15 
ROOT
HETATM    1  N   UNL     1       1.501  -2.555  -0.024  1.00  0.00    -0.305 N 
HETATM    2  C   UNL     1       0.930  -1.930   1.061  1.00  0.00     0.320 C 
HETATM    3  O   UNL     1       1.535  -1.287   1.913  1.00  0.00    -0.247 OA
HETATM    4  N   UNL     1      -0.438  -2.108   1.128  1.00  0.00    -0.342 N 
HETATM    5  H   UNL     1       1.014  -3.354  -0.414  1.00  0.00     0.171 HD
HETATM    6  H   UNL     1      -0.897  -2.209   0.232  1.00  0.00     0.164 HD
ENDROOT
BRANCH   1   7
HETATM    7  C   UNL     1       2.870  -2.433  -0.386  1.00  0.00     0.087 A 
HETATM    8  C   UNL     1       3.492  -3.394  -1.192  1.00  0.00     0.169 A 
HETATM    9  N   UNL     1       4.796  -3.343  -1.567  1.00  0.00    -0.345 N 
HETATM   10  C   UNL     1       5.523  -2.305  -1.108  1.00  0.00     0.090 A 
ATOM     11  HN  UNL     1       5.207  -4.057  -2.168  1.00  0.00     0.167 HD
HETATM   12  C   UNL     1       5.007  -1.302  -0.311  1.00  0.00     0.019 A 
HETATM   13  C   UNL     1       3.662  -1.363   0.038  1.00  0.00     0.035 A 
BRANCH   8  14
HETATM   14  O   UNL     1       2.731  -4.474  -1.614  1.00  0.00    -0.339 OA
HETATM   15  C   UNL     1       3.552  -5.555  -2.061  1.00  0.00     0.211 C 
ENDBRANCH   8  14
ENDBRANCH   1   7
BRANCH   4  16
HETATM   16  C   UNL     1      -1.167  -1.394   2.165  1.00  0.00     0.131 C 
BRANCH  16  17
HETATM   17  C   UNL     1      -2.424  -2.112   2.626  1.00  0.00     0.029 C 
HETATM   18  C   UNL     1      -3.139  -1.388   3.758  1.00  0.00     0.034 C 
HETATM   19  C   UNL     1      -3.699  -2.497   4.631  1.00  0.00     0.168 C 
HETATM   20  O   UNL     1      -3.280  -3.744   4.066  1.00  0.00    -0.391 OA
HETATM   21  C   UNL     1      -2.144  -3.471   3.239  1.00  0.00     0.173 C 
ENDBRANCH  16  17
ENDBRANCH   4  16
TORSDOF 4
