REMARK  7 active torsions:
REMARK  status: ('A' for Active; 'I' for Inactive)
REMARK    1  A    between atoms: C_2  and  C_3 
REMARK    2  A    between atoms: C_3  and  N_4 
REMARK    3  A    between atoms: N_4  and  C_6 
REMARK    4  A    between atoms: C_6  and  C_7 
REMARK    5  A    between atoms: C_7  and  O_8 
REMARK    6  A    between atoms: C_7  and  C_9 
REMARK    7  A    between atoms: C_9  and  N_10 
ROOT
HETATM    1  C   UNL     1       2.080  -0.634   3.591  1.00  0.00     0.027 C 
HETATM    2  C   UNL     1       1.731  -0.900   2.122  1.00  0.00     0.117 C 
HETATM    3  C   UNL     1       0.298  -1.211   2.020  1.00  0.00     0.065 C 
HETATM    4  N   UNL     1      -0.841  -1.404   1.945  1.00  0.00    -0.197 NA
ENDROOT
BRANCH   2   5
HETATM    5  C   UNL     1       2.596  -2.063   1.589  1.00  0.00     0.290 C 
BRANCH   5   6
HETATM    6  N   UNL     1       2.360  -2.487   0.191  1.00  0.00     0.088 N 
HETATM    7  C   UNL     1       2.692  -1.430  -0.765  1.00  0.00     0.310 C 
BRANCH   6   8
HETATM    8  C   UNL     1       3.068  -3.755  -0.128  1.00  0.00     0.305 C 
BRANCH   8   9
HETATM    9  C   UNL     1       2.517  -4.968   0.677  1.00  0.00     0.164 C 
BRANCH   9  10
HETATM   10  O   UNL     1       1.121  -5.140   0.398  1.00  0.00    -0.392 OA
HETATM   11  H   UNL     1       0.942  -4.857  -0.514  1.00  0.00     0.210 HD
ENDBRANCH   9  10
BRANCH   9  12
HETATM   12  C   UNL     1       3.245  -6.286   0.391  1.00  0.00     0.163 C 
BRANCH  12  13
HETATM   13  N   UNL     1       2.721  -7.356   1.233  1.00  0.00    -0.339 N 
HETATM   14  C   UNL     1       1.670  -8.163   0.875  1.00  0.00     0.184 A 
HETATM   15  N   UNL     1       1.391  -9.045   1.804  1.00  0.00    -0.350 N 
HETATM   16  C   UNL     1       2.258  -8.767   2.827  1.00  0.00     0.060 A 
ATOM     17  HN  UNL     1       0.683  -9.778   1.772  1.00  0.00     0.166 HD
HETATM   18  C   UNL     1       2.370  -9.386   4.080  1.00  0.00     0.039 A 
HETATM   19  C   UNL     1       3.104  -7.706   2.506  1.00  0.00     0.062 A 
HETATM   20  C   UNL     1       3.330  -8.935   5.005  1.00  0.00    -0.054 A 
HETATM   21  C   UNL     1       3.424  -9.646   6.329  1.00  0.00     0.049 C 
HETATM   22  C   UNL     1       4.166  -7.847   4.672  1.00  0.00    -0.054 A 
HETATM   23  C   UNL     1       5.184  -7.292   5.634  1.00  0.00     0.049 C 
HETATM   24  C   UNL     1       4.060  -7.218   3.408  1.00  0.00     0.039 A 
ENDBRANCH  12  13
ENDBRANCH   9  12
ENDBRANCH   8   9
ENDBRANCH   6   8
ENDBRANCH   5   6
ENDBRANCH   2   5
TORSDOF 7
