REMARK  6 active torsions:
REMARK  status: ('A' for Active; 'I' for Inactive)
REMARK    1  A    between atoms: C_5  and  N_6 
REMARK       I    between atoms: N_6  and  C_7 
REMARK       I    between atoms: C_7  and  N_9 
REMARK    2  A    between atoms: N_9  and  C_10 
REMARK    3  A    between atoms: C_10  and  C_11 
REMARK    4  A    between atoms: C_10  and  C_14 
REMARK    5  A    between atoms: C_11  and  C_12 
REMARK    6  A    between atoms: C_12  and  O_13 
ROOT
HETATM    1  N   UNL     1       6.225  -1.842   0.982  1.00  0.00    -0.289 N 
HETATM    2  C   UNL     1       5.963  -3.184   1.081  1.00  0.00     0.322 C 
HETATM    3  O   UNL     1       5.292  -3.737   1.944  1.00  0.00    -0.247 OA
HETATM    4  N   UNL     1       6.544  -3.899   0.053  1.00  0.00    -0.338 N 
HETATM    5  H   UNL     1       6.926  -1.498   0.352  1.00  0.00     0.172 HD
HETATM    6  H   UNL     1       7.171  -3.437  -0.584  1.00  0.00     0.164 HD
ENDROOT
BRANCH   1   7
HETATM    7  C   UNL     1       5.665  -0.936   1.841  1.00  0.00     0.152 A 
HETATM    8  S   UNL     1       6.314   0.639   1.730  1.00  0.00    -0.064 SA
HETATM    9  C   UNL     1       5.256   1.141   2.985  1.00  0.00     0.077 A 
HETATM   10  C   UNL     1       4.449   0.087   3.372  1.00  0.00     0.014 A 
HETATM   11  C   UNL     1       3.370   0.107   4.390  1.00  0.00     0.068 C 
HETATM   12  N   UNL     1       4.704  -1.103   2.712  1.00  0.00    -0.340 N 
ATOM     13  HN  UNL     1       4.214  -1.982   2.880  1.00  0.00     0.167 HD
ENDBRANCH   1   7
BRANCH   4  14
HETATM   14  C   UNL     1       6.434  -5.350  -0.028  1.00  0.00     0.092 C 
BRANCH  14  15
HETATM   15  C   UNL     1       5.677  -5.784  -1.288  1.00  0.00     0.051 C 
BRANCH  15  16
HETATM   16  C   UNL     1       4.247  -5.259  -1.335  1.00  0.00     0.166 C 
BRANCH  16  17
HETATM   17  O   UNL     1       3.606  -5.748  -2.511  1.00  0.00    -0.401 OA
HETATM   18  H   UNL     1       4.033  -5.325  -3.274  1.00  0.00     0.209 HD
ENDBRANCH  16  17
ENDBRANCH  15  16
ENDBRANCH  14  15
BRANCH  14  19
HETATM   19  C   UNL     1       7.833  -5.911   0.097  1.00  0.00     0.008 A 
HETATM   20  C   UNL     1       8.914  -5.608  -0.917  1.00  0.00     0.007 A 
HETATM   21  C   UNL     1       8.392  -7.011  -0.779  1.00  0.00     0.007 A 
ENDBRANCH  14  19
ENDBRANCH   4  14
TORSDOF 6
