REMARK  5 active torsions:
REMARK  status: ('A' for Active; 'I' for Inactive)
REMARK    1  A    between atoms: C_4  and  N_5 
REMARK       I    between atoms: N_5  and  C_6 
REMARK       I    between atoms: C_6  and  N_8 
REMARK    2  A    between atoms: N_8  and  C_9 
REMARK    3  A    between atoms: C_9  and  C_11 
REMARK    4  A    between atoms: C_9  and  C_13 
REMARK    5  A    between atoms: C_11  and  O_12 
ROOT
HETATM    1  N   UNL     1       6.329   1.461  -0.201  1.00  0.00    -0.293 N 
HETATM    2  C   UNL     1       6.334   2.794  -0.706  1.00  0.00     0.322 C 
HETATM    3  O   UNL     1       6.294   3.029  -1.900  1.00  0.00    -0.247 OA
HETATM    4  N   UNL     1       6.489   3.689   0.297  1.00  0.00    -0.331 N 
HETATM    5  H   UNL     1       6.550   1.303   0.767  1.00  0.00     0.172 HD
HETATM    6  H   UNL     1       6.249   3.410   1.239  1.00  0.00     0.165 HD
ENDROOT
BRANCH   4   7
HETATM    7  C   UNL     1       6.781   5.133   0.121  1.00  0.00     0.055 C 
HETATM    8  C   UNL     1       6.045   5.731  -1.108  1.00  0.00     0.041 C 
BRANCH   7   9
HETATM    9  C   UNL     1       6.186   5.852   1.378  1.00  0.00     0.195 C 
BRANCH   9  10
HETATM   10  O   UNL     1       4.839   5.430   1.611  1.00  0.00    -0.398 OA
HETATM   11  H   UNL     1       4.275   5.828   0.925  1.00  0.00     0.209 HD
ENDBRANCH   9  10
ENDBRANCH   7   9
BRANCH   7  12
HETATM   12  C   UNL     1       8.334   5.446   0.012  1.00  0.00     0.015 C 
HETATM   13  C   UNL     1       9.098   4.806  -1.170  1.00  0.00     0.007 C 
HETATM   14  C   UNL     1       9.533   3.352  -0.976  1.00  0.00     0.000 C 
HETATM   15  C   UNL     1      10.062   3.003   0.414  1.00  0.00     0.000 C 
HETATM   16  C   UNL     1       9.361   3.707   1.569  1.00  0.00     0.000 C 
HETATM   17  C   UNL     1       9.168   5.188   1.283  1.00  0.00     0.007 C 
ENDBRANCH   7  12
ENDBRANCH   4   7
BRANCH   1  18
HETATM   18  C   UNL     1       6.181   0.367  -1.050  1.00  0.00     0.127 A 
HETATM   19  C   UNL     1       5.682   0.383  -2.336  1.00  0.00     0.076 A 
HETATM   20  C   UNL     1       5.752  -0.941  -2.801  1.00  0.00     0.025 A 
HETATM   21  C   UNL     1       5.357  -1.428  -4.146  1.00  0.00     0.070 C 
HETATM   22  N   UNL     1       6.228  -1.765  -1.864  1.00  0.00    -0.302 N 
HETATM   23  N   UNL     1       6.485  -0.955  -0.812  1.00  0.00    -0.281 N 
ATOM     24  HN  UNL     1       6.366  -2.774  -1.927  1.00  0.00     0.186 HD
HETATM   25  C   UNL     1       7.091  -1.545   0.356  1.00  0.00     0.179 C 
ENDBRANCH   1  18
TORSDOF 5
