REMARK  3 active torsions:
REMARK  status: ('A' for Active; 'I' for Inactive)
REMARK    1  A    between atoms: O_2  and  C_3 
REMARK    2  A    between atoms: C_7  and  N_8 
REMARK       I    between atoms: N_8  and  C_9 
REMARK       I    between atoms: C_9  and  N_11 
REMARK    3  A    between atoms: N_11  and  C_12 
ROOT
HETATM    1  N   UNL     1       1.149   2.302   1.226  1.00  0.00    -0.336 N 
HETATM    2  C   UNL     1      -0.106   1.740   1.177  1.00  0.00     0.322 C 
HETATM    3  O   UNL     1      -0.769   1.676   0.147  1.00  0.00    -0.247 OA
HETATM    4  N   UNL     1      -0.543   1.334   2.417  1.00  0.00    -0.295 N 
HETATM    5  H   UNL     1       1.760   1.928   1.940  1.00  0.00     0.164 HD
HETATM    6  H   UNL     1      -0.434   2.038   3.133  1.00  0.00     0.172 HD
ENDROOT
BRANCH   1   7
HETATM    7  C   UNL     1       1.759   2.834   0.011  1.00  0.00     0.115 C 
HETATM    8  C   UNL     1       2.729   1.882  -0.724  1.00  0.00     0.143 C 
HETATM    9  C   UNL     1       4.050   2.033   0.033  1.00  0.00     0.034 C 
HETATM   10  C   UNL     1       4.021   3.411   0.684  1.00  0.00     0.005 C 
HETATM   11  C   UNL     1       2.666   4.022   0.338  1.00  0.00     0.028 C 
BRANCH   8  12
HETATM   12  O   UNL     1       2.387   0.503  -0.765  1.00  0.00    -0.389 OA
HETATM   13  C   UNL     1       1.333   0.190  -1.665  1.00  0.00     0.202 C 
ENDBRANCH   8  12
ENDBRANCH   1   7
BRANCH   4  14
HETATM   14  C   UNL     1      -1.756   0.639   2.541  1.00  0.00     0.109 A 
HETATM   15  C   UNL     1      -2.017  -0.474   1.748  1.00  0.00     0.055 A 
HETATM   16  C   UNL     1      -3.244  -1.122   1.871  1.00  0.00    -0.057 A 
HETATM   17  C   UNL     1      -3.569  -2.335   1.054  1.00  0.00     0.048 C 
HETATM   18  C   UNL     1      -4.179  -0.599   2.765  1.00  0.00     0.031 A 
HETATM   19  C   UNL     1      -3.834   0.511   3.535  1.00  0.00     0.007 A 
HETATM   20  C   UNL     1      -4.845   1.140   4.447  1.00  0.00     0.068 C 
HETATM   21  N   UNL     1      -2.618   1.107   3.467  1.00  0.00    -0.346 N 
ATOM     22  HN  UNL     1      -2.366   1.875   4.089  1.00  0.00     0.167 HD
ENDBRANCH   4  14
TORSDOF 3
