REMARK  1 active torsions:
REMARK  status: ('A' for Active; 'I' for Inactive)
REMARK       I    between atoms: N_8  and  C_9 
REMARK       I    between atoms: C_9  and  N_11 
REMARK    1  A    between atoms: N_11  and  C_12 
ROOT
HETATM    1  C   UNL     1       3.596   1.439  -2.833  1.00  0.00     0.078 C 
HETATM    2  C   UNL     1       4.729   1.237  -1.900  1.00  0.00     0.066 A 
HETATM    3  N   UNL     1       5.619   0.276  -2.026  1.00  0.00    -0.296 N 
ATOM      4  HN  UNL     1       5.585  -0.442  -2.749  1.00  0.00     0.187 HD
HETATM    5  N   UNL     1       6.595   0.356  -1.070  1.00  0.00    -0.279 N 
ATOM      6  HN  UNL     1       7.380  -0.292  -1.002  1.00  0.00     0.189 HD
HETATM    7  C   UNL     1       6.404   1.366  -0.249  1.00  0.00     0.169 A 
HETATM    8  N   UNL     1       7.215   1.771   0.772  1.00  0.00    -0.288 N 
HETATM    9  C   UNL     1       8.480   1.300   0.975  1.00  0.00     0.322 C 
HETATM   10  O   UNL     1       9.162   1.765   1.886  1.00  0.00    -0.247 OA
HETATM   11  N   UNL     1       8.946   0.378   0.081  1.00  0.00    -0.338 N 
HETATM   12  S   UNL     1       4.998   2.278  -0.551  1.00  0.00    -0.038 SA
HETATM   13  H   UNL     1       6.922   2.539   1.359  1.00  0.00     0.172 HD
HETATM   14  H   UNL     1       8.266  -0.067  -0.530  1.00  0.00     0.164 HD
ENDROOT
BRANCH  11  15
HETATM   15  C   UNL     1      10.326  -0.069   0.003  1.00  0.00     0.086 C 
HETATM   16  C   UNL     1      10.710  -0.318  -1.464  1.00  0.00     0.025 C 
HETATM   17  C   UNL     1      10.240  -1.665  -2.009  1.00  0.00     0.002 C 
HETATM   18  C   UNL     1      10.691  -2.806  -1.107  1.00  0.00     0.000 C 
HETATM   19  C   UNL     1      10.151  -2.619   0.305  1.00  0.00     0.002 C 
HETATM   20  C   UNL     1      10.576  -1.281   0.908  1.00  0.00     0.025 C 
ENDBRANCH  11  15
TORSDOF 1
