REMARK  3 active torsions:
REMARK  status: ('A' for Active; 'I' for Inactive)
REMARK       I    between atoms: C_2  and  N_3 
REMARK       I    between atoms: C_2  and  N_10 
REMARK    1  A    between atoms: N_3  and  C_4 
REMARK    2  A    between atoms: C_4  and  C_5 
REMARK    3  A    between atoms: N_10  and  C_11 
ROOT
HETATM    1  O   UNL     1       1.028  -0.219   0.088  1.00  0.00    -0.247 OA
HETATM    2  C   UNL     1       2.253  -0.261   0.139  1.00  0.00     0.320 C 
HETATM    3  N   UNL     1       3.014  -0.879  -0.830  1.00  0.00    -0.340 N 
HETATM    4  N   UNL     1       3.038   0.271   1.135  1.00  0.00    -0.306 N 
HETATM    5  H   UNL     1       3.901  -0.433  -1.025  1.00  0.00     0.164 HD
HETATM    6  H   UNL     1       4.011   0.011   1.161  1.00  0.00     0.171 HD
ENDROOT
BRANCH   3   7
HETATM    7  C   UNL     1       2.345  -1.400  -2.014  1.00  0.00     0.156 C 
BRANCH   7   8
HETATM    8  C   UNL     1       3.305  -2.105  -2.969  1.00  0.00     0.139 C 
HETATM    9  C   UNL     1       4.011  -3.326  -2.398  1.00  0.00     0.035 C 
HETATM   10  C   UNL     1       5.397  -3.284  -3.011  1.00  0.00     0.029 C 
HETATM   11  C   UNL     1       5.406  -2.039  -3.874  1.00  0.00     0.168 C 
HETATM   12  O   UNL     1       4.359  -1.208  -3.367  1.00  0.00    -0.384 OA
ENDBRANCH   7   8
ENDBRANCH   3   7
BRANCH   4  13
HETATM   13  C   UNL     1       2.549   1.042   2.171  1.00  0.00     0.070 A 
HETATM   14  C   UNL     1       1.247   1.521   2.441  1.00  0.00     0.138 A 
HETATM   15  N   UNL     1       1.198   2.267   3.551  1.00  0.00    -0.310 N 
HETATM   16  N   UNL     1       2.466   2.261   3.988  1.00  0.00    -0.310 N 
ATOM     17  HN  UNL     1       0.389   2.730   3.966  1.00  0.00     0.186 HD
HETATM   18  C   UNL     1       3.315   1.536   3.200  1.00  0.00     0.138 A 
HETATM   19  H   UNL     1       2.682   2.779   4.834  1.00  0.00     0.186 HD
ENDBRANCH   4  13
TORSDOF 3
