REMARK  4 active torsions:
REMARK  status: ('A' for Active; 'I' for Inactive)
REMARK    1  A    between atoms: C_6  and  O_8 
REMARK    2  A    between atoms: O_8  and  C_9 
REMARK    3  A    between atoms: C_9  and  C_10 
REMARK       I    between atoms: C_10  and  N_12 
REMARK    4  A    between atoms: N_12  and  C_13 
ROOT
HETATM    1  C   UNL     1       3.445  -4.747  -3.949  1.00  0.00     0.246 C 
HETATM    2  O   UNL     1       4.029  -4.886  -5.020  1.00  0.00    -0.271 OA
HETATM    3  N   UNL     1       3.252  -5.724  -2.998  1.00  0.00    -0.311 N 
HETATM    4  H   UNL     1       3.370  -5.400  -2.045  1.00  0.00     0.170 HD
ENDROOT
BRANCH   1   5
HETATM    5  C   UNL     1       2.807  -3.417  -3.576  1.00  0.00     0.271 C 
BRANCH   5   6
HETATM    6  O   UNL     1       3.256  -2.913  -2.326  1.00  0.00    -0.377 OA
BRANCH   6   7
HETATM    7  C   UNL     1       2.668  -1.646  -1.987  1.00  0.00     0.122 C 
HETATM    8  C   UNL     1       3.057  -0.546  -2.986  1.00  0.00     0.032 C 
HETATM    9  C   UNL     1       2.602   0.839  -2.548  1.00  0.00     0.003 C 
HETATM   10  C   UNL     1       3.087   1.172  -1.143  1.00  0.00     0.004 C 
HETATM   11  C   UNL     1       2.697   0.105  -0.112  1.00  0.00    -0.016 C 
HETATM   12  C   UNL     1       1.197   0.137   0.195  1.00  0.00     0.010 C 
HETATM   13  C   UNL     1       3.151  -1.286  -0.576  1.00  0.00     0.036 C 
ENDBRANCH   6   7
ENDBRANCH   5   6
ENDBRANCH   1   5
BRANCH   3  14
HETATM   14  C   UNL     1       3.636  -7.057  -3.182  1.00  0.00     0.113 A 
HETATM   15  N   UNL     1       4.313  -7.568  -2.130  1.00  0.00    -0.352 N 
HETATM   16  C   UNL     1       4.760  -8.838  -2.235  1.00  0.00     0.089 A 
ATOM     17  HN  UNL     1       4.480  -7.016  -1.289  1.00  0.00     0.166 HD
HETATM   18  C   UNL     1       4.503  -9.655  -3.317  1.00  0.00     0.018 A 
HETATM   19  C   UNL     1       3.743  -9.138  -4.358  1.00  0.00     0.012 A 
HETATM   20  C   UNL     1       3.284  -7.815  -4.307  1.00  0.00    -0.018 A 
HETATM   21  C   UNL     1       2.398  -7.319  -5.413  1.00  0.00     0.052 C 
ENDBRANCH   3  14
TORSDOF 4
