REMARK  2 active torsions:
REMARK  status: ('A' for Active; 'I' for Inactive)
REMARK    1  A    between atoms: C_6  and  C_9 
REMARK    2  A    between atoms: C_12  and  C_16 
ROOT
HETATM    1  C   UNL     2      -0.672  -1.023   2.012  1.00  0.00     0.179 A 
HETATM    2  N   UNL     2      -0.649   0.104   2.740  1.00  0.00    -0.324 N 
ATOM      3  HN  UNL     2      -0.524   1.066   2.424  1.00  0.00     0.169 HD
HETATM    4  C   UNL     2      -0.833  -0.354   3.991  1.00  0.00     0.108 A 
HETATM    5  N   UNL     2      -0.952  -1.696   4.017  1.00  0.00    -0.247 N 
ATOM      6  HN  UNL     2      -1.093  -2.289   4.835  1.00  0.00     0.196 HD
HETATM    7  O   UNL     2      -0.849  -2.074   2.779  1.00  0.00    -0.220 OA
ENDROOT
BRANCH   1   8
HETATM    8  C   UNL     2      -0.542  -1.046   0.510  1.00  0.00     0.226 C 
HETATM    9  O   UNL     2      -1.520  -0.214  -0.099  1.00  0.00    -0.374 OA
HETATM   10  C   UNL     2      -2.822  -0.754   0.070  1.00  0.00     0.199 C 
HETATM   11  C   UNL     2      -2.925  -2.151  -0.559  1.00  0.00     0.295 C 
HETATM   12  N   UNL     2      -1.927  -3.054   0.023  1.00  0.00     0.088 N 
HETATM   13  C   UNL     2      -0.587  -2.465  -0.101  1.00  0.00     0.310 C 
HETATM   14  H   UNL     2      -2.155  -3.228   1.029  1.00  0.00     0.316 HD
ENDBRANCH   1   8
BRANCH   4  15
HETATM   15  C   UNL     2      -0.886   0.527   5.203  1.00  0.00     0.055 C 
HETATM   16  C   UNL     2       0.304   0.165   6.122  1.00  0.00     0.012 C 
HETATM   17  C   UNL     2       0.516   1.207   7.217  1.00  0.00     0.001 C 
HETATM   18  C   UNL     2      -0.344   1.054   8.474  1.00  0.00     0.000 C 
HETATM   19  C   UNL     2      -1.807   0.630   8.307  1.00  0.00     0.000 C 
HETATM   20  C   UNL     2      -2.551   1.227   7.112  1.00  0.00     0.001 C 
HETATM   21  C   UNL     2      -2.292   0.424   5.825  1.00  0.00     0.012 C 
ENDBRANCH   4  15
TORSDOF 2
