REMARK  6 active torsions:
REMARK  status: ('A' for Active; 'I' for Inactive)
REMARK       I    between atoms: N_1  and  C_2 
REMARK    1  A    between atoms: C_2  and  C_4 
REMARK    2  A    between atoms: N_6  and  C_7 
REMARK    3  A    between atoms: C_7  and  C_8 
REMARK       I    between atoms: C_8  and  N_10 
REMARK    4  A    between atoms: N_10  and  C_11 
REMARK    5  A    between atoms: C_11  and  C_12 
REMARK    6  A    between atoms: C_16  and  C_19 
ROOT
HETATM    1  C   UNL     1       3.054  -1.098  -0.795  1.00  0.00     0.117 A 
HETATM    2  C   UNL     1       3.980  -0.858  -1.790  1.00  0.00     0.128 A 
HETATM    3  N   UNL     1       4.392  -2.086  -2.221  1.00  0.00    -0.335 N 
HETATM    4  C   UNL     1       3.716  -3.033  -1.482  1.00  0.00     0.088 A 
HETATM    5  N   UNL     1       2.931  -2.464  -0.588  1.00  0.00    -0.340 N 
ATOM      6  HN  UNL     1       2.353  -2.931   0.111  1.00  0.00     0.167 HD
ENDROOT
BRANCH   3   7
HETATM    7  C   UNL     1       5.360  -2.386  -3.268  1.00  0.00     0.232 C 
BRANCH   7   8
HETATM    8  C   UNL     1       5.986  -1.177  -3.931  1.00  0.00     0.235 C 
HETATM    9  O   UNL     1       5.474  -0.642  -4.909  1.00  0.00    -0.272 OA
HETATM   10  N   UNL     1       7.169  -0.741  -3.362  1.00  0.00    -0.359 N 
HETATM   11  H   UNL     1       7.453  -1.118  -2.465  1.00  0.00     0.162 HD
BRANCH  10  12
HETATM   12  C   UNL     1       7.838   0.466  -3.816  1.00  0.00     0.127 C 
BRANCH  12  13
HETATM   13  C   UNL     1       9.229   0.080  -4.292  1.00  0.00     0.003 C 
HETATM   14  C   UNL     1      10.264  -0.458  -3.265  1.00  0.00     0.006 C 
HETATM   15  C   UNL     1      11.329   0.391  -3.989  1.00  0.00     0.001 C 
HETATM   16  C   UNL     1      10.182   1.294  -4.479  1.00  0.00     0.006 C 
ENDBRANCH  12  13
ENDBRANCH  10  12
ENDBRANCH   7   8
ENDBRANCH   3   7
BRANCH   4  17
HETATM   17  C   UNL     1       3.807  -4.547  -1.672  1.00  0.00     0.054 A 
HETATM   18  C   UNL     1       2.594  -5.374  -1.292  1.00  0.00     0.013 A 
HETATM   19  C   UNL     1       3.822  -5.442  -0.453  1.00  0.00     0.013 A 
ENDBRANCH   4  17
BRANCH   1  20
HETATM   20  C   UNL     1       2.276  -0.095  -0.072  1.00  0.00     0.267 C 
HETATM   21  N   UNL     1       1.390  -0.622   0.822  1.00  0.00    -0.365 N 
HETATM   22  H   UNL     1       0.743  -0.005   1.290  1.00  0.00     0.159 HD
HETATM   23  H   UNL     1       1.288  -1.627   0.878  1.00  0.00     0.159 HD
HETATM   24  O   UNL     1       2.373   1.115  -0.250  1.00  0.00    -0.266 OA
ENDBRANCH   1  20
TORSDOF 6
