REMARK  7 active torsions:
REMARK  status: ('A' for Active; 'I' for Inactive)
REMARK    1  A    between atoms: C_5  and  O_6 
REMARK    2  A    between atoms: O_6  and  C_7 
REMARK    3  A    between atoms: C_7  and  C_8 
REMARK    4  A    between atoms: C_8  and  N_9 
REMARK    5  A    between atoms: C_13  and  N_14 
REMARK    6  A    between atoms: N_14  and  C_15 
REMARK    7  A    between atoms: C_15  and  C_16 
ROOT
HETATM    1  N   UNL     1       9.928  -2.166  -1.077  1.00  0.00    -0.254 N 
HETATM    2  N   UNL     1       9.256  -3.359  -0.982  1.00  0.00    -0.305 N 
ATOM      3  HN  UNL     1       8.247  -3.387  -0.838  1.00  0.00     0.186 HD
HETATM    4  C   UNL     1       9.948  -4.443  -1.082  1.00  0.00     0.132 A 
HETATM    5  C   UNL     1      11.408  -4.550  -1.295  1.00  0.00     0.053 A 
HETATM    6  C   UNL     1      12.036  -3.368  -1.385  1.00  0.00     0.126 A 
HETATM    7 CL   UNL     1      13.751  -3.297  -1.628  1.00  0.00    -0.076 Cl
HETATM    8  C   UNL     1      11.306  -2.067  -1.257  1.00  0.00     0.285 A 
HETATM    9  O   UNL     1      11.903  -0.991  -1.317  1.00  0.00    -0.265 OA
ENDROOT
BRANCH   1  10
HETATM   10  C   UNL     1       9.129  -0.941  -0.971  1.00  0.00     0.179 C 
BRANCH  10  11
HETATM   11  C   UNL     1       7.622  -1.191  -0.868  1.00  0.00     0.197 C 
BRANCH  11  12
HETATM   12  O   UNL     1       6.924   0.051  -0.739  1.00  0.00    -0.349 OA
BRANCH  12  13
HETATM   13  C   UNL     1       5.564  -0.056  -0.607  1.00  0.00     0.068 A 
HETATM   14  C   UNL     1       4.945   0.997   0.070  1.00  0.00     0.038 A 
HETATM   15  C   UNL     1       3.558   1.011   0.244  1.00  0.00     0.026 A 
HETATM   16  C   UNL     1       2.786  -0.024  -0.276  1.00  0.00     0.034 A 
HETATM   17 CL   UNL     1       1.077  -0.003  -0.081  1.00  0.00    -0.084 Cl
HETATM   18  C   UNL     1       3.391  -1.074  -0.963  1.00  0.00     0.026 A 
HETATM   19  C   UNL     1       4.780  -1.090  -1.128  1.00  0.00     0.038 A 
ENDBRANCH  12  13
ENDBRANCH  11  12
ENDBRANCH  10  11
ENDBRANCH   1  10
BRANCH   5  20
HETATM   20  N   UNL     1      11.918  -5.843  -1.430  1.00  0.00    -0.287 NA
HETATM   21  H   UNL     1      12.613  -5.855  -2.178  1.00  0.00     0.128 HD
BRANCH  20  22
HETATM   22  C   UNL     1      12.516  -6.520  -0.280  1.00  0.00     0.119 C 
BRANCH  22  23
HETATM   23  C   UNL     1      11.881  -7.871  -0.199  1.00  0.00    -0.022 C 
HETATM   24  C   UNL     1      12.528  -9.038  -0.319  1.00  0.00     0.008 C 
ENDBRANCH  22  23
ENDBRANCH  20  22
ENDBRANCH   5  20
TORSDOF 7
