REMARK  4 active torsions:
REMARK  status: ('A' for Active; 'I' for Inactive)
REMARK       I    between atoms: C_2  and  N_3 
REMARK    1  A    between atoms: C_2  and  C_13 
REMARK    2  A    between atoms: N_3  and  C_4 
REMARK    3  A    between atoms: C_4  and  C_5 
REMARK    4  A    between atoms: C_5  and  C_6 
ROOT
HETATM    1  O   UNL     1       1.039  -0.061   0.051  1.00  0.00    -0.273 OA
HETATM    2  C   UNL     1       2.248   0.131  -0.014  1.00  0.00     0.222 C 
HETATM    3  N   UNL     1       2.822   1.369   0.195  1.00  0.00    -0.360 N 
HETATM    4  H   UNL     1       3.830   1.432   0.246  1.00  0.00     0.162 HD
ENDROOT
BRANCH   3   5
HETATM    5  C   UNL     1       2.021   2.507   0.609  1.00  0.00     0.127 C 
BRANCH   5   6
HETATM    6  C   UNL     1       2.862   3.778   0.695  1.00  0.00     0.059 C 
BRANCH   6   7
HETATM    7  C   UNL     1       2.073   4.982   1.124  1.00  0.00    -0.041 A 
HETATM    8  C   UNL     1       1.476   5.832   0.192  1.00  0.00     0.010 A 
HETATM    9  C   UNL     1       0.777   6.954   0.629  1.00  0.00     0.018 A 
HETATM   10  C   UNL     1       0.691   7.183   1.992  1.00  0.00     0.087 A 
HETATM   11  N   UNL     1       1.239   6.375   2.924  1.00  0.00    -0.375 N 
HETATM   12  C   UNL     1       1.912   5.294   2.471  1.00  0.00     0.094 A 
ATOM     13  HN  UNL     1       1.150   6.571   3.921  1.00  0.00     0.164 HD
ENDBRANCH   6   7
ENDBRANCH   5   6
ENDBRANCH   3   5
BRANCH   2  14
HETATM   14  C   UNL     1       3.259  -0.950  -0.378  1.00  0.00     0.082 C 
HETATM   15  C   UNL     1       2.656  -2.358  -0.575  1.00  0.00     0.019 C 
HETATM   16  C   UNL     1       3.488  -3.229   0.386  1.00  0.00    -0.013 C 
HETATM   17  C   UNL     1       3.082  -2.901   1.833  1.00  0.00     0.005 C 
HETATM   18  C   UNL     1       4.866  -2.578   0.288  1.00  0.00     0.010 C 
HETATM   19  C   UNL     1       3.701  -1.515   2.058  1.00  0.00     0.006 C 
HETATM   20  C   UNL     1       4.346  -1.198   0.696  1.00  0.00    -0.001 C 
ENDBRANCH   2  14
TORSDOF 4
