REMARK  6 active torsions:
REMARK  status: ('A' for Active; 'I' for Inactive)
REMARK    1  A    between atoms: C_2  and  N_3 
REMARK    2  A    between atoms: C_2  and  C_14 
REMARK    3  A    between atoms: N_3  and  C_4 
REMARK    4  A    between atoms: C_4  and  C_5 
REMARK    5  A    between atoms: C_5  and  C_6 
REMARK       I    between atoms: C_6  and  N_8 
REMARK    6  A    between atoms: C_14  and  N_16 
ROOT
HETATM    1  N   UNL     1       2.895  -0.603  -1.406  1.00  0.00     0.090 N 
HETATM    2  H   UNL     1       3.909  -0.497  -1.444  1.00  0.00     0.316 HD
ENDROOT
BRANCH   1   3
HETATM    3  C   UNL     1       2.407  -0.140  -0.087  1.00  0.00     0.240 C 
HETATM    4  C   UNL     1       3.084  -0.961   1.022  1.00  0.00     0.045 C 
BRANCH   3   5
HETATM    5  C   UNL     1       0.853  -0.098   0.053  1.00  0.00     0.136 C 
HETATM    6  C   UNL     1       0.381   0.409   1.420  1.00  0.00     0.036 C 
BRANCH   5   7
HETATM    7  N   UNL     1       0.219   0.688  -1.009  1.00  0.00    -0.297 N 
HETATM    8  C   UNL     1      -0.680   0.223  -1.933  1.00  0.00     0.112 A 
HETATM    9  C   UNL     1      -1.064   1.312  -2.678  1.00  0.00     0.037 A 
HETATM   10  C   UNL     1      -0.357   2.391  -2.119  1.00  0.00     0.108 A 
HETATM   11  N   UNL     1       0.406   2.024  -1.087  1.00  0.00    -0.310 N 
ATOM     12  HN  UNL     1       0.992   2.613  -0.496  1.00  0.00     0.186 HD
ENDBRANCH   5   7
ENDBRANCH   3   5
ENDBRANCH   1   3
BRANCH   1  13
HETATM   13  C   UNL     1       2.521  -1.975  -1.755  1.00  0.00     0.279 C 
BRANCH  13  14
HETATM   14  C   UNL     1       2.965  -2.265  -3.180  1.00  0.00     0.133 C 
BRANCH  14  15
HETATM   15  C   UNL     1       2.570  -3.670  -3.600  1.00  0.00     0.221 C 
HETATM   16  O   UNL     1       2.212  -4.513  -2.776  1.00  0.00    -0.273 OA
HETATM   17  N   UNL     1       2.664  -3.942  -4.954  1.00  0.00    -0.348 N 
HETATM   18  C   UNL     1       2.385  -5.293  -5.445  1.00  0.00     0.152 C 
HETATM   19  C   UNL     1       3.339  -3.097  -5.944  1.00  0.00     0.152 C 
HETATM   20  C   UNL     1       3.671  -5.931  -5.984  1.00  0.00     0.187 C 
HETATM   21  O   UNL     1       4.302  -5.090  -6.969  1.00  0.00    -0.388 OA
HETATM   22  C   UNL     1       4.613  -3.798  -6.422  1.00  0.00     0.187 C 
ENDBRANCH  14  15
ENDBRANCH  13  14
ENDBRANCH   1  13
TORSDOF 6
