REMARK  5 active torsions:
REMARK  status: ('A' for Active; 'I' for Inactive)
REMARK    1  A    between atoms: N_8  and  C_9 
REMARK    2  A    between atoms: C_9  and  C_10 
REMARK    3  A    between atoms: C_10  and  O_11 
REMARK    4  A    between atoms: C_10  and  C_12 
REMARK    5  A    between atoms: C_12  and  N_13 
ROOT
HETATM    1  C   UNL     1       3.205  -2.326  -3.804  1.00  0.00     0.049 C 
HETATM    2  C   UNL     1       4.184  -1.695  -2.849  1.00  0.00    -0.054 A 
HETATM    3  C   UNL     1       4.033  -1.936  -1.471  1.00  0.00     0.039 A 
HETATM    4  C   UNL     1       4.909  -1.331  -0.561  1.00  0.00     0.060 A 
HETATM    5  N   UNL     1       4.937  -1.426   0.808  1.00  0.00    -0.350 N 
ATOM      6  HN  UNL     1       4.322  -1.980   1.403  1.00  0.00     0.166 HD
HETATM    7  C   UNL     1       5.926  -0.650   1.186  1.00  0.00     0.184 A 
HETATM    8  N   UNL     1       6.541  -0.055   0.115  1.00  0.00    -0.339 N 
HETATM    9  C   UNL     1       5.922  -0.498  -1.030  1.00  0.00     0.062 A 
HETATM   10  C   UNL     1       6.121  -0.258  -2.394  1.00  0.00     0.039 A 
HETATM   11  C   UNL     1       5.231  -0.865  -3.307  1.00  0.00    -0.054 A 
HETATM   12  C   UNL     1       5.412  -0.597  -4.779  1.00  0.00     0.049 C 
ENDROOT
BRANCH   8  13
HETATM   13  C   UNL     1       7.654   0.877   0.210  1.00  0.00     0.163 C 
BRANCH  13  14
HETATM   14  C   UNL     1       7.194   2.345   0.276  1.00  0.00     0.164 C 
BRANCH  14  15
HETATM   15  O   UNL     1       6.427   2.584   1.465  1.00  0.00    -0.392 OA
HETATM   16  H   UNL     1       6.948   2.316   2.240  1.00  0.00     0.210 HD
ENDBRANCH  14  15
BRANCH  14  17
HETATM   17  C   UNL     1       8.387   3.339   0.262  1.00  0.00     0.305 C 
BRANCH  17  18
HETATM   18  N   UNL     1       9.323   3.150  -0.855  1.00  0.00     0.092 N 
HETATM   19  C   UNL     1       8.726   3.478  -2.166  1.00  0.00     0.285 C 
HETATM   20  C   UNL     1       9.572   2.857  -3.271  1.00  0.00     0.139 C 
HETATM   21  S   UNL     1      11.216   3.615  -3.381  1.00  0.00     0.018 S 
HETATM   22  O   UNL     1      11.036   5.074  -3.685  1.00  0.00    -0.258 OA
HETATM   23  C   UNL     1      11.648   3.453  -1.626  1.00  0.00     0.139 C 
HETATM   24  C   UNL     1      10.553   3.961  -0.692  1.00  0.00     0.285 C 
ENDBRANCH  17  18
ENDBRANCH  14  17
ENDBRANCH  13  14
ENDBRANCH   8  13
TORSDOF 5
