REMARK  5 active torsions:
REMARK  status: ('A' for Active; 'I' for Inactive)
REMARK       I    between atoms: N_1  and  C_2 
REMARK    1  A    between atoms: C_2  and  C_4 
REMARK    2  A    between atoms: C_4  and  N_5 
REMARK    3  A    between atoms: C_7  and  N_8 
REMARK       I    between atoms: N_8  and  C_9 
REMARK    4  A    between atoms: C_9  and  C_11 
REMARK    5  A    between atoms: C_11  and  C_12 
ROOT
HETATM    1  N   UNL     1       5.238   0.622  -2.443  1.00  0.00    -0.293 N 
HETATM    2  C   UNL     1       6.121   1.217  -1.589  1.00  0.00     0.141 A 
HETATM    3  C   UNL     1       7.002   1.932  -2.364  1.00  0.00     0.069 A 
HETATM    4  C   UNL     1       6.589   1.665  -3.689  1.00  0.00     0.138 A 
HETATM    5  N   UNL     1       5.514   0.872  -3.747  1.00  0.00    -0.307 N 
ATOM      6  HN  UNL     1       5.020   0.536  -4.574  1.00  0.00     0.186 HD
ENDROOT
BRANCH   3   7
HETATM    7  N   UNL     1       8.056   2.728  -1.953  1.00  0.00    -0.325 N 
HETATM    8  C   UNL     1       8.317   3.056  -0.634  1.00  0.00     0.222 C 
HETATM    9  O   UNL     1       7.675   2.675   0.342  1.00  0.00    -0.273 OA
HETATM   10  H   UNL     1       8.626   3.139  -2.681  1.00  0.00     0.169 HD
BRANCH   8  11
HETATM   11  C   UNL     1       9.517   3.978  -0.466  1.00  0.00     0.108 C 
BRANCH  11  12
HETATM   12  C   UNL     1       9.120   5.214   0.333  1.00  0.00    -0.001 C 
HETATM   13  C   UNL     1       8.249   6.259  -0.394  1.00  0.00     0.010 C 
HETATM   14  C   UNL     1       8.785   7.598   0.179  1.00  0.00    -0.014 C 
HETATM   15  C   UNL     1      10.036   7.989  -0.613  1.00  0.00     0.005 C 
HETATM   16  C   UNL     1       9.434   7.197   1.509  1.00  0.00     0.009 C 
HETATM   17  C   UNL     1      11.005   6.846  -0.265  1.00  0.00     0.005 C 
HETATM   18  C   UNL     1      10.273   6.086   0.868  1.00  0.00    -0.010 C 
ENDBRANCH  11  12
ENDBRANCH   8  11
ENDBRANCH   3   7
BRANCH   1  19
HETATM   19  C   UNL     1       4.132  -0.242  -2.074  1.00  0.00     0.250 C 
BRANCH  19  20
HETATM   20  C   UNL     1       2.771   0.348  -2.372  1.00  0.00     0.235 C 
HETATM   21  N   UNL     1       2.621   1.041  -3.533  1.00  0.00    -0.369 N 
HETATM   22  H   UNL     1       1.722   1.458  -3.752  1.00  0.00     0.159 HD
HETATM   23  H   UNL     1       3.427   1.260  -4.117  1.00  0.00     0.159 HD
HETATM   24  O   UNL     1       1.796   0.144  -1.650  1.00  0.00    -0.272 OA
ENDBRANCH  19  20
ENDBRANCH   1  19
TORSDOF 5
