REMARK  6 active torsions:
REMARK  status: ('A' for Active; 'I' for Inactive)
REMARK    1  A    between atoms: N_6  and  C_7 
REMARK    2  A    between atoms: C_7  and  C_8 
REMARK    3  A    between atoms: C_8  and  C_9 
REMARK    4  A    between atoms: C_9  and  N_10 
REMARK       I    between atoms: N_10  and  C_11 
REMARK    5  A    between atoms: C_11  and  C_13 
REMARK    6  A    between atoms: C_13  and  N_14 
ROOT
HETATM    1  N   UNL     1       2.677  -5.851  -3.094  1.00  0.00    -0.360 N 
HETATM    2  C   UNL     1       1.424  -6.401  -3.259  1.00  0.00     0.237 C 
HETATM    3  O   UNL     1       0.684  -6.135  -4.202  1.00  0.00    -0.272 OA
HETATM    4  H   UNL     1       3.178  -6.002  -2.225  1.00  0.00     0.162 HD
ENDROOT
BRANCH   1   5
HETATM    5  C   UNL     1       3.177  -4.826  -3.989  1.00  0.00     0.124 C 
BRANCH   5   6
HETATM    6  C   UNL     1       2.656  -3.427  -3.654  1.00  0.00     0.050 C 
BRANCH   6   7
HETATM    7  C   UNL     1       3.144  -2.934  -2.283  1.00  0.00     0.274 C 
BRANCH   7   8
HETATM    8  N   UNL     1       2.668  -1.585  -1.926  1.00  0.00     0.088 N 
HETATM    9  C   UNL     1       3.171  -0.550  -2.843  1.00  0.00     0.272 C 
HETATM   10  C   UNL     1       2.676   0.848  -2.466  1.00  0.00     0.031 C 
HETATM   11  C   UNL     1       3.006   1.190  -1.019  1.00  0.00     0.007 C 
HETATM   12  C   UNL     1       2.531   0.092  -0.062  1.00  0.00     0.010 C 
HETATM   13  C   UNL     1       1.007   0.092   0.091  1.00  0.00     0.011 C 
HETATM   14  C   UNL     1       3.052  -1.277  -0.534  1.00  0.00     0.276 C 
ENDBRANCH   7   8
ENDBRANCH   6   7
ENDBRANCH   5   6
ENDBRANCH   1   5
BRANCH   2  15
HETATM   15  C   UNL     1       0.998  -7.349  -2.167  1.00  0.00     0.249 C 
BRANCH  15  16
HETATM   16  N   UNL     1       0.211  -6.653  -1.185  1.00  0.00    -0.264 N 
HETATM   17  C   UNL     1      -0.981  -6.022  -1.335  1.00  0.00     0.213 A 
HETATM   18  N   UNL     1      -1.342  -5.544  -0.166  1.00  0.00    -0.281 N 
HETATM   19  N   UNL     1      -0.339  -5.889   0.709  1.00  0.00    -0.008 NA
ATOM     20  HN  UNL     1      -2.192  -5.023   0.049  1.00  0.00     0.184 HD
HETATM   21  N   UNL     1       0.617  -6.569   0.091  1.00  0.00    -0.005 NA
ENDBRANCH  15  16
ENDBRANCH   2  15
TORSDOF 6
