REMARK  3 active torsions:
REMARK  status: ('A' for Active; 'I' for Inactive)
REMARK    1  A    between atoms: C_5  and  N_6 
REMARK       I    between atoms: N_6  and  C_7 
REMARK       I    between atoms: C_7  and  N_9 
REMARK    2  A    between atoms: N_9  and  C_10 
REMARK    3  A    between atoms: C_14  and  C_18 
ROOT
HETATM    1  N   UNL     1       5.637  -1.805   1.031  1.00  0.00    -0.335 N 
HETATM    2  C   UNL     1       5.766  -3.066   1.566  1.00  0.00     0.321 C 
HETATM    3  O   UNL     1       4.912  -3.588   2.274  1.00  0.00    -0.247 OA
HETATM    4  N   UNL     1       6.999  -3.603   1.273  1.00  0.00    -0.306 N 
HETATM    5  H   UNL     1       6.008  -1.715   0.094  1.00  0.00     0.164 HD
HETATM    6  H   UNL     1       7.721  -2.908   1.142  1.00  0.00     0.171 HD
ENDROOT
BRANCH   1   7
HETATM    7  C   UNL     1       4.467  -1.004   1.366  1.00  0.00     0.122 C 
HETATM    8  C   UNL     1       3.223  -1.410   0.588  1.00  0.00     0.065 C 
HETATM    9  C   UNL     1       2.663  -0.116   0.003  1.00  0.00     0.057 C 
HETATM   10  C   UNL     1       1.168   0.039   0.288  1.00  0.00     0.045 C 
HETATM   11  C   UNL     1       2.885  -0.035  -1.511  1.00  0.00     0.045 C 
HETATM   12  O   UNL     1       3.355   0.973   0.635  1.00  0.00    -0.369 OA
HETATM   13  C   UNL     1       4.617   0.514   1.154  1.00  0.00     0.075 C 
HETATM   14  C   UNL     1       4.873   1.227   2.487  1.00  0.00     0.048 C 
HETATM   15  C   UNL     1       5.719   0.935   0.172  1.00  0.00     0.048 C 
ENDBRANCH   1   7
BRANCH   4  16
HETATM   16  C   UNL     1       7.396  -4.859   1.778  1.00  0.00     0.067 A 
HETATM   17  C   UNL     1       6.570  -5.954   1.893  1.00  0.00     0.120 A 
HETATM   18  N   UNL     1       6.957  -7.136   2.422  1.00  0.00    -0.353 N 
HETATM   19  C   UNL     1       8.227  -7.224   2.872  1.00  0.00     0.085 A 
ATOM     20  HN  UNL     1       6.317  -7.928   2.479  1.00  0.00     0.166 HD
HETATM   21  N   UNL     1       9.116  -6.212   2.775  1.00  0.00    -0.353 N 
HETATM   22  C   UNL     1       8.684  -5.060   2.222  1.00  0.00     0.120 A 
ATOM     23  HN  UNL     1      10.075  -6.315   3.106  1.00  0.00     0.166 HD
BRANCH  19  24
HETATM   24  C   UNL     1       8.676  -8.492   3.552  1.00  0.00     0.053 A 
HETATM   25  C   UNL     1       9.901  -9.209   3.028  1.00  0.00     0.013 A 
HETATM   26  C   UNL     1       8.548  -9.838   2.878  1.00  0.00     0.013 A 
ENDBRANCH  19  24
ENDBRANCH   4  16
TORSDOF 3
