REMARK  5 active torsions:
REMARK  status: ('A' for Active; 'I' for Inactive)
REMARK    1  A    between atoms: N_2  and  C_4 
REMARK    2  A    between atoms: C_4  and  C_5 
REMARK    3  A    between atoms: C_4  and  C_16 
REMARK    4  A    between atoms: C_5  and  N_6 
REMARK       I    between atoms: N_6  and  C_7 
REMARK    5  A    between atoms: C_7  and  C_9 
ROOT
HETATM    1  C   UNL     1       2.433  -2.412   0.588  1.00  0.00     0.163 C 
ENDROOT
BRANCH   1   2
HETATM    2  C   UNL     1       2.886  -0.952   0.906  1.00  0.00     0.275 C 
BRANCH   2   3
HETATM    3  N   UNL     1       2.689  -0.464   2.301  1.00  0.00     0.090 N 
HETATM    4  C   UNL     1       1.308  -0.296   2.746  1.00  0.00     0.310 C 
HETATM    5  C   UNL     1       3.427  -1.272   3.272  1.00  0.00     0.310 C 
ENDBRANCH   2   3
BRANCH   2   6
HETATM    6  C   UNL     1       2.323   0.070  -0.066  1.00  0.00     0.011 A 
HETATM    7  C   UNL     1       1.378  -0.113  -1.110  1.00  0.00     0.118 A 
HETATM    8  N   UNL     1       1.060   1.021  -1.735  1.00  0.00    -0.310 N 
HETATM    9  N   UNL     1       1.824   1.940  -1.125  1.00  0.00    -0.308 N 
ATOM     10  HN  UNL     1       0.394   1.157  -2.496  1.00  0.00     0.186 HD
HETATM   11  C   UNL     1       1.713   3.329  -1.498  1.00  0.00     0.177 C 
HETATM   12  C   UNL     1       2.624   1.420  -0.151  1.00  0.00     0.120 A 
ENDBRANCH   2   6
ENDBRANCH   1   2
BRANCH   1  13
HETATM   13  N   UNL     1       1.000  -2.619   0.724  1.00  0.00    -0.355 N 
HETATM   14  C   UNL     1       0.383  -3.816   0.492  1.00  0.00     0.247 C 
HETATM   15  O   UNL     1       1.016  -4.828   0.213  1.00  0.00    -0.268 OA
HETATM   16  H   UNL     1       0.451  -1.802   0.932  1.00  0.00     0.162 HD
BRANCH  14  17
HETATM   17  C   UNL     1      -1.121  -3.816   0.641  1.00  0.00     0.006 C 
HETATM   18  C   UNL     1      -1.844  -2.672   0.624  1.00  0.00    -0.014 C 
HETATM   19  C   UNL     1      -3.327  -2.480   0.796  1.00  0.00     0.028 C 
HETATM   20  C   UNL     1      -4.123  -3.638   1.382  1.00  0.00     0.004 C 
HETATM   21  C   UNL     1      -4.267  -4.828   0.440  1.00  0.00     0.001 C 
HETATM   22  C   UNL     1      -2.974  -5.336  -0.192  1.00  0.00     0.005 C 
HETATM   23  C   UNL     1      -1.737  -5.200   0.698  1.00  0.00     0.044 C 
ENDBRANCH  14  17
ENDBRANCH   1  13
TORSDOF 5
