REMARK  2 active torsions:
REMARK  status: ('A' for Active; 'I' for Inactive)
REMARK    1  A    between atoms: C_4  and  N_5 
REMARK       I    between atoms: N_5  and  C_6 
REMARK       I    between atoms: C_6  and  N_8 
REMARK    2  A    between atoms: N_8  and  C_9 
ROOT
HETATM    1  N   UNL     1       5.927   1.699  -0.077  1.00  0.00    -0.293 N 
HETATM    2  C   UNL     1       5.694   3.034   0.084  1.00  0.00     0.322 C 
HETATM    3  O   UNL     1       4.539   3.446   0.187  1.00  0.00    -0.247 OA
HETATM    4  N   UNL     1       6.776   3.858   0.053  1.00  0.00    -0.337 N 
HETATM    5  H   UNL     1       5.093   1.138  -0.159  1.00  0.00     0.172 HD
HETATM    6  H   UNL     1       7.682   3.394   0.056  1.00  0.00     0.164 HD
ENDROOT
BRANCH   1   7
HETATM    7  C   UNL     1       7.148   1.076  -0.230  1.00  0.00     0.132 A 
HETATM    8  C   UNL     1       7.325  -0.262  -0.648  1.00  0.00     0.084 A 
HETATM    9  C   UNL     1       8.686  -0.422  -0.723  1.00  0.00     0.076 A 
HETATM   10  C   UNL     1       9.584  -1.510  -1.143  1.00  0.00     0.079 C 
HETATM   11  O   UNL     1       9.292   0.724  -0.324  1.00  0.00    -0.241 OA
HETATM   12  N   UNL     1       8.333   1.665  -0.024  1.00  0.00    -0.245 N 
ATOM     13  HN  UNL     1       8.493   2.621   0.292  1.00  0.00     0.196 HD
ENDBRANCH   1   7
BRANCH   4  14
HETATM   14  C   UNL     1       6.756   5.302   0.086  1.00  0.00     0.101 C 
HETATM   15  C   UNL     1       6.183   5.880   1.384  1.00  0.00     0.041 C 
HETATM   16  C   UNL     1       5.960   7.377   1.173  1.00  0.00     0.142 C 
HETATM   17  S   UNL     1       5.965   7.655  -0.590  1.00  0.00     0.146 S 
HETATM   18  O   UNL     1       4.708   8.251  -0.996  1.00  0.00    -0.228 OA
HETATM   19  O   UNL     1       7.242   8.240  -0.954  1.00  0.00    -0.228 OA
HETATM   20  C   UNL     1       5.988   5.944  -1.061  1.00  0.00     0.165 C 
ENDBRANCH   4  14
TORSDOF 2
