REMARK  4 active torsions:
REMARK  status: ('A' for Active; 'I' for Inactive)
REMARK    1  A    between atoms: N_1  and  C_15 
REMARK    2  A    between atoms: N_2  and  C_16 
REMARK    3  A    between atoms: C_7  and  C_14 
REMARK    4  A    between atoms: C_10  and  C_15 
ROOT
HETATM    1  C   UNL     1      -1.549   2.268  -0.071  1.00  0.00     0.223 C 
ENDROOT
BRANCH   1   2
HETATM    2  N   UNL     1      -0.767   1.044   0.058  1.00  0.00    -0.256 N 
HETATM    3  C   UNL     1      -1.371  -0.173  -0.250  1.00  0.00     0.334 C 
HETATM    4  N   UNL     1      -0.589  -1.307  -0.022  1.00  0.00    -0.279 N 
HETATM    5  O   UNL     1      -2.515  -0.256  -0.698  1.00  0.00    -0.246 OA
HETATM    6  C   UNL     1       0.774  -1.226   0.161  1.00  0.00     0.146 C 
HETATM    7  C   UNL     1       1.392  -0.051   0.209  1.00  0.00     0.200 C 
HETATM    8  C   UNL     1       0.612   1.199   0.127  1.00  0.00     0.292 C 
HETATM    9  F   UNL     1       2.727   0.058   0.347  1.00  0.00    -0.199 F 
HETATM   10  O   UNL     1       1.187   2.284   0.083  1.00  0.00    -0.264 OA
BRANCH   4  11
HETATM   11  C   UNL     1      -1.288  -2.576   0.074  1.00  0.00     0.232 C 
HETATM   12  O   UNL     1      -0.649  -3.435   1.037  1.00  0.00    -0.366 OA
HETATM   13  C   UNL     1      -0.945  -4.791   0.669  1.00  0.00     0.170 C 
HETATM   14  C   UNL     1      -1.760  -4.744  -0.610  1.00  0.00     0.031 C 
HETATM   15  C   UNL     1      -1.373  -3.404  -1.196  1.00  0.00     0.056 C 
ENDBRANCH   4  11
ENDBRANCH   1   2
BRANCH   1  16
HETATM   16  C   UNL     1      -2.820   2.277   0.704  1.00  0.00     0.159 A 
HETATM   17  O   UNL     1      -3.972   2.211  -0.031  1.00  0.00    -0.276 OA
HETATM   18  C   UNL     1      -4.937   2.472   0.908  1.00  0.00     0.175 A 
HETATM   19  N   UNL     1      -4.428   2.643   2.108  1.00  0.00    -0.277 N 
HETATM   20  N   UNL     1      -3.051   2.518   1.979  1.00  0.00    -0.280 N 
ATOM     21  HN  UNL     1      -4.944   2.831   2.967  1.00  0.00     0.189 HD
ATOM     22  HN  UNL     1      -2.357   2.597   2.722  1.00  0.00     0.189 HD
BRANCH  18  23
HETATM   23  C   UNL     1      -6.290   2.594   0.370  1.00  0.00     0.034 A 
HETATM   24  C   UNL     1      -7.208   3.568   0.796  1.00  0.00     0.025 A 
HETATM   25 BR   UNL     1      -6.847   4.802   2.197  1.00  0.00    -0.050 Br
HETATM   26  C   UNL     1      -8.449   3.709   0.151  1.00  0.00     0.020 A 
HETATM   27  C   UNL     1      -8.789   2.878  -0.914  1.00  0.00     0.001 A 
HETATM   28  C   UNL     1      -7.911   1.886  -1.334  1.00  0.00     0.001 A 
HETATM   29  C   UNL     1      -6.675   1.750  -0.695  1.00  0.00     0.017 A 
ENDBRANCH  18  23
ENDBRANCH   1  16
TORSDOF 4
