REMARK  6 active torsions:
REMARK  status: ('A' for Active; 'I' for Inactive)
REMARK    1  A    between atoms: N_1  and  C1*_2 
REMARK    2  A    between atoms: N_5  and  C_6 
REMARK    3  A    between atoms: C2*_9  and  O2*_23 
REMARK    4  A    between atoms: C3*_12  and  O3*_24 
REMARK    5  A    between atoms: C4*_13  and  C5*_25 
REMARK    6  A    between atoms: C5*_25  and  O5*_27 
ROOT
HETATM    1  N   UNL     1       2.888   2.290  -1.381  1.00  0.00    -0.297 N 
HETATM    2  C   UNL     1       4.279   1.504  -2.888  1.00  0.00     0.122 A 
HETATM    3  C   UNL     1       3.465   1.126  -1.820  1.00  0.00     0.142 A 
HETATM    4  C   UNL     1       5.091   0.514  -3.511  1.00  0.00     0.140 A 
HETATM    5  N   UNL     1       4.131   2.854  -3.145  1.00  0.00    -0.346 N 
ATOM      6  HN  UNL     1       4.619   3.409  -3.848  1.00  0.00     0.167 HD
HETATM    7  C   UNL     1       3.226   3.267  -2.288  1.00  0.00     0.188 C 
HETATM    8  N   UNL     1       3.311  -0.118  -1.340  1.00  0.00    -0.336 N 
ATOM      9  HN  UNL     1       2.718  -0.363  -0.547  1.00  0.00     0.168 HD
HETATM   10  N   UNL     1       4.915  -0.766  -3.062  1.00  0.00    -0.336 N 
ATOM     11  HN  UNL     1       5.433  -1.536  -3.486  1.00  0.00     0.168 HD
HETATM   12  C   UNL     1       4.048  -1.003  -2.050  1.00  0.00     0.183 A 
ENDROOT
BRANCH   1  13
HETATM   13  C1* UNL     1       2.044   2.581  -0.234  1.00  0.00     0.262 C 
HETATM   14  C2* UNL     1       2.118   1.699   1.022  1.00  0.00     0.198 C 
HETATM   15  C3* UNL     1       2.652   2.615   2.132  1.00  0.00     0.182 C 
HETATM   16  C4* UNL     1       3.190   3.836   1.402  1.00  0.00     0.179 C 
HETATM   17  O4* UNL     1       2.398   3.926   0.203  1.00  0.00    -0.353 OA
BRANCH  14  18
HETATM   18  O2* UNL     1       0.804   1.229   1.379  1.00  0.00    -0.388 OA
HETATM   19  H2* UNL     1       0.560   1.720   2.195  1.00  0.00     0.210 HD
ENDBRANCH  14  18
BRANCH  15  20
HETATM   20  O3* UNL     1       1.556   2.961   3.004  1.00  0.00    -0.390 OA
HETATM   21  H3* UNL     1       1.370   3.915   2.926  1.00  0.00     0.210 HD
ENDBRANCH  15  20
BRANCH  16  22
HETATM   22  C5* UNL     1       4.690   3.727   1.096  1.00  0.00     0.198 C 
BRANCH  22  23
HETATM   23  O5* UNL     1       5.148   4.891   0.415  1.00  0.00    -0.398 OA
HETATM   24  H5* UNL     1       4.834   4.836  -0.505  1.00  0.00     0.209 HD
ENDBRANCH  22  23
ENDBRANCH  16  22
ENDBRANCH   1  13
BRANCH   4  25
HETATM   25  N   UNL     1       6.018   0.823  -4.516  1.00  0.00    -0.330 N 
HETATM   26  C   UNL     1       6.924   0.058  -5.274  1.00  0.00     0.042 A 
HETATM   27  C   UNL     1       7.777   0.860  -6.043  1.00  0.00    -0.030 A 
HETATM   28  C   UNL     1       7.048  -1.317  -5.357  1.00  0.00     0.030 A 
HETATM   29  C   UNL     1       8.749   0.335  -6.886  1.00  0.00     0.009 A 
HETATM   30  C   UNL     1       7.466   2.298  -5.834  1.00  0.00     0.061 A 
HETATM   31  C   UNL     1       8.867  -1.048  -6.965  1.00  0.00     0.001 A 
HETATM   32  C   UNL     1       8.021  -1.869  -6.207  1.00  0.00     0.002 A 
HETATM   33  C   UNL     1       6.360   2.236  -4.771  1.00  0.00     0.135 A 
ENDBRANCH   4  25
TORSDOF 6
