REMARK  6 active torsions:
REMARK  status: ('A' for Active; 'I' for Inactive)
REMARK    1  A    between atoms: N_5  and  C_6 
REMARK    2  A    between atoms: C_6  and  C_7 
REMARK    3  A    between atoms: C_7  and  O_8 
REMARK    4  A    between atoms: O_8  and  C_9 
REMARK    5  A    between atoms: C_12  and  S_15 
REMARK    6  A    between atoms: S_15  and  N_18 
ROOT
HETATM    1  C   UNL     1       3.420   1.099  -2.504  1.00  0.00     0.070 C 
HETATM    2  C   UNL     1       3.721   0.524  -1.136  1.00  0.00     0.029 A 
HETATM    3  N   UNL     1       4.367  -0.598  -1.105  1.00  0.00    -0.300 N 
ATOM      4  HN  UNL     1       4.642  -1.066  -1.968  1.00  0.00     0.187 HD
HETATM    5  N   UNL     1       4.671  -1.140   0.114  1.00  0.00    -0.254 N 
HETATM    6  C   UNL     1       4.281  -0.590   1.326  1.00  0.00     0.283 A 
HETATM    7  O   UNL     1       4.504  -1.123   2.410  1.00  0.00    -0.265 OA
HETATM    8  C   UNL     1       3.558   0.706   1.254  1.00  0.00     0.121 A 
HETATM    9  C   UNL     1       3.189   1.308   2.488  1.00  0.00     0.105 C 
HETATM   10  N   UNL     1       2.860   1.853   3.460  1.00  0.00    -0.191 NA
HETATM   11  C   UNL     1       3.268   1.274   0.070  1.00  0.00    -0.012 A 
HETATM   12  C   UNL     1       2.538   2.571  -0.125  1.00  0.00     0.052 C 
ENDROOT
BRANCH   5  13
HETATM   13  C   UNL     1       5.395  -2.410   0.095  1.00  0.00     0.179 C 
BRANCH  13  14
HETATM   14  C   UNL     1       4.457  -3.612   0.155  1.00  0.00     0.197 C 
BRANCH  14  15
HETATM   15  O   UNL     1       5.245  -4.810   0.174  1.00  0.00    -0.349 OA
BRANCH  15  16
HETATM   16  C   UNL     1       4.536  -5.979   0.110  1.00  0.00     0.068 A 
HETATM   17  C   UNL     1       5.199  -7.052  -0.492  1.00  0.00     0.038 A 
HETATM   18  C   UNL     1       4.569  -8.291  -0.625  1.00  0.00     0.027 A 
HETATM   19  C   UNL     1       3.276  -8.457  -0.122  1.00  0.00     0.074 A 
HETATM   20  C   UNL     1       2.613  -7.398   0.502  1.00  0.00     0.027 A 
HETATM   21  C   UNL     1       3.250  -6.161   0.625  1.00  0.00     0.038 A 
BRANCH  19  22
HETATM   22  S   UNL     1       2.458 -10.012  -0.300  1.00  0.00     0.239 S 
HETATM   23  O   UNL     1       1.034  -9.821  -0.162  1.00  0.00    -0.206 OA
HETATM   24  O   UNL     1       3.040 -10.734  -1.408  1.00  0.00    -0.206 OA
BRANCH  22  25
HETATM   25  N   UNL     1       2.955 -10.811   1.090  1.00  0.00    -0.225 NA
HETATM   26  H   UNL     1       2.152 -11.006   1.687  1.00  0.00     0.136 HD
HETATM   27  H   UNL     1       3.507 -11.631   0.844  1.00  0.00     0.136 HD
ENDBRANCH  22  25
ENDBRANCH  19  22
ENDBRANCH  15  16
ENDBRANCH  14  15
ENDBRANCH  13  14
ENDBRANCH   5  13
TORSDOF 6
