REMARK  6 active torsions:
REMARK  status: ('A' for Active; 'I' for Inactive)
REMARK    1  A    between atoms: C_7  and  C_8 
REMARK    2  A    between atoms: C_8  and  N_9 
REMARK    3  A    between atoms: N_9  and  C_10 
REMARK    4  A    between atoms: C_10  and  C_11 
REMARK    5  A    between atoms: C_11  and  O_12 
REMARK    6  A    between atoms: C_11  and  C_13 
ROOT
HETATM    1  C   UNL     1       2.532  -3.365   2.829  1.00  0.00     0.306 C 
ENDROOT
BRANCH   1   2
HETATM    2  N   UNL     1       3.000  -2.324   1.906  1.00  0.00     0.086 N 
HETATM    3  H   UNL     1       2.711  -1.412   2.263  1.00  0.00     0.316 HD
BRANCH   2   4
HETATM    4  C   UNL     1       2.504  -2.545   0.550  1.00  0.00     0.274 C 
BRANCH   4   5
HETATM    5  C   UNL     1       2.983  -1.443  -0.416  1.00  0.00     0.017 C 
HETATM    6  C   UNL     1       2.579  -0.002  -0.000  1.00  0.00    -0.013 C 
HETATM    7  C   UNL     1       1.074   0.170   0.244  1.00  0.00     0.010 C 
HETATM    8  C   UNL     1       3.088   1.010  -1.039  1.00  0.00     0.005 C 
HETATM    9  C   UNL     1       2.633   0.686  -2.459  1.00  0.00     0.000 C 
HETATM   10  C   UNL     1       3.007  -0.736  -2.858  1.00  0.00     0.000 C 
HETATM   11  C   UNL     1       2.513  -1.768  -1.847  1.00  0.00     0.007 C 
ENDBRANCH   4   5
ENDBRANCH   2   4
ENDBRANCH   1   2
BRANCH   1  12
HETATM   12  C   UNL     1       2.990  -3.072   4.284  1.00  0.00     0.179 C 
BRANCH  12  13
HETATM   13  O   UNL     1       2.442  -1.817   4.712  1.00  0.00    -0.389 OA
HETATM   14  H   UNL     1       1.512  -1.803   4.431  1.00  0.00     0.210 HD
ENDBRANCH  12  13
BRANCH  12  15
HETATM   15  C   UNL     1       2.593  -4.188   5.229  1.00  0.00    -0.025 A 
HETATM   16  C   UNL     1       3.078  -5.486   5.015  1.00  0.00     0.027 A 
HETATM   17  C   UNL     1       2.676  -6.505   5.863  1.00  0.00     0.088 A 
HETATM   18  N   UNL     1       1.847  -6.325   6.910  1.00  0.00    -0.375 N 
HETATM   19  C   UNL     1       1.417  -5.064   7.127  1.00  0.00     0.088 A 
ATOM     20  HN  UNL     1       1.560  -7.101   7.507  1.00  0.00     0.164 HD
HETATM   21  C   UNL     1       1.756  -3.981   6.332  1.00  0.00     0.027 A 
ENDBRANCH  12  15
ENDBRANCH   1  12
TORSDOF 6
