REMARK  5 active torsions:
REMARK  status: ('A' for Active; 'I' for Inactive)
REMARK    1  A    between atoms: N_2  and  C_4 
REMARK    2  A    between atoms: C_7  and  N_8 
REMARK       I    between atoms: N_8  and  C_9 
REMARK       I    between atoms: C_9  and  N_11 
REMARK    3  A    between atoms: N_11  and  C_12 
REMARK    4  A    between atoms: C_12  and  C_13 
REMARK    5  A    between atoms: C_13  and  N_16 
ROOT
HETATM    1  N   UNL     1       3.379  -6.262   0.497  1.00  0.00    -0.308 N 
HETATM    2  C   UNL     1       4.715  -6.017   0.715  1.00  0.00     0.320 C 
HETATM    3  O   UNL     1       5.253  -4.925   0.841  1.00  0.00    -0.247 OA
HETATM    4  N   UNL     1       5.498  -7.147   0.808  1.00  0.00    -0.341 N 
HETATM    5  H   UNL     1       3.092  -7.222   0.418  1.00  0.00     0.170 HD
HETATM    6  H   UNL     1       6.456  -6.954   1.070  1.00  0.00     0.164 HD
ENDROOT
BRANCH   1   7
HETATM    7  C   UNL     1       2.337  -5.334   0.343  1.00  0.00     0.051 A 
HETATM    8  C   UNL     1       2.508  -3.966   0.360  1.00  0.00     0.035 A 
HETATM    9  C   UNL     1       1.405  -3.138   0.145  1.00  0.00     0.050 A 
HETATM   10  C   UNL     1       0.138  -3.676  -0.094  1.00  0.00     0.102 A 
HETATM   11  N   UNL     1      -0.041  -5.015  -0.066  1.00  0.00    -0.350 N 
HETATM   12  C   UNL     1       1.042  -5.802   0.144  1.00  0.00     0.119 A 
ATOM     13  HN  UNL     1      -0.967  -5.422  -0.199  1.00  0.00     0.166 HD
BRANCH  10  14
HETATM   14  N   UNL     1      -0.958  -2.842  -0.358  1.00  0.00    -0.376 N 
HETATM   15  C   UNL     1      -2.201  -3.548  -0.650  1.00  0.00     0.150 C 
HETATM   16  C   UNL     1      -0.685  -1.643  -1.142  1.00  0.00     0.150 C 
ENDBRANCH  10  14
ENDBRANCH   1   7
BRANCH   4  17
HETATM   17  C   UNL     1       4.967  -8.485   0.830  1.00  0.00     0.154 C 
BRANCH  17  18
HETATM   18  C   UNL     1       5.906  -9.706   1.033  1.00  0.00     0.036 C 
HETATM   19  C   UNL     1       6.949  -9.682  -0.109  1.00  0.00     0.039 C 
HETATM   20  C   UNL     1       6.666  -9.592   2.364  1.00  0.00     0.039 C 
BRANCH  18  21
HETATM   21  N   UNL     1       4.992 -10.879   0.955  1.00  0.00    -0.399 N 
HETATM   22  C   UNL     1       3.947 -11.024   1.992  1.00  0.00     0.144 C 
HETATM   23  C   UNL     1       4.348 -11.922   3.165  1.00  0.00     0.187 C 
HETATM   24  O   UNL     1       4.707 -13.221   2.696  1.00  0.00    -0.388 OA
HETATM   25  C   UNL     1       5.807 -13.133   1.781  1.00  0.00     0.187 C 
HETATM   26  C   UNL     1       5.506 -12.205   0.591  1.00  0.00     0.144 C 
ENDBRANCH  18  21
ENDBRANCH  17  18
ENDBRANCH   4  17
TORSDOF 5
