REMARK  3 active torsions:
REMARK  status: ('A' for Active; 'I' for Inactive)
REMARK    1  A    between atoms: C_5  and  N_8 
REMARK       I    between atoms: N_8  and  C_9 
REMARK    2  A    between atoms: C_9  and  C_11 
REMARK    3  A    between atoms: C_11  and  C_12 
ROOT
HETATM    1  N   UNL     1       4.633  -0.828  -2.881  1.00  0.00    -0.356 N 
HETATM    2  C   UNL     1       5.274  -1.145  -4.060  1.00  0.00     0.223 C 
HETATM    3  O   UNL     1       4.684  -1.456  -5.092  1.00  0.00    -0.273 OA
HETATM    4  H   UNL     1       5.192  -0.508  -2.099  1.00  0.00     0.162 HD
ENDROOT
BRANCH   2   5
HETATM    5  C   UNL     1       6.786  -1.063  -3.998  1.00  0.00     0.160 C 
BRANCH   5   6
HETATM    6  C   UNL     1       7.280   0.274  -4.439  1.00  0.00     0.025 A 
HETATM    7  C   UNL     1       7.010   0.902  -5.641  1.00  0.00     0.077 A 
HETATM    8  S   UNL     1       7.831   2.401  -5.723  1.00  0.00    -0.087 SA
HETATM    9  C   UNL     1       8.510   2.101  -4.174  1.00  0.00     0.047 A 
HETATM   10  C   UNL     1       9.465   3.068  -3.566  1.00  0.00     0.076 C 
HETATM   11  N   UNL     1       8.133   0.977  -3.599  1.00  0.00    -0.357 N 
ATOM     12  HN  UNL     1       8.425   0.668  -2.672  1.00  0.00     0.166 HD
ENDBRANCH   5   6
ENDBRANCH   2   5
BRANCH   1  13
HETATM   13  C   UNL     1       3.180  -0.814  -2.754  1.00  0.00     0.084 C 
HETATM   14  C   UNL     1       2.685   0.589  -2.383  1.00  0.00     0.025 C 
HETATM   15  C   UNL     1       2.995   0.963  -0.933  1.00  0.00     0.006 C 
HETATM   16  C   UNL     1       2.501  -0.084   0.075  1.00  0.00    -0.019 C 
HETATM   17  C   UNL     1       0.975  -0.062   0.208  1.00  0.00     0.010 C 
HETATM   18  C   UNL     1       3.019  -1.481  -0.295  1.00  0.00     0.006 C 
HETATM   19  C   UNL     1       2.717  -1.869  -1.743  1.00  0.00     0.025 C 
ENDBRANCH   1  13
TORSDOF 3
