REMARK  4 active torsions:
REMARK  status: ('A' for Active; 'I' for Inactive)
REMARK    1  A    between atoms: C_2  and  C_3 
REMARK    2  A    between atoms: C_2  and  N_10 
REMARK    3  A    between atoms: C_3  and  N_4 
REMARK       I    between atoms: N_10  and  C_11 
REMARK    4  A    between atoms: C_11  and  C_13 
ROOT
HETATM    1  N   UNL     1       3.125  -1.352  -0.619  1.00  0.00    -0.350 N 
HETATM    2  C   UNL     1       4.469  -1.516  -0.859  1.00  0.00     0.265 C 
HETATM    3  O   UNL     1       5.343  -0.706  -0.589  1.00  0.00    -0.266 OA
HETATM    4  H   UNL     1       2.507  -2.027  -1.065  1.00  0.00     0.163 HD
ENDROOT
BRANCH   1   5
HETATM    5  C   UNL     1       2.568  -0.120  -0.044  1.00  0.00     0.100 C 
HETATM    6  C   UNL     1       1.040  -0.221  -0.042  1.00  0.00     0.034 C 
BRANCH   5   7
HETATM    7  C   UNL     1       3.130   0.154   1.368  1.00  0.00     0.172 C 
BRANCH   7   8
HETATM    8  N   UNL     1       2.655   1.392   1.954  1.00  0.00    -0.302 N 
HETATM    9  C   UNL     1       3.229   2.626   1.843  1.00  0.00     0.111 A 
HETATM   10  C   UNL     1       2.433   3.481   2.570  1.00  0.00     0.037 A 
HETATM   11  C   UNL     1       1.417   2.662   3.094  1.00  0.00     0.108 A 
HETATM   12  N   UNL     1       1.555   1.385   2.731  1.00  0.00    -0.310 N 
ATOM     13  HN  UNL     1       0.966   0.591   2.983  1.00  0.00     0.186 HD
ENDBRANCH   7   8
ENDBRANCH   5   7
ENDBRANCH   1   5
BRANCH   2  14
HETATM   14  C   UNL     1       4.849  -2.859  -1.472  1.00  0.00     0.094 C 
HETATM   15  N   UNL     1       3.995  -3.450  -2.246  1.00  0.00    -0.295 N 
HETATM   16  N   UNL     1       4.341  -4.645  -2.822  1.00  0.00    -0.265 N 
ATOM     17  HN  UNL     1       3.081  -3.034  -2.424  1.00  0.00     0.187 HD
HETATM   18  C   UNL     1       3.371  -5.226  -3.735  1.00  0.00     0.181 C 
HETATM   19  C   UNL     1       5.532  -5.323  -2.622  1.00  0.00     0.238 C 
HETATM   20  O   UNL     1       5.795  -6.390  -3.184  1.00  0.00    -0.272 OA
HETATM   21  C   UNL     1       6.516  -4.740  -1.648  1.00  0.00     0.111 C 
HETATM   22  C   UNL     1       6.204  -3.369  -1.109  1.00  0.00     0.073 C 
ENDBRANCH   2  14
TORSDOF 4
