REMARK  6 active torsions:
REMARK  status: ('A' for Active; 'I' for Inactive)
REMARK    1  A    between atoms: C_2  and  C_4 
REMARK    2  A    between atoms: C_4  and  N_5 
REMARK    3  A    between atoms: C_7  and  C_11 
REMARK       I    between atoms: C_11  and  N_13 
REMARK    4  A    between atoms: N_13  and  C_14 
REMARK    5  A    between atoms: C_14  and  C_15 
REMARK    6  A    between atoms: C_15  and  C_16 
ROOT
HETATM    1  C   UNL     1       7.099  -1.887  -3.398  1.00  0.00     0.223 C 
HETATM    2  O   UNL     1       6.365  -2.670  -3.991  1.00  0.00    -0.273 OA
HETATM    3  N   UNL     1       8.346  -1.556  -3.878  1.00  0.00    -0.360 N 
HETATM    4  H   UNL     1       8.816  -0.738  -3.506  1.00  0.00     0.162 HD
ENDROOT
BRANCH   1   5
HETATM    5  C   UNL     1       6.750  -1.258  -2.057  1.00  0.00     0.104 A 
HETATM    6  C   UNL     1       5.366  -1.690  -1.582  1.00  0.00     0.140 A 
HETATM    7  N   UNL     1       4.648  -0.475  -1.290  1.00  0.00    -0.351 N 
HETATM    8  C   UNL     1       5.381   0.664  -1.556  1.00  0.00     0.220 A 
HETATM    9  C   UNL     1       6.717   0.269  -2.116  1.00  0.00     0.118 A 
HETATM   10  O   UNL     1       5.011   1.819  -1.408  1.00  0.00    -0.273 OA
BRANCH   7  11
HETATM   11  C   UNL     1       3.198  -0.452  -1.155  1.00  0.00     0.129 C 
BRANCH  11  12
HETATM   12  C   UNL     1       2.645  -1.366  -0.054  1.00  0.00    -0.005 C 
HETATM   13  C   UNL     1       3.135  -0.927   1.325  1.00  0.00     0.011 C 
HETATM   14  C   UNL     1       1.114  -1.353  -0.096  1.00  0.00     0.011 C 
ENDBRANCH  11  12
ENDBRANCH   7  11
ENDBRANCH   1   5
BRANCH   3  15
HETATM   15  C   UNL     1       8.800  -2.023  -5.180  1.00  0.00     0.130 C 
BRANCH  15  16
HETATM   16  C   UNL     1       8.297  -1.166  -6.346  1.00  0.00     0.106 C 
BRANCH  16  17
HETATM   17  C   UNL     1       8.836   0.216  -6.282  1.00  0.00     0.149 A 
HETATM   18  N   UNL     1       9.156   0.951  -5.237  1.00  0.00    -0.327 N 
HETATM   19  C   UNL     1       9.551   2.125  -5.826  1.00  0.00     0.100 A 
ATOM     20  HN  UNL     1       9.120   0.710  -4.247  1.00  0.00     0.169 HD
HETATM   21  C   UNL     1       9.992   3.293  -5.044  1.00  0.00     0.091 C 
HETATM   22  N   UNL     1       9.504   2.130  -7.164  1.00  0.00    -0.248 N 
HETATM   23  O   UNL     1       9.020   0.857  -7.472  1.00  0.00    -0.223 OA
ATOM     24  HN  UNL     1       9.760   2.882  -7.804  1.00  0.00     0.196 HD
ENDBRANCH  16  17
ENDBRANCH  15  16
ENDBRANCH   3  15
TORSDOF 6
