REMARK  2 active torsions:
REMARK  status: ('A' for Active; 'I' for Inactive)
REMARK    1  A    between atoms: C_1  and  C_2 
REMARK    2  A    between atoms: C_1  and  N_8 
ROOT
HETATM    1  C   UNL     1       0.826   1.621  -0.139  1.00  0.00     0.240 C 
HETATM    2  C   UNL     1       0.109   2.063  -1.423  1.00  0.00     0.037 C 
HETATM    3  C   UNL     1       0.202   3.582  -1.543  1.00  0.00     0.004 C 
HETATM    4  C   UNL     1      -0.326   4.273  -0.287  1.00  0.00     0.030 C 
HETATM    5  C   UNL     1       0.173   3.632   1.012  1.00  0.00     0.270 C 
HETATM    6  N   UNL     1       0.077   2.168   1.014  1.00  0.00     0.089 N 
HETATM    7  H   UNL     1      -0.905   1.902   0.931  1.00  0.00     0.316 HD
ENDROOT
BRANCH   1   8
HETATM    8  C   UNL     1       1.022   0.100  -0.040  1.00  0.00     0.183 C 
BRANCH   8   9
HETATM    9  N   UNL     1       2.012  -0.366  -1.003  1.00  0.00    -0.302 N 
HETATM   10  C   UNL     1       3.372  -0.256  -0.892  1.00  0.00     0.111 A 
HETATM   11  C   UNL     1       3.891  -0.723  -2.075  1.00  0.00     0.037 A 
HETATM   12  C   UNL     1       2.765  -1.101  -2.831  1.00  0.00     0.108 A 
HETATM   13  N   UNL     1       1.618  -0.895  -2.178  1.00  0.00    -0.310 N 
ATOM     14  HN  UNL     1       0.668  -1.092  -2.494  1.00  0.00     0.186 HD
ENDBRANCH   8   9
ENDBRANCH   1   8
TORSDOF 2
