REMARK  8 active torsions:
REMARK  status: ('A' for Active; 'I' for Inactive)
REMARK    1  A    between atoms: N_2  and  C_9 
REMARK    2  A    between atoms: C_6  and  N_8 
REMARK    3  A    between atoms: N_8  and  C_10 
REMARK    4  A    between atoms: C_16  and  C_25 
REMARK    5  A    between atoms: C_16  and  C_26 
REMARK    6  A    between atoms: N_18  and  C_28 
REMARK    7  A    between atoms: C_25  and  O_29 
REMARK    8  A    between atoms: C_26  and  O_30 
ROOT
HETATM    1  C   UNL     1      -1.736  -0.616   1.060  1.00  0.00     0.122 A 
HETATM    2  N   UNL     1      -2.620   1.213   1.874  1.00  0.00    -0.322 N 
HETATM    3  C   UNL     1      -1.665   0.778   0.988  1.00  0.00     0.140 A 
HETATM    4  N   UNL     1      -2.707  -1.011   1.967  1.00  0.00    -0.346 N 
ATOM      5  HN  UNL     1      -2.974  -1.963   2.217  1.00  0.00     0.167 HD
HETATM    6  C   UNL     1      -0.835  -1.379   0.269  1.00  0.00     0.135 A 
HETATM    7  C   UNL     1      -3.205   0.106   2.432  1.00  0.00     0.185 A 
HETATM    8  N   UNL     1      -0.832   1.493   0.214  1.00  0.00    -0.336 N 
ATOM      9  HN  UNL     1      -0.822   2.512   0.162  1.00  0.00     0.168 HD
HETATM   10  N   UNL     1       0.051  -0.669  -0.488  1.00  0.00    -0.337 N 
ATOM     11  HN  UNL     1       0.752  -1.153  -1.050  1.00  0.00     0.168 HD
HETATM   12  C   UNL     1      -0.008   0.682  -0.487  1.00  0.00     0.183 A 
ENDROOT
BRANCH   6  13
HETATM   13  N   UNL     1      -0.785  -2.779   0.302  1.00  0.00    -0.364 N 
HETATM   14  C   UNL     1      -2.053  -3.475   0.151  1.00  0.00     0.151 C 
BRANCH  13  15
HETATM   15  C   UNL     1       0.500  -3.444  -0.000  1.00  0.00     0.092 C 
HETATM   16  C   UNL     1       0.679  -3.786  -1.495  1.00  0.00     0.033 C 
HETATM   17  C   UNL     1       0.262  -5.229  -1.837  1.00  0.00     0.278 C 
HETATM   18  C   UNL     1       2.120  -3.479  -1.930  1.00  0.00     0.014 C 
HETATM   19  N   UNL     1       0.748  -6.293  -0.957  1.00  0.00     0.088 N 
HETATM   20  C   UNL     1       0.354  -6.006   0.426  1.00  0.00     0.274 C 
HETATM   21  C   UNL     1       0.779  -4.632   0.944  1.00  0.00     0.056 C 
BRANCH  19  22
HETATM   22  C   UNL     1       2.161  -6.661  -1.085  1.00  0.00     0.268 C 
HETATM   23  C   UNL     1       2.568  -7.125  -2.483  1.00  0.00     0.037 C 
ENDBRANCH  19  22
ENDBRANCH  13  15
ENDBRANCH   6  13
BRANCH   2  24
HETATM   24  C   UNL     1      -3.068   2.527   2.252  1.00  0.00     0.094 C 
HETATM   25  C   UNL     1      -3.534   3.433   1.074  1.00  0.00     0.039 C 
HETATM   26  C   UNL     1      -3.086   4.654   1.952  1.00  0.00     0.006 C 
HETATM   27  C   UNL     1      -2.017   3.636   2.523  1.00  0.00     0.039 C 
BRANCH  26  28
HETATM   28  C   UNL     1      -2.528   5.826   1.142  1.00  0.00     0.175 C 
BRANCH  28  29
HETATM   29  O   UNL     1      -1.797   6.708   1.992  1.00  0.00    -0.400 OA
HETATM   30  H   UNL     1      -2.395   6.961   2.726  1.00  0.00     0.209 HD
ENDBRANCH  28  29
ENDBRANCH  26  28
BRANCH  26  31
HETATM   31  C   UNL     1      -4.193   5.134   2.910  1.00  0.00     0.175 C 
BRANCH  31  32
HETATM   32  O   UNL     1      -3.624   5.906   3.963  1.00  0.00    -0.400 OA
HETATM   33  H   UNL     1      -3.272   5.282   4.625  1.00  0.00     0.209 HD
ENDBRANCH  31  32
ENDBRANCH  26  31
ENDBRANCH   2  24
TORSDOF 8
