REMARK  5 active torsions:
REMARK  status: ('A' for Active; 'I' for Inactive)
REMARK    1  A    between atoms: C_2  and  N_3 
REMARK    2  A    between atoms: N_6  and  C_7 
REMARK    3  A    between atoms: C_7  and  C_8 
REMARK    4  A    between atoms: C_8  and  N_9 
REMARK       I    between atoms: N_9  and  C_10 
REMARK       I    between atoms: C_10  and  N_12 
REMARK    5  A    between atoms: N_12  and  C_13 
ROOT
HETATM    1  N   UNL     1       5.642  -5.782   2.254  1.00  0.00    -0.341 N 
HETATM    2  C   UNL     1       5.467  -7.098   1.950  1.00  0.00     0.321 C 
HETATM    3  O   UNL     1       4.403  -7.671   1.863  1.00  0.00    -0.247 OA
HETATM    4  N   UNL     1       6.709  -7.726   1.664  1.00  0.00    -0.293 N 
HETATM    5  H   UNL     1       6.541  -5.417   2.522  1.00  0.00     0.164 HD
HETATM    6  H   UNL     1       7.550  -7.175   1.651  1.00  0.00     0.172 HD
ENDROOT
BRANCH   1   7
HETATM    7  C   UNL     1       4.451  -4.980   2.504  1.00  0.00     0.154 C 
BRANCH   7   8
HETATM    8  C   UNL     1       4.674  -3.517   2.116  1.00  0.00     0.292 C 
BRANCH   8   9
HETATM    9  N   UNL     1       3.503  -2.640   2.273  1.00  0.00     0.093 N 
HETATM   10  C   UNL     1       2.356  -2.990   1.400  1.00  0.00     0.302 C 
HETATM   11  C   UNL     1       2.549  -2.686  -0.109  1.00  0.00     0.302 C 
HETATM   12  N   UNL     1       3.044  -1.330  -0.435  1.00  0.00     0.091 N 
HETATM   13  C   UNL     1       4.172  -0.991   0.462  1.00  0.00     0.302 C 
HETATM   14  C   UNL     1       3.888  -1.242   1.965  1.00  0.00     0.302 C 
BRANCH  12  15
HETATM   15  C   UNL     1       2.017  -0.278  -0.347  1.00  0.00     0.268 C 
HETATM   16  C   UNL     1       0.899  -0.386  -1.375  1.00  0.00     0.037 C 
ENDBRANCH  12  15
ENDBRANCH   8   9
ENDBRANCH   7   8
ENDBRANCH   1   7
BRANCH   4  17
HETATM   17  C   UNL     1       6.769  -9.056   1.258  1.00  0.00     0.127 A 
HETATM   18  C   UNL     1       5.786 -10.015   1.359  1.00  0.00     0.076 A 
HETATM   19  C   UNL     1       6.305 -11.164   0.729  1.00  0.00     0.025 A 
HETATM   20  C   UNL     1       5.603 -12.449   0.501  1.00  0.00     0.070 C 
HETATM   21  N   UNL     1       7.557 -10.968   0.303  1.00  0.00    -0.302 N 
HETATM   22  N   UNL     1       7.820  -9.689   0.637  1.00  0.00    -0.281 N 
ATOM     23  HN  UNL     1       8.172 -11.633  -0.167  1.00  0.00     0.186 HD
HETATM   24  C   UNL     1       9.070  -9.099   0.225  1.00  0.00     0.179 C 
ENDBRANCH   4  17
TORSDOF 5
