REMARK  5 active torsions:
REMARK  status: ('A' for Active; 'I' for Inactive)
REMARK    1  A    between atoms: N_7  and  C_8 
REMARK    2  A    between atoms: C_8  and  C_9 
REMARK       I    between atoms: C_9  and  N_11 
REMARK    3  A    between atoms: N_11  and  C_12 
REMARK    4  A    between atoms: C_12  and  C_13 
REMARK    5  A    between atoms: C_13  and  C_14 
ROOT
HETATM    1  C   UNL     1       4.361  -3.770   0.475  1.00  0.00     0.237 C 
HETATM    2  O   UNL     1       3.189  -3.662   0.830  1.00  0.00    -0.272 OA
HETATM    3  N   UNL     1       4.858  -4.925  -0.130  1.00  0.00    -0.360 N 
HETATM    4  H   UNL     1       5.655  -4.799  -0.749  1.00  0.00     0.162 HD
ENDROOT
BRANCH   3   5
HETATM    5  C   UNL     1       3.916  -5.986  -0.423  1.00  0.00     0.123 C 
BRANCH   5   6
HETATM    6  C   UNL     1       4.534  -7.383  -0.580  1.00  0.00     0.029 C 
BRANCH   6   7
HETATM    7  C   UNL     1       3.470  -8.516  -0.705  1.00  0.00    -0.038 C 
HETATM    8  C   UNL     1       2.578  -8.307  -1.958  1.00  0.00     0.014 C 
HETATM    9  C   UNL     1       1.522  -9.418  -2.077  1.00  0.00    -0.013 C 
HETATM   10  C   UNL     1       0.644  -9.414  -0.815  1.00  0.00     0.009 C 
HETATM   11  C   UNL     1       2.227 -10.777  -2.204  1.00  0.00     0.009 C 
HETATM   12  C   UNL     1       1.507  -9.685   0.429  1.00  0.00    -0.013 C 
HETATM   13  C   UNL     1       2.215 -11.040   0.282  1.00  0.00     0.009 C 
HETATM   14  C   UNL     1       2.561  -8.577   0.555  1.00  0.00     0.014 C 
HETATM   15  C   UNL     1       3.106 -11.029  -0.969  1.00  0.00    -0.013 C 
HETATM   16  C   UNL     1       4.157  -9.903  -0.846  1.00  0.00     0.014 C 
ENDBRANCH   6   7
ENDBRANCH   5   6
ENDBRANCH   3   5
BRANCH   1  17
HETATM   17  C   UNL     1       5.365  -2.635   0.637  1.00  0.00     0.255 C 
BRANCH  17  18
HETATM   18  N   UNL     1       5.172  -1.623  -0.392  1.00  0.00    -0.249 N 
HETATM   19  C   UNL     1       5.837  -1.754  -1.600  1.00  0.00     0.262 A 
HETATM   20  C   UNL     1       5.616  -0.672  -2.582  1.00  0.00     0.078 A 
HETATM   21  O   UNL     1       6.579  -2.691  -1.886  1.00  0.00    -0.267 OA
HETATM   22  C   UNL     1       4.790   0.339  -2.310  1.00  0.00     0.031 A 
HETATM   23  C   UNL     1       4.142   0.337  -0.984  1.00  0.00     0.022 A 
HETATM   24  C   UNL     1       3.225   1.487  -0.650  1.00  0.00     0.069 C 
HETATM   25  N   UNL     1       4.331  -0.575  -0.082  1.00  0.00    -0.300 N 
ATOM     26  HN  UNL     1       3.872  -0.519   0.827  1.00  0.00     0.187 HD
ENDBRANCH  17  18
ENDBRANCH   1  17
TORSDOF 5
