REMARK  4 active torsions:
REMARK  status: ('A' for Active; 'I' for Inactive)
REMARK    1  A    between atoms: C_2  and  N_3 
REMARK    2  A    between atoms: C_2  and  C_15 
REMARK       I    between atoms: N_3  and  C_4 
REMARK    3  A    between atoms: C_4  and  C_6 
REMARK    4  A    between atoms: C_6  and  C_7 
ROOT
HETATM    1  N   UNL     1       2.790   1.458   0.082  1.00  0.00    -0.354 N 
HETATM    2  C   UNL     1       2.589   2.297  -0.994  1.00  0.00     0.222 C 
HETATM    3  O   UNL     1       1.986   1.950  -2.007  1.00  0.00    -0.273 OA
HETATM    4  H   UNL     1       3.287   1.786   0.903  1.00  0.00     0.162 HD
ENDROOT
BRANCH   2   5
HETATM    5  C   UNL     1       3.185   3.684  -0.853  1.00  0.00     0.146 C 
BRANCH   5   6
HETATM    6  C   UNL     1       2.242   4.761  -0.427  1.00  0.00     0.006 A 
HETATM    7  C   UNL     1       2.561   6.152  -0.333  1.00  0.00     0.038 A 
HETATM    8  C   UNL     1       3.840   6.840  -0.637  1.00  0.00     0.071 C 
HETATM    9  N   UNL     1       1.521   6.876   0.087  1.00  0.00    -0.265 N 
HETATM   10  O   UNL     1       0.493   5.977   0.266  1.00  0.00    -0.242 OA
ATOM     11  HN  UNL     1       1.493   7.884   0.243  1.00  0.00     0.194 HD
HETATM   12  C   UNL     1       0.915   4.722  -0.042  1.00  0.00     0.081 A 
HETATM   13  C   UNL     1      -0.113   3.672   0.105  1.00  0.00     0.079 C 
ENDBRANCH   5   6
ENDBRANCH   2   5
BRANCH   1  14
HETATM   14  C   UNL     1       2.318   0.069   0.098  1.00  0.00     0.109 C 
HETATM   15  C   UNL     1       1.277  -0.091   1.207  1.00  0.00     0.035 C 
BRANCH  14  16
HETATM   16  C   UNL     1       3.505  -0.911   0.242  1.00  0.00     0.143 C 
HETATM   17  C   UNL     1       3.139  -2.372  -0.008  1.00  0.00     0.036 C 
HETATM   18  C   UNL     1       3.782  -3.144   1.121  1.00  0.00     0.029 C 
HETATM   19  C   UNL     1       4.645  -2.131   1.837  1.00  0.00     0.168 C 
HETATM   20  O   UNL     1       4.068  -0.850   1.566  1.00  0.00    -0.384 OA
ENDBRANCH  14  16
ENDBRANCH   1  14
TORSDOF 4
