REMARK  4 active torsions:
REMARK  status: ('A' for Active; 'I' for Inactive)
REMARK    1  A    between atoms: O_1  and  C_2 
REMARK    2  A    between atoms: C_2  and  C_3 
REMARK    3  A    between atoms: C_4  and  N_5 
REMARK       I    between atoms: N_5  and  C_6 
REMARK       I    between atoms: C_6  and  N_8 
REMARK    4  A    between atoms: N_8  and  C_9 
ROOT
HETATM    1  N   UNL     1       4.866  -2.254   1.194  1.00  0.00    -0.337 N 
HETATM    2  C   UNL     1       5.784  -1.753   0.299  1.00  0.00     0.321 C 
HETATM    3  O   UNL     1       5.463  -1.139  -0.712  1.00  0.00    -0.247 OA
HETATM    4  N   UNL     1       7.068  -2.114   0.642  1.00  0.00    -0.308 N 
HETATM    5  H   UNL     1       5.156  -2.223   2.162  1.00  0.00     0.164 HD
HETATM    6  H   UNL     1       7.119  -2.998   1.130  1.00  0.00     0.170 HD
ENDROOT
BRANCH   1   7
HETATM    7  C   UNL     1       3.445  -2.143   0.907  1.00  0.00     0.096 C 
HETATM    8  C   UNL     1       2.856  -0.745   1.215  1.00  0.00     0.036 C 
HETATM    9  C   UNL     1       1.691  -1.077   2.190  1.00  0.00    -0.006 C 
HETATM   10  C   UNL     1       0.563  -1.851   1.487  1.00  0.00     0.005 C 
HETATM   11  C   UNL     1       2.323  -2.187   3.032  1.00  0.00     0.012 C 
HETATM   12  C   UNL     1       1.209  -3.213   1.195  1.00  0.00     0.007 C 
HETATM   13  C   UNL     1       2.611  -3.073   1.816  1.00  0.00     0.009 C 
BRANCH   8  14
HETATM   14  C   UNL     1       2.457   0.023  -0.042  1.00  0.00     0.171 C 
BRANCH  14  15
HETATM   15  O   UNL     1       1.727   1.188   0.320  1.00  0.00    -0.400 OA
HETATM   16  H   UNL     1       1.472   1.625  -0.511  1.00  0.00     0.209 HD
ENDBRANCH  14  15
ENDBRANCH   8  14
ENDBRANCH   1   7
BRANCH   4  17
HETATM   17  C   UNL     1       8.178  -1.755  -0.149  1.00  0.00     0.051 A 
HETATM   18  C   UNL     1       9.181  -2.695  -0.376  1.00  0.00     0.032 A 
HETATM   19  C   UNL     1      10.253  -2.366  -1.204  1.00  0.00     0.019 A 
HETATM   20  C   UNL     1      10.311  -1.086  -1.734  1.00  0.00     0.088 A 
HETATM   21  N   UNL     1       9.380  -0.137  -1.505  1.00  0.00    -0.373 N 
HETATM   22  C   UNL     1       8.325  -0.498  -0.731  1.00  0.00     0.117 A 
ATOM     23  HN  UNL     1       9.464   0.802  -1.893  1.00  0.00     0.164 HD
ENDBRANCH   4  17
TORSDOF 4
