REMARK  5 active torsions:
REMARK  status: ('A' for Active; 'I' for Inactive)
REMARK    1  A    between atoms: C_2  and  N_3 
REMARK    2  A    between atoms: N_6  and  C_9 
REMARK    3  A    between atoms: C_9  and  C_11 
REMARK    4  A    between atoms: C_11  and  N_12 
REMARK       I    between atoms: N_12  and  C_13 
REMARK       I    between atoms: C_13  and  N_15 
REMARK    5  A    between atoms: N_15  and  C_16 
ROOT
HETATM    1  N   UNL     1       5.980   3.799   2.397  1.00  0.00    -0.341 N 
HETATM    2  C   UNL     1       6.407   5.114   2.399  1.00  0.00     0.322 C 
HETATM    3  O   UNL     1       7.594   5.413   2.471  1.00  0.00    -0.247 OA
HETATM    4  N   UNL     1       5.343   5.975   2.327  1.00  0.00    -0.288 N 
HETATM    5  H   UNL     1       5.077   3.648   2.000  1.00  0.00     0.164 HD
HETATM    6  H   UNL     1       4.408   5.636   2.465  1.00  0.00     0.172 HD
ENDROOT
BRANCH   1   7
HETATM    7  C   UNL     1       6.970   2.736   2.280  1.00  0.00     0.159 C 
BRANCH   7   8
HETATM    8  C   UNL     1       6.394   1.292   2.143  1.00  0.00     0.236 C 
HETATM    9  C   UNL     1       7.544   0.334   2.519  1.00  0.00     0.044 C 
BRANCH   8  10
HETATM   10  N   UNL     1       5.856   0.957   0.786  1.00  0.00     0.097 N 
HETATM   11  C   UNL     1       4.761   1.836   0.327  1.00  0.00     0.303 C 
HETATM   12  C   UNL     1       3.476   1.686   1.180  1.00  0.00     0.302 C 
HETATM   13  N   UNL     1       2.909   0.322   1.160  1.00  0.00     0.091 N 
HETATM   14  C   UNL     1       3.992  -0.648   1.476  1.00  0.00     0.302 C 
HETATM   15  C   UNL     1       5.316  -0.428   0.699  1.00  0.00     0.303 C 
BRANCH  13  16
HETATM   16  C   UNL     1       2.278  -0.012  -0.128  1.00  0.00     0.268 C 
HETATM   17  C   UNL     1       1.076   0.869  -0.461  1.00  0.00     0.037 C 
ENDBRANCH  13  16
ENDBRANCH   8  10
ENDBRANCH   7   8
ENDBRANCH   1   7
BRANCH   4  18
HETATM   18  C   UNL     1       5.530   7.328   2.366  1.00  0.00     0.168 A 
HETATM   19  N   UNL     1       6.624   8.040   2.253  1.00  0.00    -0.279 N 
HETATM   20  N   UNL     1       6.382   9.384   2.447  1.00  0.00    -0.303 N 
ATOM     21  HN  UNL     1       7.543   7.648   2.047  1.00  0.00     0.189 HD
HETATM   22  C   UNL     1       5.110   9.621   2.691  1.00  0.00     0.160 A 
ATOM     23  HN  UNL     1       7.101  10.106   2.406  1.00  0.00     0.186 HD
HETATM   24  S   UNL     1       4.104   8.229   2.632  1.00  0.00    -0.046 SA
ENDBRANCH   4  18
TORSDOF 5
