REMARK  6 active torsions:
REMARK  status: ('A' for Active; 'I' for Inactive)
REMARK    1  A    between atoms: N_5  and  C_6 
REMARK    2  A    between atoms: C_6  and  C_7 
REMARK    3  A    between atoms: C_7  and  O_8 
REMARK    4  A    between atoms: C_12  and  C_19 
REMARK    5  A    between atoms: C_14  and  C_15 
REMARK    6  A    between atoms: C_15  and  O_17 
ROOT
HETATM    1  C   UNL     1       0.889   0.239   0.060  1.00  0.00     0.070 C 
HETATM    2  C   UNL     1       2.362   0.048   0.035  1.00  0.00     0.037 A 
HETATM    3  N   UNL     1       3.141   1.141   0.023  1.00  0.00    -0.300 N 
ATOM      4  HN  UNL     1       2.850   2.119   0.029  1.00  0.00     0.187 HD
HETATM    5  N   UNL     1       4.397   0.649   0.001  1.00  0.00    -0.274 N 
HETATM    6  C   UNL     1       4.445  -0.720  -0.004  1.00  0.00     0.136 A 
HETATM    7  N   UNL     1       5.561  -1.470  -0.012  1.00  0.00    -0.344 N 
ATOM      8  HN  UNL     1       6.493  -1.059  -0.060  1.00  0.00     0.167 HD
HETATM    9  C   UNL     1       5.362  -2.807   0.048  1.00  0.00     0.016 A 
HETATM   10  C   UNL     1       4.083  -3.370   0.081  1.00  0.00     0.045 A 
HETATM   11  C   UNL     1       2.937  -2.552   0.045  1.00  0.00     0.055 A 
HETATM   12  C   UNL     1       3.126  -1.159   0.028  1.00  0.00     0.050 A 
ENDROOT
BRANCH   5  13
HETATM   13  C   UNL     1       5.546   1.535   0.056  1.00  0.00     0.177 C 
BRANCH  13  14
HETATM   14  C   UNL     1       5.198   3.023   0.063  1.00  0.00     0.185 C 
BRANCH  14  15
HETATM   15  O   UNL     1       4.458   3.383   1.229  1.00  0.00    -0.399 OA
HETATM   16  H   UNL     1       3.615   2.883   1.158  1.00  0.00     0.209 HD
ENDBRANCH  14  15
ENDBRANCH  13  14
ENDBRANCH   5  13
BRANCH   9  17
HETATM   17  C   UNL     1       6.597  -3.675   0.138  1.00  0.00     0.036 A 
HETATM   18  C   UNL     1       7.621  -3.599  -0.975  1.00  0.00     0.011 A 
HETATM   19  C   UNL     1       6.833  -4.857  -0.774  1.00  0.00     0.011 A 
ENDBRANCH   9  17
BRANCH  11  20
HETATM   20  C   UNL     1       1.581  -3.140   0.122  1.00  0.00     0.177 C 
HETATM   21  O   UNL     1       0.649  -2.603   0.691  1.00  0.00    -0.646 OA
BRANCH  20  22
HETATM   22  O   UNL     1       1.464  -4.336  -0.492  1.00  0.00    -0.773 OA
HETATM   23  H   UNL     1       2.211  -4.610  -1.053  1.00  0.00     0.167 HD
ENDBRANCH  20  22
ENDBRANCH  11  20
TORSDOF 6
