REMARK  7 active torsions:
REMARK  status: ('A' for Active; 'I' for Inactive)
REMARK    1  A    between atoms: N_2  and  C_9 
REMARK    2  A    between atoms: C_4  and  N_5 
REMARK    3  A    between atoms: C_11  and  C_16 
REMARK       I    between atoms: C_16  and  N_25 
REMARK    4  A    between atoms: C_17  and  C_26 
REMARK    5  A    between atoms: C_17  and  C_27 
REMARK    6  A    between atoms: C_26  and  O_28 
REMARK    7  A    between atoms: C_27  and  O_29 
ROOT
HETATM    1  C   UNL     1       0.336  -0.687   0.072  1.00  0.00     0.117 A 
HETATM    2  N   UNL     1       1.566   1.118   0.056  1.00  0.00    -0.322 N 
HETATM    3  C   UNL     1       0.253   0.705   0.046  1.00  0.00     0.140 A 
HETATM    4  C   UNL     1      -0.865  -1.440   0.022  1.00  0.00     0.115 A 
HETATM    5  N   UNL     1       1.652  -1.104   0.134  1.00  0.00    -0.346 N 
ATOM      6  HN  UNL     1       1.999  -2.061   0.190  1.00  0.00     0.167 HD
HETATM    7  C   UNL     1       2.354  -0.001   0.105  1.00  0.00     0.185 A 
HETATM    8  N   UNL     1      -0.874   1.431   0.015  1.00  0.00    -0.336 N 
ATOM      9  HN  UNL     1      -0.907   2.450  -0.003  1.00  0.00     0.168 HD
HETATM   10  N   UNL     1      -2.025  -0.730   0.013  1.00  0.00    -0.341 N 
ATOM     11  HN  UNL     1      -2.926  -1.209   0.008  1.00  0.00     0.167 HD
HETATM   12  C   UNL     1      -1.964   0.625   0.011  1.00  0.00     0.183 A 
ENDROOT
BRANCH   4  13
HETATM   13  N   UNL     1      -0.854  -2.849   0.031  1.00  0.00    -0.262 NA
HETATM   14  C   UNL     1      -2.029  -3.430   0.719  1.00  0.00     0.111 C 
HETATM   15  C   UNL     1      -1.745  -4.910   1.025  1.00  0.00     0.091 C 
HETATM   16  C   UNL     1      -1.397  -5.674  -0.258  1.00  0.00     0.017 C 
HETATM   17  C   UNL     1      -0.276  -4.978  -1.022  1.00  0.00     0.020 C 
HETATM   18  C   UNL     1      -0.595  -3.492  -1.285  1.00  0.00     0.060 C 
HETATM   19  C   UNL     1       0.564  -2.909  -2.096  1.00  0.00     0.027 C 
BRANCH  15  20
HETATM   20  C   UNL     1      -2.936  -5.568   1.695  1.00  0.00     0.220 C 
HETATM   21  O   UNL     1      -4.087  -5.154   1.628  1.00  0.00    -0.273 OA
HETATM   22  N   UNL     1      -2.653  -6.730   2.356  1.00  0.00    -0.370 N 
HETATM   23  H   UNL     1      -1.715  -7.086   2.475  1.00  0.00     0.159 HD
HETATM   24  H   UNL     1      -3.415  -7.202   2.827  1.00  0.00     0.159 HD
ENDBRANCH  15  20
ENDBRANCH   4  13
BRANCH   2  25
HETATM   25  C   UNL     1       2.182   2.413   0.065  1.00  0.00     0.094 C 
HETATM   26  C   UNL     1       1.737   3.348   1.224  1.00  0.00     0.039 C 
HETATM   27  C   UNL     1       2.070   4.547   0.259  1.00  0.00     0.006 C 
HETATM   28  C   UNL     1       1.636   3.529  -0.870  1.00  0.00     0.039 C 
BRANCH  27  29
HETATM   29  C   UNL     1       1.173   5.774   0.390  1.00  0.00     0.175 C 
BRANCH  29  30
HETATM   30  O   UNL     1       1.376   6.373   1.669  1.00  0.00    -0.400 OA
HETATM   31  H   UNL     1       0.887   5.832   2.316  1.00  0.00     0.209 HD
ENDBRANCH  29  30
ENDBRANCH  27  29
BRANCH  27  32
HETATM   32  C   UNL     1       3.555   4.969   0.199  1.00  0.00     0.175 C 
BRANCH  32  33
HETATM   33  O   UNL     1       4.006   5.361   1.491  1.00  0.00    -0.400 OA
HETATM   34  H   UNL     1       3.438   6.109   1.768  1.00  0.00     0.209 HD
ENDBRANCH  32  33
ENDBRANCH  27  32
ENDBRANCH   2  25
TORSDOF 7
