REMARK  5 active torsions:
REMARK  status: ('A' for Active; 'I' for Inactive)
REMARK    1  A    between atoms: C_4  and  N_5 
REMARK       I    between atoms: N_5  and  C_6 
REMARK       I    between atoms: C_6  and  N_8 
REMARK    2  A    between atoms: N_8  and  C_9 
REMARK    3  A    between atoms: C_9  and  C_10 
REMARK    4  A    between atoms: C_10  and  C_11 
REMARK    5  A    between atoms: C_11  and  N_12 
ROOT
HETATM    1  N   UNL     1       6.772   1.596   0.966  1.00  0.00    -0.293 N 
HETATM    2  C   UNL     1       6.794   2.947   1.165  1.00  0.00     0.321 C 
HETATM    3  O   UNL     1       6.816   3.397   2.310  1.00  0.00    -0.247 OA
HETATM    4  N   UNL     1       6.768   3.733   0.057  1.00  0.00    -0.343 N 
HETATM    5  H   UNL     1       6.755   1.052   1.817  1.00  0.00     0.172 HD
HETATM    6  H   UNL     1       6.864   3.259  -0.837  1.00  0.00     0.164 HD
ENDROOT
BRANCH   1   7
HETATM    7  C   UNL     1       6.778   0.918  -0.238  1.00  0.00     0.132 A 
HETATM    8  C   UNL     1       6.730  -0.491  -0.381  1.00  0.00     0.084 A 
HETATM    9  C   UNL     1       6.761  -0.702  -1.739  1.00  0.00     0.076 A 
HETATM   10  C   UNL     1       6.746  -1.883  -2.617  1.00  0.00     0.079 C 
HETATM   11  O   UNL     1       6.824   0.497  -2.371  1.00  0.00    -0.241 OA
HETATM   12  N   UNL     1       6.835   1.506  -1.439  1.00  0.00    -0.245 N 
ATOM     13  HN  UNL     1       6.878   2.508  -1.626  1.00  0.00     0.196 HD
ENDBRANCH   1   7
BRANCH   4  14
HETATM   14  C   UNL     1       6.809   5.177   0.069  1.00  0.00     0.126 C 
BRANCH  14  15
HETATM   15  C   UNL     1       8.240   5.698   0.082  1.00  0.00     0.039 C 
BRANCH  15  16
HETATM   16  C   UNL     1       8.267   7.229   0.062  1.00  0.00     0.127 C 
BRANCH  16  17
HETATM   17  N   UNL     1       9.629   7.736   0.092  1.00  0.00    -0.352 N 
HETATM   18  C   UNL     1      10.326   7.950   1.332  1.00  0.00     0.126 C 
HETATM   19  C   UNL     1      11.771   8.189   0.938  1.00  0.00     0.029 C 
HETATM   20  C   UNL     1      11.895   7.697  -0.497  1.00  0.00     0.104 C 
HETATM   21  C   UNL     1      10.479   7.613  -0.995  1.00  0.00     0.219 C 
HETATM   22  O   UNL     1      10.153   7.378  -2.148  1.00  0.00    -0.273 OA
ENDBRANCH  16  17
ENDBRANCH  15  16
ENDBRANCH  14  15
ENDBRANCH   4  14
TORSDOF 5
