REMARK  4 active torsions:
REMARK  status: ('A' for Active; 'I' for Inactive)
REMARK    1  A    between atoms: C_2  and  C_3 
REMARK       I    between atoms: C_2  and  N_12 
REMARK    2  A    between atoms: C_3  and  N_4 
REMARK    3  A    between atoms: N_12  and  C_13 
REMARK    4  A    between atoms: C_13  and  C_14 
ROOT
HETATM    1  O   UNL     1       2.711   0.715  -0.966  1.00  0.00    -0.272 OA
HETATM    2  C   UNL     1       2.145  -0.005  -0.147  1.00  0.00     0.235 C 
HETATM    3  N   UNL     1       2.814  -0.712   0.831  1.00  0.00    -0.359 N 
HETATM    4  H   UNL     1       2.302  -1.430   1.338  1.00  0.00     0.162 HD
ENDROOT
BRANCH   2   5
HETATM    5  C   UNL     1       0.633  -0.216  -0.160  1.00  0.00     0.235 C 
BRANCH   5   6
HETATM    6  N   UNL     1       0.248  -1.225  -1.140  1.00  0.00    -0.301 N 
HETATM    7  C   UNL     1      -0.046  -0.847  -2.433  1.00  0.00     0.102 A 
HETATM    8  C   UNL     1      -0.465  -1.726  -3.344  1.00  0.00     0.092 A 
HETATM    9  C   UNL     1      -0.622  -3.136  -2.949  1.00  0.00     0.250 A 
HETATM   10  O   UNL     1      -1.085  -3.963  -3.725  1.00  0.00    -0.268 OA
HETATM   11  N   UNL     1      -0.226  -3.445  -1.680  1.00  0.00    -0.275 N 
HETATM   12  C   UNL     1       0.200  -2.551  -0.734  1.00  0.00     0.329 A 
HETATM   13  H   UNL     1      -0.315  -4.407  -1.395  1.00  0.00     0.173 HD
HETATM   14  O   UNL     1       0.512  -2.924   0.398  1.00  0.00    -0.246 OA
ENDBRANCH   5   6
ENDBRANCH   2   5
BRANCH   3  15
HETATM   15  C   UNL     1       4.250  -0.619   1.021  1.00  0.00     0.129 C 
BRANCH  15  16
HETATM   16  C   UNL     1       4.663   0.366   2.113  1.00  0.00     0.029 C 
HETATM   17  C   UNL     1       4.076   0.092   3.489  1.00  0.00     0.034 C 
HETATM   18  C   UNL     1       3.820   1.469   4.078  1.00  0.00     0.168 C 
HETATM   19  O   UNL     1       4.321   2.432   3.146  1.00  0.00    -0.391 OA
HETATM   20  C   UNL     1       4.292   1.814   1.854  1.00  0.00     0.173 C 
ENDBRANCH  15  16
ENDBRANCH   3  15
TORSDOF 4
