REMARK  4 active torsions:
REMARK  status: ('A' for Active; 'I' for Inactive)
REMARK    1  A    between atoms: C_2  and  C_4 
REMARK    2  A    between atoms: C_2  and  N_15 
REMARK    3  A    between atoms: C_4  and  N_5 
REMARK       I    between atoms: N_5  and  C_6 
REMARK       I    between atoms: C_6  and  N_8 
REMARK    4  A    between atoms: N_8  and  C_9 
ROOT
HETATM    1  N   UNL     1       4.441  -1.638  -0.061  1.00  0.00    -0.340 N 
HETATM    2  C   UNL     1       5.074  -2.865  -0.165  1.00  0.00     0.322 C 
HETATM    3  O   UNL     1       4.446  -3.914  -0.120  1.00  0.00    -0.247 OA
HETATM    4  N   UNL     1       6.432  -2.708  -0.248  1.00  0.00    -0.289 N 
HETATM    5  H   UNL     1       4.813  -0.898  -0.645  1.00  0.00     0.164 HD
HETATM    6  H   UNL     1       6.838  -1.846   0.074  1.00  0.00     0.172 HD
ENDROOT
BRANCH   1   7
HETATM    7  C   UNL     1       3.002  -1.602   0.128  1.00  0.00     0.165 C 
BRANCH   7   8
HETATM    8  C   UNL     1       2.437  -0.145   0.184  1.00  0.00     0.168 C 
HETATM    9  C   UNL     1       0.925  -0.261   0.454  1.00  0.00     0.050 C 
HETATM   10  C   UNL     1       3.065   0.514   1.446  1.00  0.00     0.050 C 
BRANCH   8  11
HETATM   11  N   UNL     1       2.832   0.636  -1.029  1.00  0.00     0.103 N 
HETATM   12  C   UNL     1       2.415   2.054  -1.087  1.00  0.00     0.299 C 
HETATM   13  C   UNL     1       1.007   2.295  -1.658  1.00  0.00     0.198 C 
HETATM   14  O   UNL     1       0.870   1.723  -2.962  1.00  0.00    -0.388 OA
HETATM   15  C   UNL     1       1.157   0.321  -2.939  1.00  0.00     0.198 C 
HETATM   16  C   UNL     1       2.553   0.035  -2.356  1.00  0.00     0.299 C 
ENDBRANCH   8  11
ENDBRANCH   7   8
ENDBRANCH   1   7
BRANCH   4  17
HETATM   17  C   UNL     1       7.261  -3.782  -0.396  1.00  0.00     0.152 A 
HETATM   18  N   UNL     1       6.972  -5.003  -0.763  1.00  0.00    -0.346 N 
HETATM   19  C   UNL     1       8.119  -5.770  -0.759  1.00  0.00     0.097 A 
ATOM     20  HN  UNL     1       6.042  -5.337  -1.014  1.00  0.00     0.167 HD
HETATM   21  C   UNL     1       9.272  -5.104  -0.406  1.00  0.00     0.070 A 
HETATM   22  S   UNL     1       8.908  -3.457  -0.076  1.00  0.00    -0.064 SA
ENDBRANCH   4  17
TORSDOF 4
