REMARK  5 active torsions:
REMARK  status: ('A' for Active; 'I' for Inactive)
REMARK    1  A    between atoms: N_7  and  C_8 
REMARK    2  A    between atoms: C_8  and  C_9 
REMARK    3  A    between atoms: C_9  and  O_10 
REMARK    4  A    between atoms: C_9  and  C_11 
REMARK    5  A    between atoms: C_11  and  N_12 
ROOT
HETATM    1  N   UNL     1       0.172   4.756   0.045  1.00  0.00    -0.339 N 
HETATM    2  C   UNL     1      -0.842   3.841   0.089  1.00  0.00     0.184 A 
HETATM    3  N   UNL     1      -2.018   4.421   0.036  1.00  0.00    -0.350 N 
ATOM      4  HN  UNL     1      -2.931   3.967  -0.002  1.00  0.00     0.166 HD
HETATM    5  C   UNL     1      -1.757   5.769   0.042  1.00  0.00     0.060 A 
HETATM    6  C   UNL     1      -2.644   6.854   0.048  1.00  0.00     0.039 A 
HETATM    7  C   UNL     1      -2.142   8.172   0.065  1.00  0.00    -0.054 A 
HETATM    8  C   UNL     1      -3.128   9.309   0.095  1.00  0.00     0.049 C 
HETATM    9  C   UNL     1      -0.748   8.394   0.062  1.00  0.00    -0.054 A 
HETATM   10  C   UNL     1      -0.142   9.775   0.073  1.00  0.00     0.049 C 
HETATM   11  C   UNL     1       0.147   7.304   0.053  1.00  0.00     0.039 A 
HETATM   12  C   UNL     1      -0.388   6.011   0.048  1.00  0.00     0.062 A 
ENDROOT
BRANCH   1  13
HETATM   13  C   UNL     1       1.588   4.443   0.031  1.00  0.00     0.163 C 
BRANCH  13  14
HETATM   14  C   UNL     1       2.184   4.298  -1.382  1.00  0.00     0.156 C 
BRANCH  14  15
HETATM   15  C   UNL     1       1.600   3.156  -2.234  1.00  0.00     0.181 C 
BRANCH  15  16
HETATM   16  N   UNL     1       1.750   1.841  -1.663  1.00  0.00    -0.263 N 
HETATM   17  C   UNL     1       0.944   0.737  -1.771  1.00  0.00     0.105 A 
HETATM   18  C   UNL     1      -0.276   0.636  -2.595  1.00  0.00     0.091 C 
HETATM   19  N   UNL     1       1.465  -0.210  -1.018  1.00  0.00    -0.274 N 
HETATM   20  N   UNL     1       2.609   0.310  -0.470  1.00  0.00    -0.007 NA
ATOM     21  HN  UNL     1       1.090  -1.147  -0.871  1.00  0.00     0.185 HD
HETATM   22  N   UNL     1       2.797   1.557  -0.871  1.00  0.00    -0.005 NA
ENDBRANCH  15  16
ENDBRANCH  14  15
BRANCH  14  23
HETATM   23  O   UNL     1       2.101   5.532  -2.111  1.00  0.00    -0.392 OA
HETATM   24  H   UNL     1       1.172   5.831  -2.144  1.00  0.00     0.210 HD
ENDBRANCH  14  23
ENDBRANCH  13  14
ENDBRANCH   1  13
TORSDOF 5
