REMARK  7 active torsions:
REMARK  status: ('A' for Active; 'I' for Inactive)
REMARK    1  A    between atoms: C_2  and  N_4 
REMARK       I    between atoms: N_4  and  C_5 
REMARK    2  A    between atoms: C_5  and  C_7 
REMARK    3  A    between atoms: C_7  and  C_8 
REMARK    4  A    between atoms: C_8  and  N_9 
REMARK    5  A    between atoms: N_9  and  C_10 
REMARK    6  A    between atoms: C_10  and  C_12 
REMARK    7  A    between atoms: C_12  and  N_13 
ROOT
HETATM    1  N   UNL     1       7.032  -4.110   1.384  1.00  0.00     0.089 N 
HETATM    2  H   UNL     1       6.754  -4.825   0.704  1.00  0.00     0.316 HD
ENDROOT
BRANCH   1   3
HETATM    3  C   UNL     1       6.466  -2.827   0.945  1.00  0.00     0.279 C 
BRANCH   3   4
HETATM    4  C   UNL     1       4.942  -2.878   0.879  1.00  0.00     0.132 C 
BRANCH   4   5
HETATM    5  C   UNL     1       4.334  -3.041   2.257  1.00  0.00     0.219 C 
HETATM    6  N   UNL     1       4.086  -4.356   2.596  1.00  0.00    -0.357 N 
HETATM    7  H   UNL     1       4.595  -5.053   2.066  1.00  0.00     0.162 HD
HETATM    8  O   UNL     1       4.092  -2.084   2.984  1.00  0.00    -0.274 OA
BRANCH   6   9
HETATM    9  C   UNL     1       3.617  -4.734   3.920  1.00  0.00     0.076 C 
HETATM   10  C   UNL     1       2.823  -6.033   3.833  1.00  0.00     0.032 C 
HETATM   11  C   UNL     1       4.793  -4.882   4.884  1.00  0.00     0.032 C 
ENDBRANCH   6   9
ENDBRANCH   4   5
ENDBRANCH   3   4
ENDBRANCH   1   3
BRANCH   1  12
HETATM   12  C   UNL     1       8.516  -4.115   1.424  1.00  0.00     0.236 C 
HETATM   13  C   UNL     1       9.088  -3.057   2.374  1.00  0.00     0.044 C 
BRANCH  12  14
HETATM   14  C   UNL     1       9.037  -5.502   1.870  1.00  0.00     0.183 C 
BRANCH  14  15
HETATM   15  N   UNL     1       8.627  -6.582   0.991  1.00  0.00    -0.301 N 
HETATM   16  C   UNL     1       7.863  -7.665   1.327  1.00  0.00     0.118 A 
HETATM   17  C   UNL     1       7.657  -8.372   0.161  1.00  0.00    -0.028 A 
HETATM   18  C   UNL     1       6.886  -9.618  -0.036  1.00  0.00     0.051 C 
HETATM   19  C   UNL     1       8.360  -7.631  -0.817  1.00  0.00     0.115 A 
HETATM   20  N   UNL     1       8.949  -6.544  -0.315  1.00  0.00    -0.310 N 
ATOM     21  HN  UNL     1       9.511  -5.848  -0.806  1.00  0.00     0.186 HD
ENDBRANCH  14  15
ENDBRANCH  12  14
ENDBRANCH   1  12
TORSDOF 7
