REMARK  8 active torsions:
REMARK  status: ('A' for Active; 'I' for Inactive)
REMARK    1  A    between atoms: O_2  and  C_3 
REMARK    2  A    between atoms: C_3  and  C_4 
REMARK    3  A    between atoms: C_4  and  N_5 
REMARK       I    between atoms: N_5  and  C_6 
REMARK    4  A    between atoms: C_6  and  C_8 
REMARK    5  A    between atoms: C_8  and  N_9 
REMARK    6  A    between atoms: C_12  and  C_13 
REMARK    7  A    between atoms: C_13  and  N_14 
REMARK    8  A    between atoms: N_18  and  C_19 
ROOT
HETATM    1  N   UNL     1       8.207   2.551   3.619  1.00  0.00    -0.256 N 
HETATM    2  C   UNL     1       8.862   3.433   2.771  1.00  0.00     0.273 A 
HETATM    3  O   UNL     1       8.275   4.194   2.004  1.00  0.00    -0.266 OA
HETATM    4  C   UNL     1      10.338   3.419   2.831  1.00  0.00     0.110 A 
HETATM    5  C   UNL     1      10.945   2.542   3.635  1.00  0.00     0.123 A 
HETATM    6  N   UNL     1      10.241   1.667   4.432  1.00  0.00    -0.303 N 
HETATM    7  C   UNL     1       8.840   1.671   4.499  1.00  0.00     0.332 A 
HETATM    8  O   UNL     1       8.217   0.969   5.295  1.00  0.00    -0.246 OA
ENDROOT
BRANCH   1   9
HETATM    9  C   UNL     1       6.749   2.528   3.581  1.00  0.00     0.239 C 
BRANCH   9  10
HETATM   10  C   UNL     1       6.296   1.528   2.518  1.00  0.00     0.236 C 
HETATM   11  N   UNL     1       6.225   2.042   1.242  1.00  0.00    -0.358 N 
HETATM   12  H   UNL     1       6.331   3.043   1.098  1.00  0.00     0.162 HD
HETATM   13  O   UNL     1       6.090   0.342   2.764  1.00  0.00    -0.272 OA
BRANCH  11  14
HETATM   14  C   UNL     1       5.772   1.245   0.114  1.00  0.00     0.148 C 
BRANCH  14  15
HETATM   15  C   UNL     1       4.247   1.192   0.003  1.00  0.00     0.186 C 
BRANCH  15  16
HETATM   16  O   UNL     1       3.749   2.507  -0.277  1.00  0.00    -0.394 OA
HETATM   17  C   UNL     1       2.336   2.504  -0.438  1.00  0.00     0.201 C 
ENDBRANCH  15  16
ENDBRANCH  14  15
ENDBRANCH  11  14
ENDBRANCH   9  10
ENDBRANCH   1   9
BRANCH   4  18
HETATM   18  C   UNL     1      11.150   4.350   1.946  1.00  0.00    -0.030 C 
BRANCH  18  19
HETATM   19  N   UNL     1      11.824   5.123   1.211  1.00  0.00    -0.365 N 
ATOM     20  HN2 UNL     1      11.271   4.498   1.797  1.00  0.00     0.165 HD
ATOM     21  HN1 UNL     1      12.369   5.748   0.617  1.00  0.00     0.165 HD
ENDBRANCH  18  19
ENDBRANCH   4  18
BRANCH   6  22
HETATM   22  C   UNL     1      11.000   0.797   5.305  1.00  0.00     0.094 A 
HETATM   23  C   UNL     1      12.048  -0.157   4.782  1.00  0.00     0.028 A 
HETATM   24  C   UNL     1      10.767  -0.693   5.339  1.00  0.00     0.028 A 
ENDBRANCH   6  22
TORSDOF 8
