REMARK  6 active torsions:
REMARK  status: ('A' for Active; 'I' for Inactive)
REMARK    1  A    between atoms: N_2  and  C_13 
REMARK    2  A    between atoms: C_6  and  N_7 
REMARK    3  A    between atoms: C_13  and  C_16 
REMARK    4  A    between atoms: C_16  and  O_27 
REMARK       I    between atoms: C_17  and  N_18 
REMARK    5  A    between atoms: N_18  and  C_23 
REMARK    6  A    between atoms: C_19  and  C_23 
ROOT
HETATM    1  C   UNL     1       0.350  -0.780  -0.117  1.00  0.00     0.117 A 
HETATM    2  N   UNL     1       1.423   1.123  -0.073  1.00  0.00    -0.324 N 
HETATM    3  C   UNL     1       0.166   0.597  -0.126  1.00  0.00     0.140 A 
HETATM    4  N   UNL     1       1.701  -1.080  -0.072  1.00  0.00    -0.346 N 
ATOM      5  HN  UNL     1       2.131  -2.005  -0.082  1.00  0.00     0.167 HD
HETATM    6  C   UNL     1      -0.818  -1.585  -0.116  1.00  0.00     0.114 A 
HETATM    7  C   UNL     1       2.311   0.084  -0.013  1.00  0.00     0.185 A 
HETATM    8  N   UNL     1      -0.992   1.272  -0.154  1.00  0.00    -0.336 N 
ATOM      9  HN  UNL     1      -1.071   2.288  -0.183  1.00  0.00     0.168 HD
HETATM   10  N   UNL     1      -2.014  -0.925  -0.115  1.00  0.00    -0.341 N 
ATOM     11  HN  UNL     1      -2.889  -1.449  -0.097  1.00  0.00     0.167 HD
HETATM   12  C   UNL     1      -2.032   0.424  -0.138  1.00  0.00     0.183 A 
ENDROOT
BRANCH   6  13
HETATM   13  N   UNL     1      -0.796  -2.981  -0.030  1.00  0.00    -0.263 NA
HETATM   14  C   UNL     1      -2.109  -3.634   0.091  1.00  0.00     0.130 C 
HETATM   15  C   UNL     1      -1.888  -5.110   0.480  1.00  0.00     0.152 C 
HETATM   16  O   UNL     1      -1.059  -5.785  -0.500  1.00  0.00    -0.382 OA
HETATM   17  C   UNL     1       0.223  -5.137  -0.596  1.00  0.00     0.183 C 
HETATM   18  C   UNL     1       0.089  -3.658  -0.992  1.00  0.00     0.123 C 
BRANCH  15  19
HETATM   19  C   UNL     1      -3.230  -5.840   0.570  1.00  0.00     0.155 C 
BRANCH  19  20
HETATM   20  N   UNL     1      -3.055  -7.207   1.034  1.00  0.00    -0.359 N 
HETATM   21  C   UNL     1      -4.060  -7.879   1.683  1.00  0.00     0.213 C 
HETATM   22  O   UNL     1      -5.130  -7.366   1.996  1.00  0.00    -0.274 OA
HETATM   23  C   UNL     1      -3.735  -9.312   2.013  1.00  0.00     0.117 C 
HETATM   24  H   UNL     1      -2.298  -7.730   0.607  1.00  0.00     0.162 HD
ENDBRANCH  19  20
ENDBRANCH  15  19
ENDBRANCH   6  13
BRANCH   2  25
HETATM   25  C   UNL     1       1.741   2.531   0.054  1.00  0.00     0.169 C 
BRANCH  25  26
HETATM   26  C   UNL     1       2.132   3.244  -1.262  1.00  0.00     0.078 C 
HETATM   27  C   UNL     1       2.493   4.708  -0.944  1.00  0.00     0.066 C 
HETATM   28  C   UNL     1       1.254   5.571  -0.769  1.00  0.00     0.170 C 
HETATM   29  O   UNL     1       0.476   5.535  -1.961  1.00  0.00    -0.391 OA
HETATM   30  C   UNL     1      -0.039   4.233  -2.228  1.00  0.00     0.170 C 
HETATM   31  C   UNL     1       1.080   3.208  -2.388  1.00  0.00     0.066 C 
BRANCH  26  32
HETATM   32  O   UNL     1       3.343   2.626  -1.740  1.00  0.00    -0.388 OA
HETATM   33  H   UNL     1       3.123   1.748  -2.101  1.00  0.00     0.210 HD
ENDBRANCH  26  32
ENDBRANCH  25  26
ENDBRANCH   2  25
TORSDOF 6
