REMARK  7 active torsions:
REMARK  status: ('A' for Active; 'I' for Inactive)
REMARK    1  A    between atoms: N_2  and  C_3 
REMARK    2  A    between atoms: N_2  and  C_19 
REMARK    3  A    between atoms: C_3  and  C_4 
REMARK    4  A    between atoms: C_4  and  O_5 
REMARK    5  A    between atoms: C_4  and  C_6 
REMARK    6  A    between atoms: C_6  and  N_7 
REMARK    7  A    between atoms: C_19  and  C_20 
ROOT
HETATM    1  C   UNL     1       2.152   0.391   2.506  1.00  0.00     0.164 C 
ENDROOT
BRANCH   1   2
HETATM    2  C   UNL     1       2.660  -0.481   1.322  1.00  0.00     0.305 C 
BRANCH   2   3
HETATM    3  N   UNL     1       2.100  -0.168  -0.018  1.00  0.00     0.092 N 
HETATM    4  C   UNL     1       0.637  -0.311  -0.047  1.00  0.00     0.310 C 
BRANCH   3   5
HETATM    5  C   UNL     1       2.725  -1.055  -1.035  1.00  0.00     0.330 C 
BRANCH   5   6
HETATM    6  C   UNL     1       2.300  -0.693  -2.427  1.00  0.00     0.063 A 
HETATM    7  C   UNL     1       2.417   0.553  -3.090  1.00  0.00     0.063 A 
HETATM    8  C   UNL     1       1.799   0.354  -4.300  1.00  0.00     0.074 A 
HETATM    9  C   UNL     1       1.515   1.208  -5.465  1.00  0.00     0.079 C 
HETATM   10  O   UNL     1       1.362  -0.931  -4.373  1.00  0.00    -0.243 OA
HETATM   11  N   UNL     1       1.679  -1.596  -3.202  1.00  0.00    -0.264 N 
ATOM     12  HN  UNL     1       1.482  -2.571  -2.975  1.00  0.00     0.194 HD
ENDBRANCH   5   6
ENDBRANCH   3   5
ENDBRANCH   2   3
ENDBRANCH   1   2
BRANCH   1  13
HETATM   13  O   UNL     1       0.754   0.184   2.742  1.00  0.00    -0.392 OA
HETATM   14  H   UNL     1       0.565  -0.769   2.711  1.00  0.00     0.210 HD
ENDBRANCH   1  13
BRANCH   1  15
HETATM   15  C   UNL     1       2.901   0.036   3.801  1.00  0.00     0.163 C 
BRANCH  15  16
HETATM   16  N   UNL     1       2.484   0.868   4.918  1.00  0.00    -0.339 N 
HETATM   17  C   UNL     1       1.460   0.579   5.778  1.00  0.00     0.184 A 
HETATM   18  N   UNL     1       1.297   1.524   6.674  1.00  0.00    -0.350 N 
HETATM   19  C   UNL     1       2.235   2.475   6.363  1.00  0.00     0.060 A 
ATOM     20  HN  UNL     1       0.620   1.546   7.436  1.00  0.00     0.166 HD
HETATM   21  C   UNL     1       2.485   3.714   6.970  1.00  0.00     0.039 A 
HETATM   22  C   UNL     1       3.006   2.085   5.274  1.00  0.00     0.062 A 
HETATM   23  C   UNL     1       3.510   4.545   6.470  1.00  0.00    -0.054 A 
HETATM   24  C   UNL     1       3.742   5.869   7.146  1.00  0.00     0.049 C 
HETATM   25  C   UNL     1       4.277   4.126   5.362  1.00  0.00    -0.054 A 
HETATM   26  C   UNL     1       5.361   4.976   4.752  1.00  0.00     0.049 C 
HETATM   27  C   UNL     1       4.031   2.879   4.753  1.00  0.00     0.039 A 
ENDBRANCH  15  16
ENDBRANCH   1  15
TORSDOF 7
