REMARK  4 active torsions:
REMARK  status: ('A' for Active; 'I' for Inactive)
REMARK    1  A    between atoms: C_2  and  N_3 
REMARK    2  A    between atoms: C_6  and  C_7 
REMARK    3  A    between atoms: C_7  and  N_8 
REMARK       I    between atoms: N_8  and  C_9 
REMARK       I    between atoms: C_9  and  N_11 
REMARK    4  A    between atoms: N_11  and  C_12 
ROOT
HETATM    1  N   UNL     1       5.634  -4.979   0.625  1.00  0.00    -0.342 N 
HETATM    2  C   UNL     1       6.917  -5.169   0.215  1.00  0.00     0.321 C 
HETATM    3  O   UNL     1       7.731  -4.286   0.023  1.00  0.00    -0.247 OA
HETATM    4  N   UNL     1       7.208  -6.550   0.035  1.00  0.00    -0.293 N 
HETATM    5  H   UNL     1       4.933  -5.709   0.582  1.00  0.00     0.164 HD
HETATM    6  H   UNL     1       6.489  -7.226   0.247  1.00  0.00     0.172 HD
ENDROOT
BRANCH   1   7
HETATM    7  C   UNL     1       5.147  -3.619   0.763  1.00  0.00     0.130 C 
BRANCH   7   8
HETATM    8  C   UNL     1       3.695  -3.508   1.244  1.00  0.00     0.033 C 
HETATM    9  C   UNL     1       3.474  -4.165   2.607  1.00  0.00     0.038 C 
HETATM   10  C   UNL     1       2.885  -5.544   2.299  1.00  0.00     0.273 C 
HETATM   11  N   UNL     1       2.896  -5.652   0.828  1.00  0.00     0.088 N 
HETATM   12  C   UNL     1       2.725  -4.269   0.349  1.00  0.00     0.278 C 
BRANCH  11  13
HETATM   13  C   UNL     1       1.833  -6.518   0.303  1.00  0.00     0.268 C 
HETATM   14  C   UNL     1       2.050  -7.980   0.667  1.00  0.00     0.037 C 
ENDBRANCH  11  13
ENDBRANCH   7   8
ENDBRANCH   1   7
BRANCH   4  15
HETATM   15  C   UNL     1       8.459  -6.999  -0.393  1.00  0.00     0.127 A 
HETATM   16  C   UNL     1       9.551  -6.237  -0.748  1.00  0.00     0.076 A 
HETATM   17  C   UNL     1      10.570  -7.149  -1.085  1.00  0.00     0.025 A 
HETATM   18  C   UNL     1      11.950  -6.826  -1.519  1.00  0.00     0.070 C 
HETATM   19  N   UNL     1      10.153  -8.413  -0.968  1.00  0.00    -0.302 N 
HETATM   20  N   UNL     1       8.876  -8.301  -0.551  1.00  0.00    -0.281 N 
ATOM     21  HN  UNL     1      10.680  -9.267  -1.152  1.00  0.00     0.186 HD
HETATM   22  C   UNL     1       8.118  -9.506  -0.313  1.00  0.00     0.179 C 
ENDBRANCH   4  15
TORSDOF 4
