REMARK  5 active torsions:
REMARK  status: ('A' for Active; 'I' for Inactive)
REMARK    1  A    between atoms: N_4  and  C_5 
REMARK    2  A    between atoms: C_5  and  C_6 
REMARK    3  A    between atoms: C_6  and  C_7 
REMARK    4  A    between atoms: C_7  and  N_8 
REMARK       I    between atoms: N_8  and  C_9 
REMARK       I    between atoms: C_9  and  N_11 
REMARK    5  A    between atoms: N_11  and  C_12 
ROOT
HETATM    1  N   UNL     1       2.800   3.850  -5.388  1.00  0.00    -0.343 N 
HETATM    2  C   UNL     1       3.283   4.739  -6.328  1.00  0.00     0.320 C 
HETATM    3  O   UNL     1       3.917   5.732  -6.005  1.00  0.00    -0.247 OA
HETATM    4  N   UNL     1       2.946   4.365  -7.610  1.00  0.00    -0.308 N 
HETATM    5  H   UNL     1       2.746   2.895  -5.709  1.00  0.00     0.164 HD
HETATM    6  H   UNL     1       2.149   3.753  -7.680  1.00  0.00     0.170 HD
ENDROOT
BRANCH   1   7
HETATM    7  C   UNL     1       3.182   4.085  -4.008  1.00  0.00     0.126 C 
BRANCH   7   8
HETATM    8  C   UNL     1       2.606   3.079  -3.023  1.00  0.00     0.050 C 
BRANCH   8   9
HETATM    9  C   UNL     1       3.217   1.683  -3.205  1.00  0.00     0.274 C 
BRANCH   9  10
HETATM   10  N   UNL     1       2.662   0.687  -2.279  1.00  0.00     0.093 N 
HETATM   11  C   UNL     1       2.981   0.987  -0.866  1.00  0.00     0.303 C 
HETATM   12  C   UNL     1       2.412  -0.084   0.087  1.00  0.00     0.146 C 
HETATM   13  C   UNL     1       0.884  -0.054   0.156  1.00  0.00     0.041 C 
HETATM   14  O   UNL     1       2.903  -1.390  -0.254  1.00  0.00    -0.378 OA
HETATM   15  C   UNL     1       2.654  -1.732  -1.627  1.00  0.00     0.146 C 
HETATM   16  C   UNL     1       3.205  -0.657  -2.588  1.00  0.00     0.303 C 
HETATM   17  C   UNL     1       3.318  -3.079  -1.884  1.00  0.00     0.041 C 
ENDBRANCH   9  10
ENDBRANCH   8   9
ENDBRANCH   7   8
ENDBRANCH   1   7
BRANCH   4  18
HETATM   18  C   UNL     1       3.386   5.021  -8.787  1.00  0.00     0.044 A 
HETATM   19  C   UNL     1       4.529   5.828  -8.777  1.00  0.00     0.047 A 
HETATM   20  C   UNL     1       4.917   6.466  -9.940  1.00  0.00     0.090 A 
HETATM   21  N   UNL     1       4.274   6.333 -11.112  1.00  0.00    -0.375 N 
HETATM   22  C   UNL     1       3.186   5.534 -11.111  1.00  0.00     0.096 A 
ATOM     23  HN  UNL     1       4.591   6.810 -11.956  1.00  0.00     0.164 HD
HETATM   24  C   UNL     1       2.688   4.861  -9.993  1.00  0.00    -0.020 A 
HETATM   25  C   UNL     1       1.469   4.005 -10.157  1.00  0.00     0.052 C 
ENDBRANCH   4  18
TORSDOF 5
