REMARK  6 active torsions:
REMARK  status: ('A' for Active; 'I' for Inactive)
REMARK    1  A    between atoms: O_2  and  C_3 
REMARK    2  A    between atoms: C_3  and  C_4 
REMARK    3  A    between atoms: C_4  and  O_5 
REMARK    4  A    between atoms: O_5  and  C_6 
REMARK    5  A    between atoms: C_12  and  N_13 
REMARK    6  A    between atoms: N_13  and  C_14 
ROOT
HETATM    1  C   UNL     1       6.409  -1.769   2.033  1.00  0.00     0.169 A 
HETATM    2  N   UNL     1       7.247  -0.709   2.160  1.00  0.00    -0.345 N 
ATOM      3  HN  UNL     1       6.937   0.241   1.957  1.00  0.00     0.167 HD
HETATM    4  C   UNL     1       8.507  -0.966   2.566  1.00  0.00     0.090 A 
HETATM    5  C   UNL     1       8.977  -2.232   2.855  1.00  0.00     0.019 A 
HETATM    6  C   UNL     1       8.104  -3.306   2.709  1.00  0.00     0.035 A 
HETATM    7  C   UNL     1       6.788  -3.105   2.268  1.00  0.00     0.080 A 
ENDROOT
BRANCH   7   8
HETATM    8  N   UNL     1       5.944  -4.244   2.181  1.00  0.00    -0.382 N 
HETATM    9  H   UNL     1       6.483  -5.099   2.296  1.00  0.00     0.160 HD
BRANCH   8  10
HETATM   10  C   UNL     1       4.845  -4.426   1.278  1.00  0.00     0.082 C 
HETATM   11  C   UNL     1       4.113  -5.767   1.542  1.00  0.00     0.025 C 
HETATM   12  C   UNL     1       4.046  -5.953   0.014  1.00  0.00     0.004 C 
HETATM   13  C   UNL     1       5.275  -5.025  -0.085  1.00  0.00     0.025 C 
ENDBRANCH   8  10
ENDBRANCH   7   8
BRANCH   1  14
HETATM   14  O   UNL     1       5.086  -1.516   1.750  1.00  0.00    -0.332 OA
BRANCH  14  15
HETATM   15  C   UNL     1       4.772  -0.170   1.389  1.00  0.00     0.203 C 
BRANCH  15  16
HETATM   16  C   UNL     1       3.250  -0.055   1.433  1.00  0.00     0.193 C 
BRANCH  16  17
HETATM   17  O   UNL     1       2.802   1.207   0.945  1.00  0.00    -0.394 OA
HETATM   18  C   UNL     1       1.386   1.302   1.025  1.00  0.00     0.201 C 
ENDBRANCH  16  17
ENDBRANCH  15  16
ENDBRANCH  14  15
ENDBRANCH   1  14
TORSDOF 6
