REMARK  3 active torsions:
REMARK  status: ('A' for Active; 'I' for Inactive)
REMARK    1  A    between atoms: O_1  and  C_2 
REMARK    2  A    between atoms: C_2  and  C_4 
REMARK    3  A    between atoms: C_6  and  C_10 
ROOT
HETATM    1  C   UNL     1       3.191  -1.083  -0.765  1.00  0.00     0.255 C 
HETATM    2  C   UNL     1       2.409  -1.637  -1.931  1.00  0.00     0.105 C 
HETATM    3  C   UNL     1       2.038  -2.963  -1.363  1.00  0.00     0.046 C 
HETATM    4  N   UNL     1       2.603  -3.250  -0.233  1.00  0.00    -0.269 N 
ATOM      5  HN  UNL     1       2.450  -4.095   0.318  1.00  0.00     0.194 HD
HETATM    6  O   UNL     1       3.467  -2.187   0.099  1.00  0.00    -0.264 OA
ENDROOT
BRANCH   3   7
HETATM    7  C   UNL     1       1.125  -3.889  -2.066  1.00  0.00     0.004 A 
HETATM    8  C   UNL     1       0.832  -5.139  -1.515  1.00  0.00     0.016 A 
HETATM    9  C   UNL     1      -0.003  -6.017  -2.203  1.00  0.00     0.018 A 
HETATM   10  C   UNL     1      -0.520  -5.613  -3.423  1.00  0.00     0.087 A 
HETATM   11  N   UNL     1      -0.258  -4.413  -3.986  1.00  0.00    -0.374 N 
HETATM   12  C   UNL     1       0.558  -3.578  -3.295  1.00  0.00     0.101 A 
ATOM     13  HN  UNL     1      -0.655  -4.148  -4.887  1.00  0.00     0.164 HD
ENDBRANCH   3   7
BRANCH   1  14
HETATM   14  C   UNL     1       2.421  -0.010  -0.010  1.00  0.00     0.172 C 
HETATM   15  O   UNL     1       2.007   1.020  -0.525  1.00  0.00    -0.648 OA
BRANCH  14  16
HETATM   16  O   UNL     1       2.231  -0.299   1.299  1.00  0.00    -0.774 OA
HETATM   17  H   UNL     1       2.590  -1.192   1.511  1.00  0.00     0.167 HD
ENDBRANCH  14  16
ENDBRANCH   1  14
TORSDOF 3
