REMARK  3 active torsions:
REMARK  status: ('A' for Active; 'I' for Inactive)
REMARK    1  A    between atoms: O_1  and  C_2 
REMARK    2  A    between atoms: C_7  and  N_8 
REMARK       I    between atoms: N_8  and  C_9 
REMARK       I    between atoms: C_9  and  N_11 
REMARK    3  A    between atoms: N_11  and  C_12 
ROOT
HETATM    1  N   UNL     1       2.390  -2.437   0.709  1.00  0.00    -0.336 N 
HETATM    2  C   UNL     1       3.046  -2.489   1.921  1.00  0.00     0.322 C 
HETATM    3  O   UNL     1       3.929  -1.699   2.225  1.00  0.00    -0.247 OA
HETATM    4  N   UNL     1       2.631  -3.563   2.672  1.00  0.00    -0.295 N 
HETATM    5  H   UNL     1       1.393  -2.602   0.767  1.00  0.00     0.164 HD
HETATM    6  H   UNL     1       2.420  -4.387   2.129  1.00  0.00     0.172 HD
ENDROOT
BRANCH   1   7
HETATM    7  C   UNL     1       2.800  -1.431  -0.268  1.00  0.00     0.114 C 
HETATM    8  C   UNL     1       2.289  -0.018   0.093  1.00  0.00     0.140 C 
HETATM    9  C   UNL     1       2.769   1.002  -0.943  1.00  0.00     0.034 C 
HETATM   10  C   UNL     1       2.388   0.600  -2.369  1.00  0.00     0.003 C 
HETATM   11  C   UNL     1       2.845  -0.819  -2.708  1.00  0.00     0.002 C 
HETATM   12  C   UNL     1       2.356  -1.835  -1.677  1.00  0.00     0.028 C 
BRANCH   8  13
HETATM   13  O   UNL     1       0.856  -0.022   0.136  1.00  0.00    -0.394 OA
HETATM   14  H   UNL     1       0.580   0.869   0.415  1.00  0.00     0.210 HD
ENDBRANCH   8  13
ENDBRANCH   1   7
BRANCH   4  15
HETATM   15  C   UNL     1       3.264  -3.873   3.882  1.00  0.00     0.108 A 
HETATM   16  C   UNL     1       3.534  -2.894   4.832  1.00  0.00     0.049 A 
HETATM   17  C   UNL     1       4.257  -3.244   5.967  1.00  0.00     0.005 A 
HETATM   18  C   UNL     1       4.695  -4.554   6.110  1.00  0.00     0.017 A 
HETATM   19  C   UNL     1       4.345  -5.470   5.131  1.00  0.00     0.089 A 
HETATM   20  N   UNL     1       3.607  -5.167   4.039  1.00  0.00    -0.352 N 
ATOM     21  HN  UNL     1       3.324  -5.881   3.368  1.00  0.00     0.166 HD
ENDBRANCH   4  15
TORSDOF 3
