REMARK  5 active torsions:
REMARK  status: ('A' for Active; 'I' for Inactive)
REMARK    1  A    between atoms: C_2  and  C_3 
REMARK       I    between atoms: C_2  and  N_12 
REMARK    2  A    between atoms: C_3  and  N_4 
REMARK    3  A    between atoms: N_12  and  C_13 
REMARK    4  A    between atoms: C_13  and  C_14 
REMARK    5  A    between atoms: C_14  and  C_15 
ROOT
HETATM    1  O   UNL     1       2.792  -0.417   1.068  1.00  0.00    -0.272 OA
HETATM    2  C   UNL     1       2.258   0.043   0.061  1.00  0.00     0.235 C 
HETATM    3  N   UNL     1       2.966   0.572  -1.002  1.00  0.00    -0.359 N 
HETATM    4  H   UNL     1       2.461   1.207  -1.621  1.00  0.00     0.162 HD
ENDROOT
BRANCH   2   5
HETATM    5  C   UNL     1       0.738   0.136  -0.081  1.00  0.00     0.235 C 
BRANCH   5   6
HETATM    6  N   UNL     1       0.253   1.387   0.489  1.00  0.00    -0.301 N 
HETATM    7  C   UNL     1      -0.161   1.429   1.803  1.00  0.00     0.097 A 
HETATM    8  C   UNL     1      -0.601   2.563   2.346  1.00  0.00     0.034 A 
HETATM    9  C   UNL     1      -0.600   3.713   1.433  1.00  0.00     0.094 A 
HETATM   10  N   UNL     1      -0.196   3.706   0.208  1.00  0.00    -0.319 N 
HETATM   11  C   UNL     1       0.281   2.530  -0.317  1.00  0.00     0.326 A 
ATOM     12  HN  UNL     1      -0.230   4.554  -0.358  1.00  0.00     0.170 HD
HETATM   13  O   UNL     1       0.731   2.476  -1.462  1.00  0.00    -0.246 OA
ENDBRANCH   5   6
ENDBRANCH   2   5
BRANCH   3  14
HETATM   14  C   UNL     1       4.417   0.627  -0.970  1.00  0.00     0.127 C 
BRANCH  14  15
HETATM   15  C   UNL     1       5.004   1.290  -2.220  1.00  0.00     0.053 C 
BRANCH  15  16
HETATM   16  C   UNL     1       6.522   1.338  -2.241  1.00  0.00    -0.082 A 
HETATM   17  C   UNL     1       7.180   2.506  -2.278  1.00  0.00    -0.024 A 
HETATM   18  C   UNL     1       8.661   2.653  -2.360  1.00  0.00     0.027 A 
HETATM   19  C   UNL     1       9.492   1.375  -2.327  1.00  0.00     0.004 A 
HETATM   20  C   UNL     1       8.765   0.034  -2.297  1.00  0.00     0.005 A 
HETATM   21  C   UNL     1       7.237   0.019  -2.284  1.00  0.00     0.034 A 
ENDBRANCH  15  16
ENDBRANCH  14  15
ENDBRANCH   3  14
TORSDOF 5
