REMARK  5 active torsions:
REMARK  status: ('A' for Active; 'I' for Inactive)
REMARK    1  A    between atoms: C_2  and  C_3 
REMARK    2  A    between atoms: C_3  and  C_4 
REMARK       I    between atoms: N_6  and  C_10 
REMARK       I    between atoms: C_10  and  N_12 
REMARK    3  A    between atoms: N_12  and  C_13 
REMARK    4  A    between atoms: C_13  and  C_14 
REMARK    5  A    between atoms: C_14  and  C_15 
ROOT
HETATM    1  C   UNL     1       4.385  -0.860   1.239  1.00  0.00     0.139 C 
HETATM    2  C   UNL     1       4.875  -2.312   1.429  1.00  0.00     0.159 C 
HETATM    3  N   UNL     1       4.592  -2.782   2.788  1.00  0.00    -0.330 N 
HETATM    4  C   UNL     1       5.137  -1.893   3.817  1.00  0.00     0.153 C 
HETATM    5  C   UNL     1       4.600  -0.474   3.604  1.00  0.00     0.188 C 
HETATM    6  O   UNL     1       4.890   0.002   2.282  1.00  0.00    -0.383 OA
HETATM    7  C   UNL     1       3.871  -3.943   2.974  1.00  0.00     0.318 C 
HETATM    8  O   UNL     1       3.482  -4.646   2.046  1.00  0.00    -0.247 OA
HETATM    9  N   UNL     1       3.612  -4.257   4.285  1.00  0.00    -0.343 N 
HETATM   10  H   UNL     1       3.463  -3.462   4.877  1.00  0.00     0.164 HD
ENDROOT
BRANCH   9  11
HETATM   11  C   UNL     1       2.819  -5.429   4.620  1.00  0.00     0.129 C 
BRANCH  11  12
HETATM   12  C   UNL     1       2.783  -5.630   6.136  1.00  0.00     0.060 C 
BRANCH  12  13
HETATM   13  C   UNL     1       1.964  -6.818   6.549  1.00  0.00    -0.041 A 
HETATM   14  C   UNL     1       2.542  -8.080   6.700  1.00  0.00     0.010 A 
HETATM   15  C   UNL     1       1.748  -9.160   7.074  1.00  0.00     0.018 A 
HETATM   16  C   UNL     1       0.397  -8.941   7.281  1.00  0.00     0.087 A 
HETATM   17  N   UNL     1      -0.198  -7.737   7.144  1.00  0.00    -0.375 N 
HETATM   18  C   UNL     1       0.596  -6.706   6.780  1.00  0.00     0.094 A 
ATOM     19  HN  UNL     1      -1.197  -7.612   7.307  1.00  0.00     0.164 HD
ENDBRANCH  12  13
ENDBRANCH  11  12
ENDBRANCH   9  11
BRANCH   1  20
HETATM   20  C   UNL     1       2.853  -0.790   1.115  1.00  0.00     0.033 C 
BRANCH  20  21
HETATM   21  C   UNL     1       2.331   0.640   0.960  1.00  0.00    -0.002 C 
HETATM   22  C   UNL     1       0.813   0.654   0.850  1.00  0.00     0.005 C 
ENDBRANCH  20  21
ENDBRANCH   1  20
TORSDOF 5
