REMARK  3 active torsions:
REMARK  status: ('A' for Active; 'I' for Inactive)
REMARK    1  A    between atoms: C_5  and  O_6 
REMARK    2  A    between atoms: C_5  and  C_7 
REMARK    3  A    between atoms: C_7  and  N_8 
ROOT
HETATM    1  N   UNL     1       5.489  -1.924  -3.168  1.00  0.00    -0.305 N 
HETATM    2  C   UNL     1       5.899  -2.797  -2.180  1.00  0.00     0.125 C 
HETATM    3  C   UNL     1       6.636  -3.879  -2.437  1.00  0.00     0.117 C 
HETATM    4 CL   UNL     1       7.147  -4.948  -1.197  1.00  0.00    -0.077 Cl
HETATM    5  C   UNL     1       7.056  -4.126  -3.836  1.00  0.00     0.272 C 
HETATM    6  O   UNL     1       7.872  -4.987  -4.149  1.00  0.00    -0.266 OA
HETATM    7  N   UNL     1       6.491  -3.297  -4.771  1.00  0.00    -0.274 N 
HETATM    8  C   UNL     1       5.764  -2.161  -4.513  1.00  0.00     0.329 C 
HETATM    9  O   UNL     1       5.434  -1.405  -5.424  1.00  0.00    -0.246 OA
HETATM   10  H   UNL     1       6.775  -3.440  -5.728  1.00  0.00     0.173 HD
ENDROOT
BRANCH   1  11
HETATM   11  C   UNL     1       4.798  -0.679  -2.797  1.00  0.00     0.170 C 
BRANCH  11  12
HETATM   12  C   UNL     1       3.243  -0.753  -2.765  1.00  0.00     0.074 C 
HETATM   13  C   UNL     1       2.655   0.635  -2.435  1.00  0.00     0.040 C 
HETATM   14  C   UNL     1       2.914   1.065  -0.988  1.00  0.00     0.007 C 
HETATM   15  C   UNL     1       2.447   0.026   0.042  1.00  0.00    -0.019 C 
HETATM   16  C   UNL     1       0.924   0.029   0.193  1.00  0.00     0.010 C 
HETATM   17  C   UNL     1       2.969  -1.375  -0.301  1.00  0.00     0.007 C 
HETATM   18  C   UNL     1       2.697  -1.774  -1.752  1.00  0.00     0.040 C 
BRANCH  12  19
HETATM   19  O   UNL     1       2.739  -1.134  -4.054  1.00  0.00    -0.388 OA
HETATM   20  H   UNL     1       3.264  -0.681  -4.743  1.00  0.00     0.210 HD
ENDBRANCH  12  19
ENDBRANCH  11  12
ENDBRANCH   1  11
TORSDOF 3
