REMARK  6 active torsions:
REMARK  status: ('A' for Active; 'I' for Inactive)
REMARK    1  A    between atoms: C_2  and  N_4 
REMARK    2  A    between atoms: N_3  and  C_12 
REMARK    3  A    between atoms: C_8  and  C_20 
REMARK    4  A    between atoms: C_10  and  C_12 
REMARK    5  A    between atoms: C_10  and  O_24 
REMARK    6  A    between atoms: C_20  and  C_28 
ROOT
HETATM    1  C   UNL     1       0.670  -0.776  -0.047  1.00  0.00     0.122 A 
HETATM    2  C   UNL     1      -0.494  -1.553   0.201  1.00  0.00     0.136 A 
HETATM    3  N   UNL     1       1.766   1.120  -0.245  1.00  0.00    -0.324 N 
HETATM    4  C   UNL     1       0.504   0.600  -0.129  1.00  0.00     0.140 A 
HETATM    5  N   UNL     1       2.011  -1.090  -0.178  1.00  0.00    -0.346 N 
ATOM      6  HN  UNL     1       2.427  -2.021  -0.207  1.00  0.00     0.167 HD
HETATM    7  C   UNL     1       2.637   0.067  -0.258  1.00  0.00     0.185 A 
HETATM    8  N   UNL     1      -1.668  -0.856   0.316  1.00  0.00    -0.337 N 
ATOM      9  HN  UNL     1      -2.536  -1.353   0.517  1.00  0.00     0.168 HD
HETATM   10  N   UNL     1      -0.638   1.299  -0.061  1.00  0.00    -0.336 N 
ATOM     11  HN  UNL     1      -0.706   2.311  -0.167  1.00  0.00     0.168 HD
HETATM   12  C   UNL     1      -1.680   0.484   0.165  1.00  0.00     0.183 A 
ENDROOT
BRANCH   2  13
HETATM   13  N   UNL     1      -0.556  -2.932   0.334  1.00  0.00    -0.350 N 
HETATM   14  C   UNL     1       0.565  -3.815  -0.075  1.00  0.00     0.178 C 
HETATM   15  C   UNL     1      -0.008  -5.202  -0.475  1.00  0.00     0.240 C 
HETATM   16  O   UNL     1       0.465  -5.895  -1.376  1.00  0.00    -0.271 OA
HETATM   17  N   UNL     1      -1.010  -5.720   0.320  1.00  0.00    -0.358 N 
HETATM   18  C   UNL     1      -1.999  -4.840   0.918  1.00  0.00     0.142 C 
HETATM   19  H   UNL     1      -1.331  -6.620  -0.013  1.00  0.00     0.162 HD
HETATM   20  C   UNL     1      -1.470  -3.465   1.349  1.00  0.00     0.145 C 
BRANCH  14  21
HETATM   21  C   UNL     1       1.575  -4.018   1.076  1.00  0.00     0.039 C 
BRANCH  21  22
HETATM   22  C   UNL     1       2.805  -4.886   0.731  1.00  0.00    -0.020 C 
HETATM   23  C   UNL     1       3.669  -4.298  -0.384  1.00  0.00     0.009 C 
HETATM   24  C   UNL     1       3.660  -5.086   1.987  1.00  0.00     0.009 C 
ENDBRANCH  21  22
ENDBRANCH  14  21
ENDBRANCH   2  13
BRANCH   3  25
HETATM   25  C   UNL     1       2.114   2.523  -0.133  1.00  0.00     0.172 C 
BRANCH  25  26
HETATM   26  C   UNL     1       2.137   3.321  -1.447  1.00  0.00     0.102 C 
HETATM   27  C   UNL     1       3.195   2.864  -2.473  1.00  0.00     0.153 C 
HETATM   28  O   UNL     1       3.668   4.049  -3.157  1.00  0.00    -0.383 OA
HETATM   29  C   UNL     1       2.716   1.886  -3.532  1.00  0.00     0.042 C 
HETATM   30  C   UNL     1       3.034   5.191  -2.570  1.00  0.00     0.171 C 
HETATM   31  C   UNL     1       2.599   4.752  -1.190  1.00  0.00     0.068 C 
BRANCH  26  32
HETATM   32  O   UNL     1       0.826   3.432  -2.016  1.00  0.00    -0.385 OA
HETATM   33  H   UNL     1       0.369   2.571  -1.965  1.00  0.00     0.210 HD
ENDBRANCH  26  32
ENDBRANCH  25  26
ENDBRANCH   3  25
TORSDOF 6
