REMARK  5 active torsions:
REMARK  status: ('A' for Active; 'I' for Inactive)
REMARK    1  A    between atoms: C_2  and  C_3 
REMARK    2  A    between atoms: C_2  and  N_10 
REMARK    3  A    between atoms: C_3  and  N_4 
REMARK       I    between atoms: N_10  and  C_11 
REMARK       I    between atoms: C_11  and  N_13 
REMARK    4  A    between atoms: N_13  and  C_14 
REMARK    5  A    between atoms: C_17  and  O_18 
ROOT
HETATM    1  N   UNL     1       3.028   0.963   1.029  1.00  0.00    -0.337 N 
HETATM    2  C   UNL     1       4.377   0.860   1.248  1.00  0.00     0.316 C 
HETATM    3  O   UNL     1       5.112   0.134   0.592  1.00  0.00    -0.247 OA
HETATM    4  N   UNL     1       4.804   1.661   2.277  1.00  0.00    -0.339 N 
HETATM    5  H   UNL     1       2.455   1.292   1.794  1.00  0.00     0.164 HD
HETATM    6  H   UNL     1       4.255   2.489   2.448  1.00  0.00     0.164 HD
ENDROOT
BRANCH   1   7
HETATM    7  C   UNL     1       2.394   0.172  -0.033  1.00  0.00     0.102 C 
HETATM    8  C   UNL     1       0.908  -0.055   0.246  1.00  0.00     0.034 C 
BRANCH   7   9
HETATM    9  C   UNL     1       2.656   0.762  -1.433  1.00  0.00     0.172 C 
BRANCH   9  10
HETATM   10  N   UNL     1       1.995   2.032  -1.664  1.00  0.00    -0.302 N 
HETATM   11  C   UNL     1       2.500   3.279  -1.423  1.00  0.00     0.111 A 
HETATM   12  C   UNL     1       1.512   4.166  -1.780  1.00  0.00     0.037 A 
HETATM   13  C   UNL     1       0.457   3.359  -2.241  1.00  0.00     0.108 A 
HETATM   14  N   UNL     1       0.750   2.058  -2.182  1.00  0.00    -0.310 N 
ATOM     15  HN  UNL     1       0.169   1.268  -2.463  1.00  0.00     0.186 HD
ENDBRANCH   9  10
ENDBRANCH   7   9
ENDBRANCH   1   7
BRANCH   4  16
HETATM   16  C   UNL     1       6.214   1.661   2.671  1.00  0.00     0.086 C 
HETATM   17  C   UNL     1       6.398   2.158   4.106  1.00  0.00     0.028 C 
HETATM   18  C   UNL     1       6.149   3.659   4.255  1.00  0.00     0.034 C 
HETATM   19  C   UNL     1       6.923   4.513   3.248  1.00  0.00     0.118 C 
HETATM   20  C   UNL     1       6.887   3.977   1.817  1.00  0.00     0.034 C 
HETATM   21  C   UNL     1       7.101   2.466   1.712  1.00  0.00     0.028 C 
BRANCH  19  22
HETATM   22  O   UNL     1       8.273   4.651   3.681  1.00  0.00    -0.396 OA
HETATM   23  H   UNL     1       8.708   3.779   3.645  1.00  0.00     0.210 HD
ENDBRANCH  19  22
ENDBRANCH   4  16
TORSDOF 5
