REMARK  5 active torsions:
REMARK  status: ('A' for Active; 'I' for Inactive)
REMARK    1  A    between atoms: S_2  and  N_5 
REMARK    2  A    between atoms: C_8  and  N_11 
REMARK       I    between atoms: N_11  and  C_12 
REMARK       I    between atoms: C_12  and  N_14 
REMARK    3  A    between atoms: N_14  and  C_15 
REMARK    4  A    between atoms: C_15  and  C_16 
REMARK    5  A    between atoms: C_16  and  C_17 
ROOT
HETATM    1  N   UNL     1       5.863   1.653  -2.462  1.00  0.00    -0.338 N 
HETATM    2  C   UNL     1       6.143   2.653  -3.356  1.00  0.00     0.316 C 
HETATM    3  O   UNL     1       5.377   3.068  -4.208  1.00  0.00    -0.247 OA
HETATM    4  N   UNL     1       7.422   3.123  -3.151  1.00  0.00    -0.343 N 
HETATM    5  H   UNL     1       6.689   1.091  -2.312  1.00  0.00     0.164 HD
HETATM    6  H   UNL     1       7.706   3.101  -2.182  1.00  0.00     0.164 HD
ENDROOT
BRANCH   1   7
HETATM    7  C   UNL     1       4.609   0.899  -2.531  1.00  0.00     0.089 C 
HETATM    8  C   UNL     1       3.354   1.736  -2.217  1.00  0.00     0.045 C 
HETATM    9  C   UNL     1       3.144   2.023  -0.731  1.00  0.00     0.137 C 
HETATM   10  N   UNL     1       3.330   0.820   0.131  1.00  0.00    -0.311 N 
HETATM   11  C   UNL     1       4.640   0.172  -0.137  1.00  0.00     0.137 C 
HETATM   12  C   UNL     1       4.705  -0.298  -1.585  1.00  0.00     0.045 C 
BRANCH  10  13
HETATM   13  S   UNL     1       2.032  -0.256   0.336  1.00  0.00     0.224 S 
HETATM   14  C   UNL     1       0.883   0.662   1.337  1.00  0.00     0.186 C 
HETATM   15  O   UNL     1       2.504  -1.365   1.141  1.00  0.00    -0.206 OA
HETATM   16  O   UNL     1       1.430  -0.486  -0.961  1.00  0.00    -0.206 OA
ENDBRANCH  10  13
ENDBRANCH   1   7
BRANCH   4  17
HETATM   17  C   UNL     1       7.853   4.251  -3.943  1.00  0.00     0.129 C 
BRANCH  17  18
HETATM   18  C   UNL     1       9.289   4.683  -3.654  1.00  0.00     0.060 C 
BRANCH  18  19
HETATM   19  C   UNL     1       9.632   5.835  -4.555  1.00  0.00    -0.041 A 
HETATM   20  C   UNL     1       9.384   7.154  -4.171  1.00  0.00     0.010 A 
HETATM   21  C   UNL     1       9.544   8.178  -5.098  1.00  0.00     0.018 A 
HETATM   22  C   UNL     1       9.958   7.847  -6.378  1.00  0.00     0.087 A 
HETATM   23  N   UNL     1      10.234   6.588  -6.777  1.00  0.00    -0.375 N 
HETATM   24  C   UNL     1      10.064   5.610  -5.860  1.00  0.00     0.094 A 
ATOM     25  HN  UNL     1      10.555   6.385  -7.724  1.00  0.00     0.164 HD
ENDBRANCH  18  19
ENDBRANCH  17  18
ENDBRANCH   4  17
TORSDOF 5
