REMARK  3 active torsions:
REMARK  status: ('A' for Active; 'I' for Inactive)
REMARK    1  A    between atoms: O_2  and  C_3 
REMARK    2  A    between atoms: C_8  and  N_9 
REMARK       I    between atoms: N_9  and  C_10 
REMARK    3  A    between atoms: C_10  and  C_12 
ROOT
HETATM    1  N   UNL     1       5.833   1.982  -2.532  1.00  0.00    -0.311 N 
HETATM    2  C   UNL     1       6.306   0.784  -3.030  1.00  0.00     0.252 C 
HETATM    3  O   UNL     1       5.889  -0.345  -2.758  1.00  0.00    -0.270 OA
HETATM    4  H   UNL     1       6.311   2.826  -2.829  1.00  0.00     0.170 HD
ENDROOT
BRANCH   1   5
HETATM    5  C   UNL     1       4.758   2.081  -1.630  1.00  0.00     0.110 A 
HETATM    6  N   UNL     1       4.094   0.968  -1.274  1.00  0.00    -0.352 N 
HETATM    7  C   UNL     1       3.070   1.067  -0.406  1.00  0.00     0.092 A 
ATOM      8  HN  UNL     1       4.362   0.061  -1.656  1.00  0.00     0.166 HD
HETATM    9  C   UNL     1       2.665   2.255   0.162  1.00  0.00     0.053 A 
HETATM   10  C   UNL     1       3.362   3.405  -0.190  1.00  0.00     0.073 A 
HETATM   11  C   UNL     1       4.406   3.325  -1.119  1.00  0.00     0.085 A 
BRANCH  10  12
HETATM   12  O   UNL     1       3.088   4.655   0.300  1.00  0.00    -0.356 OA
HETATM   13  C   UNL     1       2.431   4.690   1.566  1.00  0.00     0.210 C 
ENDBRANCH  10  12
ENDBRANCH   1   5
BRANCH   2  14
HETATM   14  C   UNL     1       7.482   0.906  -4.011  1.00  0.00     0.214 C 
HETATM   15  C   UNL     1       8.682   0.132  -3.474  1.00  0.00     0.044 C 
HETATM   16  C   UNL     1       9.897   0.916  -3.922  1.00  0.00     0.034 C 
HETATM   17  C   UNL     1       9.334   2.010  -4.810  1.00  0.00     0.118 C 
HETATM   18  C   UNL     1       9.373   1.620  -6.288  1.00  0.00     0.039 C 
HETATM   19  O   UNL     1       7.977   2.202  -4.358  1.00  0.00    -0.372 OA
ENDBRANCH   2  14
TORSDOF 3
