REMARK  4 active torsions:
REMARK  status: ('A' for Active; 'I' for Inactive)
REMARK    1  A    between atoms: C_4  and  N_5 
REMARK       I    between atoms: N_5  and  C_6 
REMARK       I    between atoms: C_6  and  N_8 
REMARK    2  A    between atoms: N_8  and  C_9 
REMARK    3  A    between atoms: C_9  and  C_10 
REMARK    4  A    between atoms: C_10  and  C_11 
ROOT
HETATM    1  N   UNL     1       5.730   1.593   0.144  1.00  0.00    -0.293 N 
HETATM    2  C   UNL     1       5.637   3.011   0.171  1.00  0.00     0.321 C 
HETATM    3  O   UNL     1       4.574   3.605   0.180  1.00  0.00    -0.247 OA
HETATM    4  N   UNL     1       6.862   3.610   0.186  1.00  0.00    -0.343 N 
HETATM    5  H   UNL     1       6.639   1.167   0.165  1.00  0.00     0.172 HD
HETATM    6  H   UNL     1       7.723   3.104   0.045  1.00  0.00     0.164 HD
ENDROOT
BRANCH   1   7
HETATM    7  C   UNL     1       4.598   0.772   0.118  1.00  0.00     0.127 A 
HETATM    8  C   UNL     1       3.276   1.161   0.072  1.00  0.00     0.076 A 
HETATM    9  C   UNL     1       2.514  -0.025   0.074  1.00  0.00     0.025 A 
HETATM   10  C   UNL     1       1.037  -0.143   0.043  1.00  0.00     0.070 C 
HETATM   11  N   UNL     1       3.298  -1.105   0.111  1.00  0.00    -0.302 N 
HETATM   12  N   UNL     1       4.551  -0.605   0.136  1.00  0.00    -0.281 N 
ATOM     13  HN  UNL     1       3.014  -2.085   0.119  1.00  0.00     0.186 HD
HETATM   14  C   UNL     1       5.644  -1.544   0.184  1.00  0.00     0.179 C 
ENDBRANCH   1   7
BRANCH   4  15
HETATM   15  C   UNL     1       6.884   5.062   0.156  1.00  0.00     0.128 C 
BRANCH  15  16
HETATM   16  C   UNL     1       8.277   5.688   0.150  1.00  0.00     0.053 C 
BRANCH  16  17
HETATM   17  C   UNL     1       9.124   5.333  -1.055  1.00  0.00    -0.082 A 
HETATM   18  C   UNL     1      10.336   4.783  -0.904  1.00  0.00    -0.024 A 
HETATM   19  C   UNL     1      11.279   4.477  -2.016  1.00  0.00     0.027 A 
HETATM   20  C   UNL     1      10.795   4.750  -3.435  1.00  0.00     0.004 A 
HETATM   21  C   UNL     1       9.420   5.380  -3.632  1.00  0.00     0.005 A 
HETATM   22  C   UNL     1       8.576   5.711  -2.402  1.00  0.00     0.034 A 
ENDBRANCH  16  17
ENDBRANCH  15  16
ENDBRANCH   4  15
TORSDOF 4
