REMARK  6 active torsions:
REMARK  status: ('A' for Active; 'I' for Inactive)
REMARK    1  A    between atoms: O_2  and  C_3 
REMARK    2  A    between atoms: C_3  and  C_4 
REMARK    3  A    between atoms: C_4  and  N_5 
REMARK    4  A    between atoms: C_8  and  C_13 
REMARK       I    between atoms: C_13  and  N_15 
REMARK    5  A    between atoms: N_15  and  C_16 
REMARK    6  A    between atoms: C_16  and  C_18 
ROOT
HETATM    1  N   UNL     1       5.338   0.394  -2.765  1.00  0.00    -0.255 N 
HETATM    2  N   UNL     1       5.546   1.680  -3.261  1.00  0.00    -0.290 N 
ATOM      3  HN  UNL     1       5.849   2.444  -2.657  1.00  0.00     0.187 HD
HETATM    4  C   UNL     1       5.335   1.858  -4.531  1.00  0.00     0.116 A 
HETATM    5  C   UNL     1       4.875   0.811  -5.467  1.00  0.00     0.042 A 
HETATM    6  C   UNL     1       4.696  -0.412  -4.972  1.00  0.00     0.078 A 
HETATM    7  C   UNL     1       4.922  -0.685  -3.541  1.00  0.00     0.262 A 
HETATM    8  O   UNL     1       4.733  -1.825  -3.125  1.00  0.00    -0.267 OA
ENDROOT
BRANCH   4   9
HETATM    9  C   UNL     1       5.564   3.229  -5.167  1.00  0.00     0.270 C 
HETATM   10  O   UNL     1       5.821   3.291  -6.362  1.00  0.00    -0.266 OA
HETATM   11  N   UNL     1       5.440   4.317  -4.336  1.00  0.00    -0.349 N 
HETATM   12  H   UNL     1       5.313   4.161  -3.340  1.00  0.00     0.163 HD
BRANCH  11  13
HETATM   13  C   UNL     1       5.582   5.686  -4.831  1.00  0.00     0.109 C 
HETATM   14  C   UNL     1       4.264   6.437  -4.644  1.00  0.00     0.035 C 
BRANCH  13  15
HETATM   15  C   UNL     1       6.747   6.437  -4.162  1.00  0.00     0.143 C 
HETATM   16  C   UNL     1       8.125   5.817  -4.369  1.00  0.00     0.036 C 
HETATM   17  C   UNL     1       8.848   6.054  -3.058  1.00  0.00     0.029 C 
HETATM   18  C   UNL     1       7.866   6.835  -2.211  1.00  0.00     0.168 C 
HETATM   19  O   UNL     1       6.573   6.524  -2.737  1.00  0.00    -0.384 OA
ENDBRANCH  13  15
ENDBRANCH  11  13
ENDBRANCH   4   9
BRANCH   1  20
HETATM   20  C   UNL     1       5.504   0.202  -1.325  1.00  0.00     0.178 C 
BRANCH  20  21
HETATM   21  C   UNL     1       6.656  -0.739  -0.960  1.00  0.00     0.189 C 
BRANCH  21  22
HETATM   22  O   UNL     1       6.729  -0.872   0.464  1.00  0.00    -0.394 OA
HETATM   23  C   UNL     1       7.731  -1.807   0.847  1.00  0.00     0.201 C 
ENDBRANCH  21  22
ENDBRANCH  20  21
ENDBRANCH   1  20
TORSDOF 6
