REMARK  3 active torsions:
REMARK  status: ('A' for Active; 'I' for Inactive)
REMARK    1  A    between atoms: C_6  and  C_7 
REMARK    2  A    between atoms: C_7  and  N_8 
REMARK       I    between atoms: N_8  and  C_9 
REMARK       I    between atoms: C_9  and  N_11 
REMARK    3  A    between atoms: N_11  and  C_12 
ROOT
HETATM    1  N   UNL     1       0.605   1.820   2.073  1.00  0.00    -0.341 N 
HETATM    2  C   UNL     1      -0.390   0.898   1.824  1.00  0.00     0.322 C 
HETATM    3  O   UNL     1      -0.146  -0.301   1.772  1.00  0.00    -0.247 OA
HETATM    4  N   UNL     1      -1.617   1.492   1.690  1.00  0.00    -0.288 N 
HETATM    5  H   UNL     1       0.435   2.786   1.837  1.00  0.00     0.164 HD
HETATM    6  H   UNL     1      -1.751   2.418   2.067  1.00  0.00     0.172 HD
ENDROOT
BRANCH   1   7
HETATM    7  C   UNL     1       1.984   1.387   2.255  1.00  0.00     0.160 C 
BRANCH   7   8
HETATM    8  C   UNL     1       2.730   1.069   0.930  1.00  0.00     0.240 C 
HETATM    9  N   UNL     1       4.141   0.659   1.059  1.00  0.00     0.090 N 
HETATM   10  C   UNL     1       4.409  -0.379   2.040  1.00  0.00     0.310 C 
HETATM   11  C   UNL     1       4.944   1.863   1.265  1.00  0.00     0.272 C 
HETATM   12  C   UNL     1       4.168   2.973   0.565  1.00  0.00     0.032 C 
HETATM   13  C   UNL     1       2.900   2.307   0.047  1.00  0.00     0.039 C 
ENDBRANCH   7   8
ENDBRANCH   1   7
BRANCH   4  14
HETATM   14  C   UNL     1      -2.789   0.832   1.402  1.00  0.00     0.169 A 
HETATM   15  N   UNL     1      -3.977   1.376   1.560  1.00  0.00    -0.279 N 
HETATM   16  N   UNL     1      -4.998   0.503   1.223  1.00  0.00    -0.296 N 
ATOM     17  HN  UNL     1      -4.128   2.329   1.892  1.00  0.00     0.189 HD
HETATM   18  C   UNL     1      -4.534  -0.652   0.793  1.00  0.00     0.066 A 
ATOM     19  HN  UNL     1      -5.990   0.728   1.299  1.00  0.00     0.187 HD
HETATM   20  C   UNL     1      -5.359  -1.811   0.373  1.00  0.00     0.078 C 
HETATM   21  S   UNL     1      -2.824  -0.736   0.733  1.00  0.00    -0.038 SA
ENDBRANCH   4  14
TORSDOF 3
