REMARK  7 active torsions:
REMARK  status: ('A' for Active; 'I' for Inactive)
REMARK    1  A    between atoms: C_4  and  C_5 
REMARK    2  A    between atoms: C_5  and  S_6 
REMARK    3  A    between atoms: S_6  and  N_9 
REMARK    4  A    between atoms: N_9  and  C_10 
REMARK    5  A    between atoms: C_10  and  C_11 
REMARK    6  A    between atoms: C_11  and  C_12 
REMARK    7  A    between atoms: C_12  and  O_13 
ROOT
HETATM    1  S   UNL     1       5.339   3.382  -0.097  1.00  0.00     0.214 S 
HETATM    2  O   UNL     1       4.633   3.623  -1.337  1.00  0.00    -0.211 OA
HETATM    3  O   UNL     1       4.792   3.809   1.176  1.00  0.00    -0.211 OA
ENDROOT
BRANCH   1   4
HETATM    4  C   UNL     1       5.802   1.645   0.002  1.00  0.00     0.216 C 
BRANCH   4   5
HETATM    5  C   UNL     1       4.599   0.787  -0.120  1.00  0.00     0.050 A 
HETATM    6  C   UNL     1       3.443   0.765   0.695  1.00  0.00     0.062 A 
HETATM    7  C   UNL     1       2.620  -0.155   0.093  1.00  0.00     0.074 A 
HETATM    8  C   UNL     1       1.257  -0.639   0.362  1.00  0.00     0.079 C 
HETATM    9  O   UNL     1       3.255  -0.686  -0.984  1.00  0.00    -0.243 OA
HETATM   10  N   UNL     1       4.507  -0.109  -1.113  1.00  0.00    -0.264 N 
ATOM     11  HN  UNL     1       5.213  -0.322  -1.818  1.00  0.00     0.194 HD
ENDBRANCH   4   5
ENDBRANCH   1   4
BRANCH   1  12
HETATM   12  N   UNL     1       6.846   4.170  -0.248  1.00  0.00    -0.220 NA
HETATM   13  H   UNL     1       7.560   3.577  -0.679  1.00  0.00     0.139 HD
BRANCH  12  14
HETATM   14  C   UNL     1       6.742   5.483  -0.951  1.00  0.00     0.106 C 
BRANCH  14  15
HETATM   15  C   UNL     1       8.073   6.229  -0.900  1.00  0.00     0.041 C 
BRANCH  15  16
HETATM   16  C   UNL     1       8.444   6.699   0.500  1.00  0.00     0.165 C 
BRANCH  16  17
HETATM   17  O   UNL     1       8.676   5.595   1.363  1.00  0.00    -0.401 OA
HETATM   18  H   UNL     1       7.862   5.051   1.341  1.00  0.00     0.209 HD
ENDBRANCH  16  17
ENDBRANCH  15  16
ENDBRANCH  14  15
ENDBRANCH  12  14
ENDBRANCH   1  12
TORSDOF 7
