REMARK  4 active torsions:
REMARK  status: ('A' for Active; 'I' for Inactive)
REMARK    1  A    between atoms: N_6  and  C_7 
REMARK    2  A    between atoms: C_7  and  C_8 
REMARK    3  A    between atoms: C_8  and  N_9 
REMARK       I    between atoms: N_9  and  C_10 
REMARK       I    between atoms: C_10  and  N_12 
REMARK    4  A    between atoms: N_12  and  C_13 
ROOT
HETATM    1  N   UNL     1       2.982  -4.755  -3.912  1.00  0.00    -0.341 N 
HETATM    2  C   UNL     1       2.282  -5.871  -3.589  1.00  0.00     0.321 C 
HETATM    3  O   UNL     1       1.232  -5.855  -2.949  1.00  0.00    -0.247 OA
HETATM    4  N   UNL     1       2.788  -7.063  -4.023  1.00  0.00    -0.293 N 
HETATM    5  H   UNL     1       3.823  -4.884  -4.465  1.00  0.00     0.164 HD
HETATM    6  H   UNL     1       2.221  -7.863  -3.781  1.00  0.00     0.172 HD
ENDROOT
BRANCH   1   7
HETATM    7  C   UNL     1       2.591  -3.413  -3.557  1.00  0.00     0.154 C 
BRANCH   7   8
HETATM    8  C   UNL     1       3.103  -2.989  -2.168  1.00  0.00     0.292 C 
BRANCH   8   9
HETATM    9  N   UNL     1       2.690  -1.622  -1.791  1.00  0.00     0.090 N 
HETATM   10  C   UNL     1       3.247  -0.603  -2.692  1.00  0.00     0.272 C 
HETATM   11  C   UNL     1       2.764   0.801  -2.327  1.00  0.00     0.031 C 
HETATM   12  C   UNL     1       3.056   1.130  -0.869  1.00  0.00     0.007 C 
HETATM   13  C   UNL     1       2.538   0.032   0.069  1.00  0.00     0.010 C 
HETATM   14  C   UNL     1       1.008   0.048   0.167  1.00  0.00     0.011 C 
HETATM   15  C   UNL     1       3.058  -1.342  -0.393  1.00  0.00     0.276 C 
ENDBRANCH   8   9
ENDBRANCH   7   8
ENDBRANCH   1   7
BRANCH   4  16
HETATM   16  C   UNL     1       3.964  -7.282  -4.711  1.00  0.00     0.132 A 
HETATM   17  C   UNL     1       4.438  -8.553  -5.114  1.00  0.00     0.084 A 
HETATM   18  C   UNL     1       5.629  -8.291  -5.745  1.00  0.00     0.076 A 
HETATM   19  C   UNL     1       6.662  -9.108  -6.399  1.00  0.00     0.079 C 
HETATM   20  O   UNL     1       5.856  -6.955  -5.731  1.00  0.00    -0.241 OA
HETATM   21  N   UNL     1       4.817  -6.323  -5.088  1.00  0.00    -0.245 N 
ATOM     22  HN  UNL     1       4.717  -5.320  -4.930  1.00  0.00     0.196 HD
ENDBRANCH   4  16
TORSDOF 4
