REMARK  6 active torsions:
REMARK  status: ('A' for Active; 'I' for Inactive)
REMARK    1  A    between atoms: C_2  and  C_4 
REMARK    2  A    between atoms: N_9  and  C_10 
REMARK    3  A    between atoms: C_10  and  C_11 
REMARK       I    between atoms: C_11  and  N_13 
REMARK    4  A    between atoms: N_13  and  C_14 
REMARK    5  A    between atoms: C_14  and  C_15 
REMARK    6  A    between atoms: C_14  and  C_18 
ROOT
HETATM    1  C   UNL     1       1.331  -2.475   0.670  1.00  0.00     0.236 C 
HETATM    2  O   UNL     1       0.746  -1.416   0.439  1.00  0.00    -0.272 OA
HETATM    3  N   UNL     1       1.127  -3.186   1.844  1.00  0.00    -0.354 N 
HETATM    4  H   UNL     1       1.805  -3.878   2.134  1.00  0.00     0.162 HD
ENDROOT
BRANCH   1   5
HETATM    5  C   UNL     1       2.230  -3.095  -0.378  1.00  0.00     0.232 C 
BRANCH   5   6
HETATM    6  N   UNL     1       3.625  -2.678  -0.337  1.00  0.00    -0.336 N 
HETATM    7  C   UNL     1       4.185  -1.449  -0.617  1.00  0.00     0.087 A 
HETATM    8  N   UNL     1       5.508  -1.543  -0.618  1.00  0.00    -0.354 N 
HETATM    9  C   UNL     1       5.809  -2.855  -0.392  1.00  0.00     0.106 A 
ATOM     10  HN  UNL     1       6.172  -0.782  -0.760  1.00  0.00     0.166 HD
HETATM   11  C   UNL     1       4.663  -3.583  -0.227  1.00  0.00     0.110 A 
BRANCH   7  12
HETATM   12  C   UNL     1       3.464  -0.167  -0.946  1.00  0.00     0.045 C 
HETATM   13  C   UNL     1       3.941   0.949  -0.008  1.00  0.00     0.017 C 
HETATM   14  C   UNL     1       3.687   0.210  -2.415  1.00  0.00     0.017 C 
ENDBRANCH   7  12
ENDBRANCH   5   6
ENDBRANCH   1   5
BRANCH   3  15
HETATM   15  C   UNL     1       0.265  -2.606   2.865  1.00  0.00     0.092 C 
BRANCH  15  16
HETATM   16  C   UNL     1      -0.474  -3.599   3.724  1.00  0.00     0.009 A 
HETATM   17  C   UNL     1       0.172  -4.470   4.776  1.00  0.00     0.007 A 
HETATM   18  C   UNL     1      -0.428  -5.100   3.548  1.00  0.00     0.007 A 
ENDBRANCH  15  16
BRANCH  15  19
HETATM   19  C   UNL     1       1.054  -1.591   3.659  1.00  0.00     0.009 A 
HETATM   20  C   UNL     1       0.484  -0.833   4.837  1.00  0.00     0.007 A 
HETATM   21  C   UNL     1       0.666  -0.135   3.523  1.00  0.00     0.007 A 
ENDBRANCH  15  19
ENDBRANCH   3  15
TORSDOF 6
