REMARK  7 active torsions:
REMARK  status: ('A' for Active; 'I' for Inactive)
REMARK    1  A    between atoms: N_8  and  C_9 
REMARK    2  A    between atoms: C_9  and  C_10 
REMARK    3  A    between atoms: C_10  and  O_11 
REMARK    4  A    between atoms: C_10  and  C_12 
REMARK    5  A    between atoms: C_12  and  N_13 
REMARK    6  A    between atoms: N_13  and  C_14 
REMARK    7  A    between atoms: C_14  and  C_15 
ROOT
HETATM    1  C   UNL     1       7.156   2.192   0.135  1.00  0.00     0.164 C 
ENDROOT
BRANCH   1   2
HETATM    2  C   UNL     1       7.562   0.708   0.096  1.00  0.00     0.163 C 
BRANCH   2   3
HETATM    3  N   UNL     1       6.424  -0.186   0.206  1.00  0.00    -0.339 N 
HETATM    4  C   UNL     1       5.962  -0.717   1.378  1.00  0.00     0.184 A 
HETATM    5  N   UNL     1       4.922  -1.492   1.184  1.00  0.00    -0.350 N 
HETATM    6  C   UNL     1       4.707  -1.467  -0.172  1.00  0.00     0.060 A 
ATOM      7  HN  UNL     1       4.389  -2.003   1.888  1.00  0.00     0.166 HD
HETATM    8  C   UNL     1       3.717  -2.113  -0.924  1.00  0.00     0.039 A 
HETATM    9  C   UNL     1       5.644  -0.667  -0.817  1.00  0.00     0.062 A 
HETATM   10  C   UNL     1       3.685  -1.951  -2.322  1.00  0.00    -0.054 A 
HETATM   11  C   UNL     1       2.599  -2.643  -3.102  1.00  0.00     0.049 C 
HETATM   12  C   UNL     1       4.656  -1.149  -2.961  1.00  0.00    -0.054 A 
HETATM   13  C   UNL     1       5.656  -0.495  -2.208  1.00  0.00     0.039 A 
HETATM   14  C   UNL     1       4.641  -0.968  -4.458  1.00  0.00     0.049 C 
ENDBRANCH   2   3
ENDBRANCH   1   2
BRANCH   1  15
HETATM   15  O   UNL     1       6.557   2.548   1.388  1.00  0.00    -0.392 OA
HETATM   16  H   UNL     1       7.008   2.078   2.109  1.00  0.00     0.210 HD
ENDBRANCH   1  15
BRANCH   1  17
HETATM   17  C   UNL     1       8.370   3.117  -0.098  1.00  0.00     0.303 C 
BRANCH  17  18
HETATM   18  N   UNL     1       8.995   2.854  -1.391  1.00  0.00     0.091 N 
HETATM   19  H   UNL     1       8.320   3.039  -2.140  1.00  0.00     0.316 HD
BRANCH  18  20
HETATM   20  C   UNL     1      10.142   3.733  -1.644  1.00  0.00     0.326 C 
BRANCH  20  21
HETATM   21  C   UNL     1      10.723   3.437  -3.011  1.00  0.00     0.040 A 
HETATM   22  C   UNL     1      11.700   2.472  -3.162  1.00  0.00     0.044 A 
HETATM   23  C   UNL     1      12.091   2.204  -4.452  1.00  0.00     0.091 A 
HETATM   24  N   UNL     1      11.578   2.825  -5.529  1.00  0.00    -0.356 N 
HETATM   25  C   UNL     1      10.628   3.747  -5.290  1.00  0.00     0.077 A 
ATOM     26  HN  UNL     1      11.892   2.609  -6.475  1.00  0.00     0.166 HD
HETATM   27  C   UNL     1      10.043   4.469  -6.463  1.00  0.00     0.089 C 
HETATM   28  N   UNL     1      10.166   4.075  -4.068  1.00  0.00    -0.348 N 
ATOM     29  HN  UNL     1       9.431   4.771  -3.944  1.00  0.00     0.167 HD
ENDBRANCH  20  21
ENDBRANCH  18  20
ENDBRANCH  17  18
ENDBRANCH   1  17
TORSDOF 7
