REMARK  4 active torsions:
REMARK  status: ('A' for Active; 'I' for Inactive)
REMARK    1  A    between atoms: N_7  and  C_8 
REMARK    2  A    between atoms: C_8  and  C_9 
REMARK       I    between atoms: C_9  and  N_11 
REMARK    3  A    between atoms: N_11  and  C_12 
REMARK    4  A    between atoms: C_12  and  C_13 
ROOT
HETATM    1  C   UNL     1       5.003  -2.653  -0.072  1.00  0.00     0.235 C 
ENDROOT
BRANCH   1   2
HETATM    2  N   UNL     1       5.712  -2.461   1.191  1.00  0.00    -0.301 N 
HETATM    3  C   UNL     1       5.106  -1.770   2.212  1.00  0.00     0.102 C 
HETATM    4  C   UNL     1       5.731  -1.531   3.365  1.00  0.00     0.092 C 
HETATM    5  C   UNL     1       7.125  -1.981   3.536  1.00  0.00     0.252 C 
HETATM    6  N   UNL     1       7.693  -2.626   2.452  1.00  0.00    -0.271 N 
HETATM    7  O   UNL     1       7.692  -1.755   4.602  1.00  0.00    -0.268 OA
HETATM    8  C   UNL     1       9.095  -2.983   2.510  1.00  0.00     0.164 C 
HETATM    9  C   UNL     1       6.992  -2.993   1.306  1.00  0.00     0.331 C 
HETATM   10  O   UNL     1       7.467  -3.728   0.437  1.00  0.00    -0.246 OA
ENDBRANCH   1   2
BRANCH   1  11
HETATM   11  C   UNL     1       4.116  -3.896  -0.046  1.00  0.00     0.235 C 
HETATM   12  O   UNL     1       2.988  -3.872   0.442  1.00  0.00    -0.272 OA
HETATM   13  N   UNL     1       4.690  -5.033  -0.583  1.00  0.00    -0.359 N 
HETATM   14  H   UNL     1       5.709  -5.064  -0.615  1.00  0.00     0.162 HD
BRANCH  13  15
HETATM   15  C   UNL     1       3.948  -6.276  -0.600  1.00  0.00     0.127 C 
BRANCH  15  16
HETATM   16  C   UNL     1       4.476  -7.133  -1.735  1.00  0.00     0.003 C 
HETATM   17  C   UNL     1       4.362  -6.603  -3.194  1.00  0.00     0.006 C 
HETATM   18  C   UNL     1       4.017  -8.046  -3.616  1.00  0.00     0.001 C 
HETATM   19  C   UNL     1       3.505  -8.265  -2.179  1.00  0.00     0.006 C 
ENDBRANCH  15  16
ENDBRANCH  13  15
ENDBRANCH   1  11
TORSDOF 4
