REMARK  4 active torsions:
REMARK  status: ('A' for Active; 'I' for Inactive)
REMARK       I    between atoms: N_2  and  C_3 
REMARK    1  A    between atoms: C_3  and  C_5 
REMARK    2  A    between atoms: C_5  and  N_6 
REMARK    3  A    between atoms: C_9  and  N_12 
REMARK       I    between atoms: N_12  and  C_13 
REMARK       I    between atoms: C_13  and  N_15 
REMARK    4  A    between atoms: N_15  and  C_16 
ROOT
HETATM    1  N   UNL     1       8.022   4.076   1.594  1.00  0.00    -0.343 N 
HETATM    2  C   UNL     1       8.549   5.280   1.178  1.00  0.00     0.300 C 
HETATM    3  O   UNL     1       8.497   5.654   0.013  1.00  0.00    -0.254 OA
HETATM    4  N   UNL     1       9.162   5.947   2.217  1.00  0.00    -0.196 NA
HETATM    5  H   UNL     1       7.733   4.050   2.562  1.00  0.00     0.164 HD
HETATM    6  H   UNL     1       9.761   5.336   2.753  1.00  0.00     0.139 HD
ENDROOT
BRANCH   1   7
HETATM    7  C   UNL     1       7.332   3.208   0.640  1.00  0.00     0.089 C 
HETATM    8  C   UNL     1       5.848   3.566   0.502  1.00  0.00     0.055 C 
HETATM    9  C   UNL     1       5.025   3.068   1.692  1.00  0.00     0.275 C 
HETATM   10  N   UNL     1       5.196   1.634   2.000  1.00  0.00     0.097 N 
HETATM   11  C   UNL     1       6.623   1.319   2.180  1.00  0.00     0.275 C 
HETATM   12  C   UNL     1       7.514   1.737   1.010  1.00  0.00     0.055 C 
BRANCH  10  13
HETATM   13  C   UNL     1       4.583   0.753   0.974  1.00  0.00     0.374 C 
BRANCH  13  14
HETATM   14  C   UNL     1       3.064   0.933   0.910  1.00  0.00     0.245 C 
HETATM   15  N   UNL     1       2.420   0.666   2.101  1.00  0.00    -0.364 N 
HETATM   16  C   UNL     1       1.001   0.864   2.232  1.00  0.00     0.149 C 
HETATM   17  H   UNL     1       3.003   0.630   2.930  1.00  0.00     0.161 HD
HETATM   18  O   UNL     1       2.481   1.262  -0.119  1.00  0.00    -0.272 OA
ENDBRANCH  13  14
ENDBRANCH  10  13
ENDBRANCH   1   7
BRANCH   4  19
HETATM   19  C   UNL     1       9.803   7.174   1.977  1.00  0.00     0.094 A 
HETATM   20  N   UNL     1      11.110   7.184   2.324  1.00  0.00    -0.356 N 
HETATM   21  C   UNL     1      11.820   8.286   2.002  1.00  0.00     0.089 A 
ATOM     22  HN  UNL     1      11.540   6.395   2.807  1.00  0.00     0.166 HD
HETATM   23  C   UNL     1      11.279   9.398   1.382  1.00  0.00     0.018 A 
HETATM   24  C   UNL     1       9.915   9.400   1.115  1.00  0.00     0.011 A 
HETATM   25  C   UNL     1       9.140   8.281   1.437  1.00  0.00    -0.023 A 
HETATM   26  C   UNL     1       7.647   8.343   1.275  1.00  0.00     0.052 C 
ENDBRANCH   4  19
TORSDOF 4
