REMARK  7 active torsions:
REMARK  status: ('A' for Active; 'I' for Inactive)
REMARK    1  A    between atoms: C_7  and  O_8 
REMARK    2  A    between atoms: O_8  and  C_9 
REMARK    3  A    between atoms: C_9  and  C_10 
REMARK    4  A    between atoms: C_10  and  N_11 
REMARK    5  A    between atoms: C_12  and  C_13 
REMARK    6  A    between atoms: C_13  and  N_14 
REMARK    7  A    between atoms: N_14  and  C_15 
ROOT
HETATM    1  N   UNL     1       4.669  -6.152  -0.521  1.00  0.00    -0.331 N 
HETATM    2  C   UNL     1       5.281  -7.388  -0.716  1.00  0.00     0.102 A 
HETATM    3  N   UNL     1       4.417  -8.372  -0.561  1.00  0.00    -0.343 N 
ATOM      4  HN  UNL     1       4.609  -9.373  -0.608  1.00  0.00     0.167 HD
HETATM    5  C   UNL     1       3.209  -7.774  -0.324  1.00  0.00     0.060 A 
HETATM    6  C   UNL     1       1.959  -8.379  -0.109  1.00  0.00     0.032 A 
HETATM    7  C   UNL     1       0.836  -7.574   0.109  1.00  0.00     0.002 A 
HETATM    8  C   UNL     1       0.954  -6.191   0.093  1.00  0.00     0.002 A 
HETATM    9  C   UNL     1       2.189  -5.576  -0.137  1.00  0.00     0.032 A 
HETATM   10  C   UNL     1       3.322  -6.384  -0.325  1.00  0.00     0.062 A 
ENDROOT
BRANCH   1  11
HETATM   11  C   UNL     1       5.419  -4.907  -0.500  1.00  0.00     0.157 C 
BRANCH  11  12
HETATM   12  C   UNL     1       4.685  -3.582  -0.329  1.00  0.00     0.196 C 
BRANCH  12  13
HETATM   13  O   UNL     1       4.167  -3.478   1.001  1.00  0.00    -0.349 OA
BRANCH  13  14
HETATM   14  C   UNL     1       3.336  -2.418   1.263  1.00  0.00     0.075 A 
HETATM   15  C   UNL     1       2.648  -2.451   2.488  1.00  0.00    -0.029 A 
HETATM   16  C   UNL     1       1.797  -1.388   2.825  1.00  0.00     0.010 A 
HETATM   17  C   UNL     1       2.810  -3.604   3.441  1.00  0.00     0.051 C 
HETATM   18  C   UNL     1       1.638  -0.301   1.962  1.00  0.00     0.007 A 
HETATM   19  C   UNL     1       2.320  -0.265   0.746  1.00  0.00    -0.059 A 
HETATM   20  C   UNL     1       2.197   0.900  -0.190  1.00  0.00     0.048 C 
HETATM   21  C   UNL     1       3.153  -1.336   0.397  1.00  0.00     0.044 A 
ENDBRANCH  13  14
ENDBRANCH  12  13
ENDBRANCH  11  12
ENDBRANCH   1  11
BRANCH   2  22
HETATM   22  C   UNL     1       6.718  -7.581  -1.085  1.00  0.00     0.198 C 
BRANCH  22  23
HETATM   23  N   UNL     1       7.501  -7.818   0.103  1.00  0.00    -0.361 N 
HETATM   24  H   UNL     1       7.359  -8.694   0.590  1.00  0.00     0.162 HD
BRANCH  23  25
HETATM   25  C   UNL     1       8.362  -6.891   0.618  1.00  0.00     0.348 C 
HETATM   26  O   UNL     1       8.564  -5.775   0.154  1.00  0.00    -0.284 OA
ENDBRANCH  23  25
ENDBRANCH  22  23
ENDBRANCH   2  22
TORSDOF 7
