REMARK  5 active torsions:
REMARK  status: ('A' for Active; 'I' for Inactive)
REMARK    1  A    between atoms: C_2  and  N_3 
REMARK    2  A    between atoms: C_5  and  C_9 
REMARK       I    between atoms: C_9  and  N_11 
REMARK    3  A    between atoms: N_11  and  C_12 
REMARK    4  A    between atoms: C_12  and  C_13 
REMARK    5  A    between atoms: C_13  and  C_14 
ROOT
HETATM    1  C   UNL     1       2.455  -4.795  -0.805  1.00  0.00     0.223 C 
HETATM    2  O   UNL     1       2.851  -4.921  -1.957  1.00  0.00    -0.273 OA
HETATM    3  N   UNL     1       1.307  -5.418  -0.355  1.00  0.00    -0.360 N 
HETATM    4  H   UNL     1       1.081  -5.405   0.631  1.00  0.00     0.162 HD
ENDROOT
BRANCH   3   5
HETATM    5  C   UNL     1       0.632  -6.379  -1.221  1.00  0.00     0.128 C 
BRANCH   5   6
HETATM    6  C   UNL     1      -0.648  -6.949  -0.616  1.00  0.00     0.077 C 
BRANCH   6   7
HETATM    7  C   UNL     1      -1.321  -7.902  -1.552  1.00  0.00     0.018 A 
HETATM    8  C   UNL     1      -2.264  -7.589  -2.511  1.00  0.00     0.076 A 
HETATM    9  S   UNL     1      -2.734  -8.999  -3.361  1.00  0.00    -0.087 SA
HETATM   10  C   UNL     1      -1.657  -9.926  -2.396  1.00  0.00     0.046 A 
HETATM   11  C   UNL     1      -1.526 -11.394  -2.606  1.00  0.00     0.076 C 
HETATM   12  N   UNL     1      -0.982  -9.245  -1.493  1.00  0.00    -0.357 N 
ATOM     13  HN  UNL     1      -0.307  -9.648  -0.843  1.00  0.00     0.166 HD
ENDBRANCH   6   7
ENDBRANCH   5   6
ENDBRANCH   3   5
BRANCH   1  14
HETATM   14  C   UNL     1       3.126  -3.875   0.206  1.00  0.00     0.104 A 
HETATM   15  C   UNL     1       4.438  -3.313  -0.343  1.00  0.00     0.140 A 
HETATM   16  N   UNL     1       5.442  -3.603   0.648  1.00  0.00    -0.352 N 
HETATM   17  C   UNL     1       4.948  -4.291   1.736  1.00  0.00     0.220 A 
HETATM   18  C   UNL     1       3.491  -4.581   1.510  1.00  0.00     0.118 A 
HETATM   19  O   UNL     1       5.577  -4.651   2.719  1.00  0.00    -0.273 OA
BRANCH  16  20
HETATM   20  C   UNL     1       6.864  -3.486   0.363  1.00  0.00     0.121 C 
HETATM   21  C   UNL     1       7.310  -2.063   0.090  1.00  0.00     0.026 C 
ENDBRANCH  16  20
ENDBRANCH   1  14
TORSDOF 5
