REMARK  4 active torsions:
REMARK  status: ('A' for Active; 'I' for Inactive)
REMARK    1  A    between atoms: N_1  and  C_8 
REMARK    2  A    between atoms: C_7  and  N_15 
REMARK    3  A    between atoms: C_11  and  C_17 
REMARK    4  A    between atoms: O_16  and  C_17 
ROOT
HETATM    1  N   UNL     1      -2.484   2.343  -1.196  1.00  0.00    -0.279 N 
HETATM    2  N   UNL     1      -3.887   0.658  -2.172  1.00  0.00    -0.292 N 
ATOM      3  HN  UNL     1      -4.352  -0.249  -2.125  1.00  0.00     0.172 HD
HETATM    4  C   UNL     1      -3.041   1.053  -1.158  1.00  0.00     0.330 A 
HETATM    5  C   UNL     1      -2.690   3.161  -2.289  1.00  0.00     0.144 A 
HETATM    6  C   UNL     1      -3.472   2.777  -3.290  1.00  0.00     0.175 A 
HETATM    7  C   UNL     1      -4.092   1.441  -3.188  1.00  0.00     0.143 A 
HETATM    8  O   UNL     1      -2.769   0.279  -0.242  1.00  0.00    -0.246 OA
HETATM    9  F   UNL     1      -3.722   3.521  -4.382  1.00  0.00    -0.201 F 
ENDROOT
BRANCH   1  10
HETATM   10  C   UNL     1      -1.536   2.698  -0.129  1.00  0.00     0.243 C 
HETATM   11  O   UNL     1      -0.924   3.983  -0.379  1.00  0.00    -0.348 OA
HETATM   12  C   UNL     1      -1.390   4.983   0.540  1.00  0.00     0.209 C 
HETATM   13  S   UNL     1      -2.678   4.316   1.608  1.00  0.00    -0.131 SA
HETATM   14  C   UNL     1      -2.094   2.650   1.304  1.00  0.00     0.131 C 
BRANCH  12  15
HETATM   15  C   UNL     1      -1.845   6.261  -0.189  1.00  0.00     0.207 C 
BRANCH  15  16
HETATM   16  O   UNL     1      -2.973   6.047  -1.041  1.00  0.00    -0.398 OA
HETATM   17  H   UNL     1      -3.634   6.727  -0.825  1.00  0.00     0.209 HD
ENDBRANCH  15  16
ENDBRANCH  12  15
ENDBRANCH   1  10
BRANCH   7  18
HETATM   18  N   UNL     1      -4.913   0.979  -4.184  1.00  0.00    -0.383 N 
HETATM   19  H   UNL     1      -5.393   1.672  -4.746  1.00  0.00     0.157 HD
HETATM   20  H   UNL     1      -5.479   0.183  -3.909  1.00  0.00     0.157 HD
ENDBRANCH   7  18
TORSDOF 4
