REMARK  6 active torsions:
REMARK  status: ('A' for Active; 'I' for Inactive)
REMARK    1  A    between atoms: C_2  and  N_3 
REMARK       I    between atoms: N_6  and  C_9 
REMARK    2  A    between atoms: C_9  and  C_11 
REMARK    3  A    between atoms: C_11  and  N_13 
REMARK    4  A    between atoms: N_13  and  C_14 
REMARK    5  A    between atoms: C_14  and  C_16 
REMARK    6  A    between atoms: C_16  and  N_17 
ROOT
HETATM    1  C   UNL     1       2.516   5.714   1.304  1.00  0.00     0.308 C 
HETATM    2  C   UNL     1       3.974   5.467   0.908  1.00  0.00     0.053 C 
ENDROOT
BRANCH   1   3
HETATM    3  C   UNL     1       1.598   4.890   0.372  1.00  0.00     0.253 C 
HETATM    4  N   UNL     1       1.316   3.577   0.732  1.00  0.00    -0.347 N 
HETATM    5  C   UNL     1       1.824   2.875   1.913  1.00  0.00     0.156 C 
HETATM    6  C   UNL     1       0.383   2.785  -0.081  1.00  0.00     0.156 C 
HETATM    7  C   UNL     1       2.404   1.499   1.527  1.00  0.00     0.292 C 
HETATM    8  N   UNL     1       1.468   0.629   0.781  1.00  0.00     0.091 N 
HETATM    9  C   UNL     1       0.937   1.377  -0.382  1.00  0.00     0.292 C 
HETATM   10  O   UNL     1       1.160   5.385  -0.670  1.00  0.00    -0.271 OA
BRANCH   8  11
HETATM   11  C   UNL     1       0.448   0.074   1.680  1.00  0.00     0.268 C 
HETATM   12  C   UNL     1      -0.504  -0.914   1.018  1.00  0.00     0.037 C 
ENDBRANCH   8  11
ENDBRANCH   1   3
BRANCH   1  13
HETATM   13  N   UNL     1       2.233   7.169   1.216  1.00  0.00     0.102 N 
HETATM   14  H   UNL     1       2.312   7.408   0.219  1.00  0.00     0.317 HD
BRANCH  13  15
HETATM   15  C   UNL     1       0.868   7.566   1.647  1.00  0.00     0.237 C 
HETATM   16  C   UNL     1       0.575   7.122   3.088  1.00  0.00     0.044 C 
BRANCH  15  17
HETATM   17  C   UNL     1       0.682   9.099   1.567  1.00  0.00     0.183 C 
BRANCH  17  18
HETATM   18  N   UNL     1       0.821   9.652   0.234  1.00  0.00    -0.302 N 
HETATM   19  C   UNL     1       1.973  10.127  -0.330  1.00  0.00     0.111 A 
HETATM   20  C   UNL     1       1.621  10.618  -1.562  1.00  0.00     0.037 A 
HETATM   21  C   UNL     1       0.229  10.417  -1.641  1.00  0.00     0.108 A 
HETATM   22  N   UNL     1      -0.266   9.835  -0.545  1.00  0.00    -0.310 N 
ATOM     23  HN  UNL     1      -1.235   9.588  -0.345  1.00  0.00     0.186 HD
ENDBRANCH  17  18
ENDBRANCH  15  17
ENDBRANCH  13  15
ENDBRANCH   1  13
TORSDOF 6
