REMARK  5 active torsions:
REMARK  status: ('A' for Active; 'I' for Inactive)
REMARK    1  A    between atoms: C_2  and  O_3 
REMARK    2  A    between atoms: O_3  and  C_4 
REMARK    3  A    between atoms: C_4  and  C_5 
REMARK    4  A    between atoms: C_5  and  N_6 
REMARK    5  A    between atoms: C_7  and  N_19 
ROOT
HETATM    1  N   UNL     1       6.276   0.936  -2.576  1.00  0.00    -0.172 N 
HETATM    2  C   UNL     1       7.056   2.086  -2.600  1.00  0.00     0.685 A 
HETATM    3  N   UNL     1       8.340   1.776  -2.538  1.00  0.00    -0.174 N 
ATOM      4  HN  UNL     1       9.129   2.420  -2.482  1.00  0.00     0.186 HD
HETATM    5  C   UNL     1       8.386   0.414  -2.565  1.00  0.00     0.160 A 
HETATM    6  N   UNL     1       9.511  -0.388  -2.531  1.00  0.00    -0.287 N 
HETATM    7  C   UNL     1      10.853   0.146  -2.486  1.00  0.00     0.163 C 
HETATM    8  C   UNL     1       9.353  -1.771  -2.542  1.00  0.00     0.330 C 
HETATM    9  O   UNL     1      10.292  -2.567  -2.519  1.00  0.00    -0.246 OA
HETATM   10  N   UNL     1       8.065  -2.261  -2.599  1.00  0.00    -0.273 N 
HETATM   11  C   UNL     1       6.909  -1.529  -2.739  1.00  0.00     0.280 C 
HETATM   12  O   UNL     1       5.829  -2.063  -2.944  1.00  0.00    -0.265 OA
HETATM   13  C   UNL     1       7.134  -0.129  -2.647  1.00  0.00     0.164 A 
HETATM   14  H   UNL     1       7.974  -3.263  -2.649  1.00  0.00     0.173 HD
ENDROOT
BRANCH   2  15
HETATM   15  N   UNL     1       6.488   3.325  -2.599  1.00  0.00    -0.217 N 
HETATM   16  C   UNL     1       7.276   4.423  -2.025  1.00  0.00     0.141 C 
HETATM   17  C   UNL     1       6.308   5.510  -1.544  1.00  0.00     0.021 C 
HETATM   18  C   UNL     1       5.386   5.981  -2.670  1.00  0.00     0.007 C 
HETATM   19  C   UNL     1       4.680   4.790  -3.338  1.00  0.00     0.000 C 
HETATM   20  C   UNL     1       3.818   5.251  -4.509  1.00  0.00     0.011 C 
HETATM   21  C   UNL     1       5.714   3.740  -3.780  1.00  0.00     0.145 C 
ENDBRANCH   2  15
BRANCH   1  22
HETATM   22  C   UNL     1       4.831   0.858  -2.441  1.00  0.00     0.174 C 
BRANCH  22  23
HETATM   23  C   UNL     1       4.341   0.103  -1.208  1.00  0.00     0.188 C 
BRANCH  23  24
HETATM   24  O   UNL     1       4.775   0.765  -0.020  1.00  0.00    -0.390 OA
BRANCH  24  25
HETATM   25  C   UNL     1       4.438   0.018   1.146  1.00  0.00     0.163 C 
HETATM   26  C   UNL     1       4.987   0.746   2.354  1.00  0.00     0.033 C 
ENDBRANCH  24  25
ENDBRANCH  23  24
ENDBRANCH  22  23
ENDBRANCH   1  22
TORSDOF 5
