REMARK  5 active torsions:
REMARK  status: ('A' for Active; 'I' for Inactive)
REMARK    1  A    between atoms: C_12  and  O_20 
REMARK    2  A    between atoms: C_13  and  C_16 
REMARK    3  A    between atoms: C_14  and  O_15 
REMARK    4  A    between atoms: C_14  and  C_19 
REMARK    5  A    between atoms: O_15  and  C_16 
ROOT
HETATM    1  N   UNL     1       0.545  -0.340  -0.674  1.00  0.00    -0.292 N 
HETATM    2  C   UNL     1       0.481   1.024  -0.663  1.00  0.00     0.231 A 
HETATM    3  C   UNL     1      -0.788  -0.908  -0.613  1.00  0.00     0.263 C 
HETATM    4  N   UNL     1       1.413   1.857  -0.382  1.00  0.00    -0.288 N 
ATOM      5  HN  UNL     1       1.266   2.864  -0.446  1.00  0.00     0.172 HD
HETATM    6  C   UNL     1      -1.657   0.359  -0.539  1.00  0.00     0.212 C 
HETATM    7  O   UNL     1      -0.791   1.460  -0.853  1.00  0.00    -0.309 OA
HETATM    8  C   UNL     1       1.695  -0.923  -0.199  1.00  0.00     0.109 A 
HETATM    9  O   UNL     1      -0.983  -1.623   0.620  1.00  0.00    -0.353 OA
HETATM   10  C   UNL     1       2.626   1.327   0.012  1.00  0.00     0.255 A 
HETATM   11  C   UNL     1       2.733  -0.168   0.190  1.00  0.00     0.022 A 
HETATM   12  C   UNL     1      -2.121   0.390   0.928  1.00  0.00     0.183 C 
HETATM   13  C   UNL     1      -1.168  -0.593   1.605  1.00  0.00     0.180 C 
HETATM   14  O   UNL     1       3.593   2.031   0.282  1.00  0.00    -0.268 OA
HETATM   15  C   UNL     1       3.967  -0.693   0.843  1.00  0.00     0.056 C 
ENDROOT
BRANCH  13  16
HETATM   16  C   UNL     1      -1.629  -1.135   2.952  1.00  0.00     0.213 C 
BRANCH  16  17
HETATM   17  O   UNL     1      -1.691  -0.078   3.923  1.00  0.00    -0.315 OA
BRANCH  17  18
HETATM   18  C   UNL     1      -0.486   0.366   4.366  1.00  0.00     0.293 C 
HETATM   19  O   UNL     1       0.601  -0.129   4.112  1.00  0.00    -0.259 OA
BRANCH  18  20
HETATM   20  C   UNL     1      -0.662   1.566   5.215  1.00  0.00     0.039 A 
HETATM   21  C   UNL     1      -1.738   2.444   5.031  1.00  0.00     0.017 A 
HETATM   22  C   UNL     1      -1.864   3.568   5.849  1.00  0.00     0.001 A 
HETATM   23  C   UNL     1      -0.919   3.816   6.845  1.00  0.00     0.000 A 
HETATM   24  C   UNL     1       0.165   2.954   7.016  1.00  0.00     0.001 A 
HETATM   25  C   UNL     1       0.300   1.834   6.195  1.00  0.00     0.017 A 
ENDBRANCH  18  20
ENDBRANCH  17  18
ENDBRANCH  16  17
ENDBRANCH  13  16
BRANCH  12  26
HETATM   26  O   UNL     1      -2.093   1.687   1.506  1.00  0.00    -0.390 OA
HETATM   27  H   UNL     1      -1.229   2.096   1.297  1.00  0.00     0.210 HD
ENDBRANCH  12  26
TORSDOF 5
