REMARK  6 active torsions:
REMARK  status: ('A' for Active; 'I' for Inactive)
REMARK    1  A    between atoms: C_7  and  O_8 
REMARK    2  A    between atoms: O_8  and  C_9 
REMARK    3  A    between atoms: C_9  and  C_10 
REMARK    4  A    between atoms: C_10  and  N_11 
REMARK       I    between atoms: N_11  and  C_12 
REMARK    5  A    between atoms: C_12  and  C_14 
REMARK    6  A    between atoms: C_14  and  N_15 
ROOT
HETATM    1  N   UNL     1       1.042  -3.207   2.944  1.00  0.00    -0.358 N 
HETATM    2  C   UNL     1       0.341  -4.062   3.770  1.00  0.00     0.235 C 
HETATM    3  O   UNL     1       0.880  -4.905   4.483  1.00  0.00    -0.272 OA
HETATM    4  H   UNL     1       0.543  -2.860   2.122  1.00  0.00     0.162 HD
ENDROOT
BRANCH   1   5
HETATM    5  C   UNL     1       2.484  -3.329   2.820  1.00  0.00     0.148 C 
BRANCH   5   6
HETATM    6  C   UNL     1       3.073  -2.226   1.946  1.00  0.00     0.187 C 
BRANCH   6   7
HETATM    7  O   UNL     1       2.528  -2.329   0.624  1.00  0.00    -0.384 OA
BRANCH   7   8
HETATM    8  C   UNL     1       3.069  -1.380  -0.304  1.00  0.00     0.125 C 
HETATM    9  C   UNL     1       2.735   0.080   0.077  1.00  0.00     0.010 C 
HETATM   10  C   UNL     1       1.242   0.289   0.361  1.00  0.00     0.012 C 
HETATM   11  C   UNL     1       3.251   1.042  -1.001  1.00  0.00     0.007 C 
HETATM   12  C   UNL     1       2.729   0.704  -2.394  1.00  0.00     0.001 C 
HETATM   13  C   UNL     1       3.011  -0.749  -2.766  1.00  0.00     0.002 C 
HETATM   14  C   UNL     1       2.530  -1.729  -1.699  1.00  0.00     0.032 C 
ENDBRANCH   7   8
ENDBRANCH   6   7
ENDBRANCH   5   6
ENDBRANCH   1   5
BRANCH   2  15
HETATM   15  C   UNL     1      -1.177  -3.913   3.686  1.00  0.00     0.234 C 
BRANCH  15  16
HETATM   16  N   UNL     1      -1.712  -4.765   2.630  1.00  0.00    -0.316 N 
HETATM   17  C   UNL     1      -2.115  -6.057   2.927  1.00  0.00     0.095 A 
HETATM   18  C   UNL     1      -2.591  -6.868   1.972  1.00  0.00     0.017 A 
HETATM   19  C   UNL     1      -2.688  -6.397   0.615  1.00  0.00     0.007 A 
HETATM   20  C   UNL     1      -2.289  -5.160   0.289  1.00  0.00     0.074 A 
HETATM   21  C   UNL     1      -1.740  -4.253   1.334  1.00  0.00     0.247 A 
HETATM   22  O   UNL     1      -1.337  -3.134   1.025  1.00  0.00    -0.268 OA
ENDBRANCH  15  16
ENDBRANCH   2  15
TORSDOF 6
