REMARK  7 active torsions:
REMARK  status: ('A' for Active; 'I' for Inactive)
REMARK    1  A    between atoms: C_6  and  O_7 
REMARK    2  A    between atoms: O_7  and  C_8 
REMARK    3  A    between atoms: C_8  and  C_9 
REMARK    4  A    between atoms: C_9  and  N_10 
REMARK    5  A    between atoms: C_11  and  C_12 
REMARK    6  A    between atoms: C_12  and  C_13 
REMARK    7  A    between atoms: C_13  and  O_14 
ROOT
HETATM    1  N   UNL     1       4.673  -6.058  -0.659  1.00  0.00    -0.333 N 
HETATM    2  C   UNL     1       5.022  -7.191  -1.383  1.00  0.00     0.086 A 
HETATM    3  N   UNL     1       4.210  -8.192  -1.116  1.00  0.00    -0.344 N 
ATOM      4  HN  UNL     1       4.225  -9.124  -1.531  1.00  0.00     0.167 HD
HETATM    5  C   UNL     1       3.342  -7.727  -0.168  1.00  0.00     0.060 A 
HETATM    6  C   UNL     1       2.292  -8.413   0.465  1.00  0.00     0.032 A 
HETATM    7  C   UNL     1       1.515  -7.748   1.416  1.00  0.00     0.002 A 
HETATM    8  C   UNL     1       1.796  -6.428   1.748  1.00  0.00     0.002 A 
HETATM    9  C   UNL     1       2.855  -5.738   1.146  1.00  0.00     0.032 A 
HETATM   10  C   UNL     1       3.614  -6.398   0.165  1.00  0.00     0.062 A 
ENDROOT
BRANCH   1  11
HETATM   11  C   UNL     1       5.416  -4.812  -0.727  1.00  0.00     0.157 C 
BRANCH  11  12
HETATM   12  C   UNL     1       4.673  -3.504  -0.454  1.00  0.00     0.196 C 
BRANCH  12  13
HETATM   13  O   UNL     1       5.579  -2.390  -0.445  1.00  0.00    -0.350 OA
BRANCH  13  14
HETATM   14  C   UNL     1       5.998  -1.998   0.802  1.00  0.00     0.069 A 
HETATM   15  C   UNL     1       6.216  -0.633   0.979  1.00  0.00     0.037 A 
HETATM   16  C   UNL     1       6.671  -0.149   2.208  1.00  0.00     0.003 A 
HETATM   17  C   UNL     1       6.929  -1.031   3.261  1.00  0.00     0.007 A 
HETATM   18  C   UNL     1       6.723  -2.401   3.092  1.00  0.00    -0.059 A 
HETATM   19  C   UNL     1       7.006  -3.384   4.189  1.00  0.00     0.048 C 
HETATM   20  C   UNL     1       6.254  -2.874   1.860  1.00  0.00     0.043 A 
ENDBRANCH  13  14
ENDBRANCH  12  13
ENDBRANCH  11  12
ENDBRANCH   1  11
BRANCH   2  21
HETATM   21  C   UNL     1       6.165  -7.249  -2.355  1.00  0.00     0.102 C 
BRANCH  21  22
HETATM   22  C   UNL     1       6.354  -8.637  -2.969  1.00  0.00     0.171 C 
BRANCH  22  23
HETATM   23  O   UNL     1       5.214  -9.023  -3.734  1.00  0.00    -0.400 OA
HETATM   24  H   UNL     1       4.482  -9.080  -3.083  1.00  0.00     0.209 HD
ENDBRANCH  22  23
ENDBRANCH  21  22
ENDBRANCH   2  21
TORSDOF 7
