REMARK  8 active torsions:
REMARK  status: ('A' for Active; 'I' for Inactive)
REMARK    1  A    between atoms: C_2  and  C_3 
REMARK    2  A    between atoms: C_3  and  C_4 
REMARK    3  A    between atoms: C_3  and  C_6 
REMARK    4  A    between atoms: C_3  and  C_20 
REMARK    5  A    between atoms: C_6  and  N_7 
REMARK       I    between atoms: N_7  and  C_8 
REMARK    6  A    between atoms: C_8  and  C_10 
REMARK    7  A    between atoms: C_10  and  C_12 
REMARK    8  A    between atoms: C_20  and  O_22 
ROOT
HETATM    1  N   UNL     1       1.016  -2.182  -1.762  1.00  0.00    -0.359 N 
HETATM    2  C   UNL     1       0.408  -2.429  -2.978  1.00  0.00     0.226 C 
HETATM    3  O   UNL     1       1.046  -2.503  -4.026  1.00  0.00    -0.273 OA
HETATM    4  H   UNL     1       0.428  -1.970  -0.958  1.00  0.00     0.162 HD
ENDROOT
BRANCH   1   5
HETATM    5  C   UNL     1       2.440  -1.910  -1.685  1.00  0.00     0.143 C 
BRANCH   5   6
HETATM    6  C   UNL     1       2.972  -1.613  -0.259  1.00  0.00     0.060 C 
BRANCH   6   7
HETATM    7  C   UNL     1       2.671  -2.828   0.673  1.00  0.00     0.018 C 
HETATM    8  C   UNL     1       3.125  -2.661   2.121  1.00  0.00     0.006 C 
ENDBRANCH   6   7
BRANCH   6   9
HETATM    9  C   UNL     1       4.499  -1.313  -0.319  1.00  0.00     0.018 C 
HETATM   10  C   UNL     1       5.398  -2.464  -0.761  1.00  0.00     0.006 C 
ENDBRANCH   6   9
BRANCH   6  11
HETATM   11  C   UNL     1       2.156  -0.409   0.243  1.00  0.00     0.150 C 
HETATM   12  O   UNL     1       1.028  -0.531   0.716  1.00  0.00    -0.649 OA
BRANCH  11  13
HETATM   13  O   UNL     1       2.680   0.818   0.060  1.00  0.00    -0.776 OA
HETATM   14  H   UNL     1       3.540   0.890  -0.388  1.00  0.00     0.167 HD
ENDBRANCH  11  13
ENDBRANCH   6  11
ENDBRANCH   5   6
ENDBRANCH   1   5
BRANCH   2  15
HETATM   15  C   UNL     1      -1.109  -2.618  -2.896  1.00  0.00     0.111 C 
HETATM   16  C   UNL     1      -1.791  -2.224  -4.207  1.00  0.00     0.025 C 
BRANCH  15  17
HETATM   17  C   UNL     1      -1.448  -4.015  -2.463  1.00  0.00     0.010 A 
HETATM   18  C   UNL     1      -1.155  -5.270  -3.077  1.00  0.00     0.038 A 
HETATM   19  C   UNL     1      -0.425  -5.581  -4.330  1.00  0.00     0.071 C 
HETATM   20  N   UNL     1      -1.635  -6.290  -2.354  1.00  0.00    -0.265 N 
HETATM   21  O   UNL     1      -2.251  -5.726  -1.260  1.00  0.00    -0.242 OA
ATOM     22  HN  UNL     1      -1.559  -7.284  -2.570  1.00  0.00     0.194 HD
HETATM   23  C   UNL     1      -2.138  -4.377  -1.321  1.00  0.00     0.081 A 
HETATM   24  C   UNL     1      -2.750  -3.626  -0.208  1.00  0.00     0.079 C 
ENDBRANCH  15  17
ENDBRANCH   2  15
TORSDOF 8
