REMARK  1 active torsions:
REMARK  status: ('A' for Active; 'I' for Inactive)
REMARK    1  A    between atoms: C_8  and  C_11 
ROOT
HETATM    1  C   UNL     2       1.361   0.240  -0.742  1.00  0.00     0.091 C 
HETATM    2  C   UNL     2       2.815   0.014  -0.486  1.00  0.00     0.100 A 
HETATM    3  N   UNL     2       3.333  -1.204  -0.246  1.00  0.00    -0.248 N 
ATOM      4  HN  UNL     2       2.830  -2.090  -0.193  1.00  0.00     0.196 HD
HETATM    5  O   UNL     2       4.608  -1.013  -0.096  1.00  0.00    -0.222 OA
HETATM    6  C   UNL     2       4.887   0.262  -0.230  1.00  0.00     0.154 A 
HETATM    7  N   UNL     2       3.765   0.972  -0.476  1.00  0.00    -0.327 N 
ATOM      8  HN  UNL     2       3.662   1.977  -0.618  1.00  0.00     0.169 HD
ENDROOT
BRANCH   6   9
HETATM    9  C   UNL     2       6.307   0.776  -0.137  1.00  0.00     0.091 C 
HETATM   10  C   UNL     2       6.508   2.306  -0.251  1.00  0.00     0.016 C 
HETATM   11  C   UNL     2       6.205   2.820  -1.664  1.00  0.00     0.031 C 
HETATM   12  C   UNL     2       6.996   2.014  -2.701  1.00  0.00     0.269 C 
HETATM   13  N   UNL     2       6.701   0.579  -2.563  1.00  0.00     0.084 N 
HETATM   14  C   UNL     2       7.135   0.095  -1.243  1.00  0.00     0.282 C 
HETATM   15  H   UNL     2       7.223   0.057  -3.304  1.00  0.00     0.315 HD
ENDBRANCH   6   9
TORSDOF 1
