REMARK  3 active torsions:
REMARK  status: ('A' for Active; 'I' for Inactive)
REMARK    1  A    between atoms: C_2  and  C_4 
REMARK    2  A    between atoms: C_10  and  N_13 
REMARK    3  A    between atoms: C_18  and  C_19 
REMARK       I    between atoms: C_19  and  N_21 
ROOT
HETATM    1  C   UNL     1       2.978  -0.190   1.523  1.00  0.00     0.086 A 
HETATM    2  N   UNL     1       2.954  -1.486   1.872  1.00  0.00    -0.349 N 
ATOM      3  HN  UNL     1       2.659  -2.213   1.220  1.00  0.00     0.167 HD
HETATM    4  C   UNL     1       3.338  -1.774   3.122  1.00  0.00     0.010 A 
HETATM    5  C   UNL     1       3.339  -3.213   3.539  1.00  0.00     0.068 C 
HETATM    6  C   UNL     1       3.741  -0.796   4.009  1.00  0.00     0.073 A 
HETATM    7  C   UNL     1       3.725   0.528   3.598  1.00  0.00     0.107 A 
HETATM    8  N   UNL     1       3.348   0.816   2.344  1.00  0.00    -0.332 N 
ATOM      9  HN  UNL     1       3.341   1.781   2.015  1.00  0.00     0.168 HD
ENDROOT
BRANCH   7  10
HETATM   10  N   UNL     1       4.152   1.541   4.434  1.00  0.00    -0.350 N 
HETATM   11  C   UNL     1       3.961   1.421   5.896  1.00  0.00     0.151 C 
HETATM   12  C   UNL     1       3.055   2.536   6.436  1.00  0.00     0.187 C 
HETATM   13  O   UNL     1       3.564   3.828   6.096  1.00  0.00    -0.387 OA
HETATM   14  C   UNL     1       3.589   3.974   4.664  1.00  0.00     0.202 C 
HETATM   15  C   UNL     1       4.514   2.935   4.000  1.00  0.00     0.195 C 
BRANCH  15  16
HETATM   16  C   UNL     1       4.596   3.232   2.495  1.00  0.00     0.220 C 
HETATM   17  O   UNL     1       3.938   4.091   1.916  1.00  0.00    -0.278 OA
HETATM   18  N   UNL     1       5.557   2.535   1.804  1.00  0.00    -0.271 NA
HETATM   19  H   UNL     1       5.713   1.586   2.123  1.00  0.00     0.127 HD
HETATM   20  H   UNL     1       5.470   2.638   0.801  1.00  0.00     0.127 HD
ENDBRANCH  15  16
ENDBRANCH   7  10
BRANCH   1  21
HETATM   21  C   UNL     1       2.575   0.164   0.107  1.00  0.00     0.045 C 
HETATM   22  C   UNL     1       3.451  -0.565  -0.915  1.00  0.00     0.017 C 
HETATM   23  C   UNL     1       1.098  -0.151  -0.121  1.00  0.00     0.017 C 
ENDBRANCH   1  21
TORSDOF 3
