REMARK  4 active torsions:
REMARK  status: ('A' for Active; 'I' for Inactive)
REMARK    1  A    between atoms: C_2  and  C_3 
REMARK    2  A    between atoms: C_2  and  N_10 
REMARK    3  A    between atoms: C_3  and  N_4 
REMARK       I    between atoms: N_10  and  C_11 
REMARK       I    between atoms: C_11  and  N_13 
REMARK    4  A    between atoms: N_13  and  C_14 
ROOT
HETATM    1  N   UNL     1       3.386   0.967  -1.010  1.00  0.00    -0.337 N 
HETATM    2  C   UNL     1       3.470   2.340  -0.869  1.00  0.00     0.322 C 
HETATM    3  O   UNL     1       3.096   2.933   0.133  1.00  0.00    -0.247 OA
HETATM    4  N   UNL     1       3.933   2.923  -2.024  1.00  0.00    -0.295 N 
HETATM    5  H   UNL     1       4.210   0.536  -1.409  1.00  0.00     0.164 HD
HETATM    6  H   UNL     1       3.673   2.436  -2.870  1.00  0.00     0.172 HD
ENDROOT
BRANCH   1   7
HETATM    7  C   UNL     1       2.676   0.170  -0.011  1.00  0.00     0.110 C 
HETATM    8  C   UNL     1       1.166   0.421  -0.115  1.00  0.00     0.034 C 
BRANCH   7   9
HETATM    9  C   UNL     1       2.941  -1.349  -0.201  1.00  0.00     0.297 C 
BRANCH   9  10
HETATM   10  N   UNL     1       4.349  -1.788  -0.069  1.00  0.00     0.094 N 
HETATM   11  C   UNL     1       4.452  -3.257  -0.292  1.00  0.00     0.298 C 
HETATM   12  C   UNL     1       3.876  -4.118   0.854  1.00  0.00     0.198 C 
HETATM   13  O   UNL     1       4.437  -3.766   2.125  1.00  0.00    -0.388 OA
HETATM   14  C   UNL     1       4.287  -2.366   2.393  1.00  0.00     0.198 C 
HETATM   15  C   UNL     1       4.923  -1.524   1.274  1.00  0.00     0.298 C 
ENDBRANCH   9  10
ENDBRANCH   7   9
ENDBRANCH   1   7
BRANCH   4  16
HETATM   16  C   UNL     1       3.985   4.307  -2.208  1.00  0.00     0.108 A 
HETATM   17  C   UNL     1       4.423   5.170  -1.211  1.00  0.00     0.049 A 
HETATM   18  C   UNL     1       4.420   6.540  -1.463  1.00  0.00     0.005 A 
HETATM   19  C   UNL     1       3.957   7.003  -2.687  1.00  0.00     0.017 A 
HETATM   20  C   UNL     1       3.551   6.069  -3.625  1.00  0.00     0.089 A 
HETATM   21  N   UNL     1       3.589   4.733  -3.426  1.00  0.00    -0.352 N 
ATOM     22  HN  UNL     1       3.330   4.076  -4.163  1.00  0.00     0.166 HD
ENDBRANCH   4  16
TORSDOF 4
