REMARK  8 active torsions:
REMARK  status: ('A' for Active; 'I' for Inactive)
REMARK    1  A    between atoms: C_2  and  C_3 
REMARK    2  A    between atoms: C_3  and  N_4 
REMARK       I    between atoms: N_4  and  C_5 
REMARK    3  A    between atoms: C_5  and  C_7 
REMARK    4  A    between atoms: C_7  and  N_9 
REMARK       I    between atoms: N_9  and  C_10 
REMARK    5  A    between atoms: C_10  and  C_12 
REMARK    6  A    between atoms: C_12  and  N_13 
REMARK    7  A    between atoms: C_20  and  C_21 
REMARK    8  A    between atoms: C_21  and  N_22 
ROOT
HETATM    1  N   UNL     1       8.658  -4.836  -4.340  1.00  0.00    -0.247 N 
HETATM    2  N   UNL     1       7.454  -5.495  -4.408  1.00  0.00    -0.299 N 
ATOM      3  HN  UNL     1       7.007  -5.853  -3.564  1.00  0.00     0.187 HD
HETATM    4  C   UNL     1       6.899  -5.652  -5.569  1.00  0.00     0.029 A 
HETATM    5  C   UNL     1       5.580  -6.392  -5.598  1.00  0.00     0.070 C 
HETATM    6  C   UNL     1       7.476  -5.164  -6.850  1.00  0.00    -0.013 A 
HETATM    7  C   UNL     1       6.766  -5.378  -8.157  1.00  0.00     0.052 C 
HETATM    8  C   UNL     1       8.658  -4.526  -6.749  1.00  0.00     0.103 A 
HETATM    9  C   UNL     1       9.325  -4.313  -5.446  1.00  0.00     0.282 A 
HETATM   10  O   UNL     1      10.397  -3.723  -5.387  1.00  0.00    -0.265 OA
ENDROOT
BRANCH   1  11
HETATM   11  C   UNL     1       9.264  -4.717  -3.019  1.00  0.00     0.255 C 
BRANCH  11  12
HETATM   12  C   UNL     1       8.774  -3.486  -2.263  1.00  0.00     0.238 C 
HETATM   13  N   UNL     1       7.409  -3.397  -2.104  1.00  0.00    -0.347 N 
HETATM   14  H   UNL     1       6.808  -4.034  -2.626  1.00  0.00     0.163 HD
HETATM   15  O   UNL     1       9.547  -2.703  -1.712  1.00  0.00    -0.272 OA
BRANCH  13  16
HETATM   16  C   UNL     1       6.788  -2.306  -1.362  1.00  0.00     0.172 C 
HETATM   17  C   UNL     1       6.802  -2.580   0.140  1.00  0.00     0.042 C 
BRANCH  16  18
HETATM   18  C   UNL     1       5.346  -2.089  -1.863  1.00  0.00     0.240 C 
HETATM   19  N   UNL     1       4.734  -0.959  -1.356  1.00  0.00    -0.359 N 
HETATM   20  H   UNL     1       5.227  -0.388  -0.681  1.00  0.00     0.162 HD
HETATM   21  O   UNL     1       4.796  -2.858  -2.651  1.00  0.00    -0.271 OA
BRANCH  19  22
HETATM   22  C   UNL     1       3.373  -0.592  -1.687  1.00  0.00     0.122 C 
BRANCH  22  23
HETATM   23  C   UNL     1       2.341  -1.282  -0.797  1.00  0.00     0.015 C 
HETATM   24  C   UNL     1       2.473  -0.899   0.670  1.00  0.00     0.006 C 
ENDBRANCH  22  23
ENDBRANCH  19  22
ENDBRANCH  16  18
ENDBRANCH  13  16
ENDBRANCH  11  12
ENDBRANCH   1  11
BRANCH   8  25
HETATM   25  C   UNL     1       9.309  -4.003  -8.019  1.00  0.00    -0.031 C 
BRANCH  25  26
HETATM   26  N   UNL     1       9.850  -3.569  -9.072  1.00  0.00    -0.365 N 
ATOM     27  HN2 UNL     1       9.452  -3.914  -8.198  1.00  0.00     0.165 HD
ATOM     28  HN1 UNL     1      10.287  -3.218  -9.924  1.00  0.00     0.165 HD
ENDBRANCH  25  26
ENDBRANCH   8  25
TORSDOF 8
