REMARK  8 active torsions:
REMARK  status: ('A' for Active; 'I' for Inactive)
REMARK    1  A    between atoms: C_2  and  C_3 
REMARK    2  A    between atoms: C_3  and  C_4 
REMARK    3  A    between atoms: C_3  and  C_6 
REMARK    4  A    between atoms: C_6  and  O_7 
REMARK    5  A    between atoms: C_6  and  C_8 
REMARK    6  A    between atoms: C_8  and  N_9 
REMARK       I    between atoms: N_9  and  C_10 
REMARK    7  A    between atoms: C_10  and  C_12 
REMARK    8  A    between atoms: C_12  and  C_13 
ROOT
HETATM    1  N   UNL     1       6.498  -0.037  -2.934  1.00  0.00    -0.358 N 
HETATM    2  C   UNL     1       7.205   1.020  -3.464  1.00  0.00     0.223 C 
HETATM    3  O   UNL     1       6.660   2.026  -3.914  1.00  0.00    -0.273 OA
HETATM    4  H   UNL     1       6.983  -0.810  -2.493  1.00  0.00     0.162 HD
ENDROOT
BRANCH   1   5
HETATM    5  C   UNL     1       5.043  -0.045  -2.877  1.00  0.00     0.154 C 
BRANCH   5   6
HETATM    6  C   UNL     1       4.526   0.019  -1.429  1.00  0.00     0.140 C 
BRANCH   6   7
HETATM    7  C   UNL     1       2.975   0.063  -1.325  1.00  0.00     0.015 C 
BRANCH   7   8
HETATM    8  C   UNL     1       2.537   0.068   0.163  1.00  0.00     0.002 C 
HETATM    9  C   UNL     1       1.026   0.057   0.368  1.00  0.00     0.005 C 
ENDBRANCH   7   8
BRANCH   7  10
HETATM   10  C   UNL     1       2.334   1.212  -2.137  1.00  0.00     0.002 C 
HETATM   11  C   UNL     1       2.795   2.610  -1.750  1.00  0.00     0.005 C 
ENDBRANCH   7  10
ENDBRANCH   6   7
BRANCH   6  12
HETATM   12  O   UNL     1       5.020  -1.143  -0.737  1.00  0.00    -0.394 OA
HETATM   13  H   UNL     1       4.573  -1.923  -1.110  1.00  0.00     0.210 HD
ENDBRANCH   6  12
ENDBRANCH   5   6
ENDBRANCH   1   5
BRANCH   2  14
HETATM   14  C   UNL     1       8.713   0.853  -3.462  1.00  0.00     0.161 C 
BRANCH  14  15
HETATM   15  C   UNL     1       9.243   0.783  -4.850  1.00  0.00     0.043 A 
HETATM   16  C   UNL     1       9.135   1.743  -5.884  1.00  0.00     0.061 A 
HETATM   17  C   UNL     1       9.788   1.175  -6.948  1.00  0.00     0.074 A 
HETATM   18  C   UNL     1      10.041   1.588  -8.339  1.00  0.00     0.079 C 
HETATM   19  O   UNL     1      10.278  -0.037  -6.576  1.00  0.00    -0.243 OA
HETATM   20  N   UNL     1       9.941  -0.287  -5.256  1.00  0.00    -0.265 N 
ATOM     21  HN  UNL     1      10.175  -1.114  -4.707  1.00  0.00     0.194 HD
ENDBRANCH  14  15
ENDBRANCH   2  14
TORSDOF 8
