REMARK  7 active torsions:
REMARK  status: ('A' for Active; 'I' for Inactive)
REMARK    1  A    between atoms: N_2  and  C_14 
REMARK    2  A    between atoms: C_6  and  N_15 
REMARK    3  A    between atoms: N_8  and  C_18 
REMARK    4  A    between atoms: C_14  and  C_17 
REMARK    5  A    between atoms: N_15  and  C_20 
REMARK    6  A    between atoms: C_17  and  O_24 
REMARK    7  A    between atoms: C_18  and  C_20 
ROOT
HETATM    1  C   UNL     1       0.402  -0.668   0.056  1.00  0.00     0.122 A 
HETATM    2  N   UNL     1       1.397   1.288   0.045  1.00  0.00    -0.324 N 
HETATM    3  C   UNL     1       0.162   0.701   0.051  1.00  0.00     0.140 A 
HETATM    4  N   UNL     1       1.764  -0.905   0.044  1.00  0.00    -0.346 N 
ATOM      5  HN  UNL     1       2.233  -1.810   0.015  1.00  0.00     0.167 HD
HETATM    6  C   UNL     1      -0.733  -1.527   0.033  1.00  0.00     0.135 A 
HETATM    7  C   UNL     1       2.327   0.284   0.078  1.00  0.00     0.185 A 
HETATM    8  N   UNL     1      -1.023   1.329   0.028  1.00  0.00    -0.336 N 
ATOM      9  HN  UNL     1      -1.143   2.342   0.008  1.00  0.00     0.168 HD
HETATM   10  N   UNL     1      -1.952  -0.907   0.043  1.00  0.00    -0.337 N 
ATOM     11  HN  UNL     1      -2.806  -1.465   0.057  1.00  0.00     0.168 HD
HETATM   12  C   UNL     1      -2.029   0.440   0.035  1.00  0.00     0.183 A 
ENDROOT
BRANCH   6  13
HETATM   13  N   UNL     1      -0.657  -2.915  -0.112  1.00  0.00    -0.368 N 
HETATM   14  C   UNL     1       0.253  -3.614   0.791  1.00  0.00     0.151 C 
BRANCH  13  15
HETATM   15  C   UNL     1      -1.852  -3.679  -0.548  1.00  0.00     0.143 C 
BRANCH  15  16
HETATM   16  C   UNL     1      -2.466  -3.086  -1.830  1.00  0.00     0.145 C 
BRANCH  16  17
HETATM   17  N   UNL     1      -3.483  -3.818  -2.567  1.00  0.00    -0.351 N 
HETATM   18  C   UNL     1      -4.145  -4.980  -2.212  1.00  0.00     0.219 C 
HETATM   19  O   UNL     1      -3.886  -5.717  -1.278  1.00  0.00    -0.273 OA
HETATM   20  C   UNL     1      -5.248  -5.207  -3.228  1.00  0.00     0.104 C 
HETATM   21  C   UNL     1      -5.411  -3.823  -3.853  1.00  0.00     0.029 C 
HETATM   22  C   UNL     1      -4.028  -3.230  -3.767  1.00  0.00     0.126 C 
ENDBRANCH  16  17
ENDBRANCH  15  16
ENDBRANCH  13  15
ENDBRANCH   6  13
BRANCH   2  23
HETATM   23  C   UNL     1       1.668   2.710   0.137  1.00  0.00     0.169 C 
BRANCH  23  24
HETATM   24  C   UNL     1       2.008   3.422  -1.197  1.00  0.00     0.078 C 
HETATM   25  C   UNL     1       2.361   4.896  -0.915  1.00  0.00     0.066 C 
HETATM   26  C   UNL     1       1.126   5.745  -0.666  1.00  0.00     0.170 C 
HETATM   27  O   UNL     1       0.254   5.672  -1.789  1.00  0.00    -0.391 OA
HETATM   28  C   UNL     1      -0.235   4.348  -2.014  1.00  0.00     0.170 C 
HETATM   29  C   UNL     1       0.906   3.370  -2.271  1.00  0.00     0.066 C 
BRANCH  24  30
HETATM   30  O   UNL     1       3.209   2.826  -1.724  1.00  0.00    -0.388 OA
HETATM   31  H   UNL     1       3.004   1.928  -2.041  1.00  0.00     0.210 HD
ENDBRANCH  24  30
ENDBRANCH  23  24
ENDBRANCH   2  23
TORSDOF 7
