REMARK  4 active torsions:
REMARK  status: ('A' for Active; 'I' for Inactive)
REMARK    1  A    between atoms: C_2  and  C_3 
REMARK    2  A    between atoms: C_2  and  N_16 
REMARK    3  A    between atoms: C_3  and  N_4 
REMARK       I    between atoms: N_4  and  C_5 
REMARK       I    between atoms: C_5  and  N_7 
REMARK    4  A    between atoms: N_7  and  C_8 
ROOT
HETATM    1  N   UNL     1       4.317   1.541   0.220  1.00  0.00    -0.341 N 
HETATM    2  C   UNL     1       4.819   2.779  -0.050  1.00  0.00     0.321 C 
HETATM    3  O   UNL     1       4.151   3.780  -0.248  1.00  0.00    -0.247 OA
HETATM    4  N   UNL     1       6.234   2.775  -0.140  1.00  0.00    -0.293 N 
HETATM    5  H   UNL     1       4.875   0.794   0.614  1.00  0.00     0.164 HD
HETATM    6  H   UNL     1       6.728   1.897  -0.119  1.00  0.00     0.172 HD
ENDROOT
BRANCH   1   7
HETATM    7  C   UNL     1       2.877   1.429   0.330  1.00  0.00     0.159 C 
BRANCH   7   8
HETATM    8  C   UNL     1       2.341   0.014   0.029  1.00  0.00     0.236 C 
HETATM    9  C   UNL     1       0.824   0.153  -0.184  1.00  0.00     0.044 C 
BRANCH   8  10
HETATM   10  N   UNL     1       2.878  -1.008   0.960  1.00  0.00     0.094 N 
HETATM   11  C   UNL     1       2.509  -2.394   0.637  1.00  0.00     0.273 C 
HETATM   12  C   UNL     1       1.135  -2.842   1.147  1.00  0.00     0.031 C 
HETATM   13  C   UNL     1       0.864  -2.447   2.600  1.00  0.00     0.007 C 
HETATM   14  C   UNL     1       1.315  -1.018   2.922  1.00  0.00     0.010 C 
HETATM   15  C   UNL     1       1.216  -0.718   4.416  1.00  0.00     0.011 C 
HETATM   16  C   UNL     1       2.733  -0.774   2.402  1.00  0.00     0.277 C 
ENDBRANCH   8  10
ENDBRANCH   7   8
ENDBRANCH   1   7
BRANCH   4  17
HETATM   17  C   UNL     1       6.942   3.954  -0.373  1.00  0.00     0.127 A 
HETATM   18  C   UNL     1       6.493   5.248  -0.217  1.00  0.00     0.076 A 
HETATM   19  C   UNL     1       7.566   6.078  -0.589  1.00  0.00     0.025 A 
HETATM   20  C   UNL     1       7.585   7.561  -0.628  1.00  0.00     0.070 C 
HETATM   21  N   UNL     1       8.642   5.363  -0.937  1.00  0.00    -0.302 N 
HETATM   22  N   UNL     1       8.236   4.082  -0.815  1.00  0.00    -0.281 N 
ATOM     23  HN  UNL     1       9.557   5.707  -1.227  1.00  0.00     0.186 HD
HETATM   24  C   UNL     1       9.124   3.031  -1.248  1.00  0.00     0.179 C 
ENDBRANCH   4  17
TORSDOF 4
