REMARK  5 active torsions:
REMARK  status: ('A' for Active; 'I' for Inactive)
REMARK    1  A    between atoms: O_2  and  C_3 
REMARK    2  A    between atoms: C_9  and  N_10 
REMARK       I    between atoms: N_10  and  C_11 
REMARK       I    between atoms: C_11  and  N_13 
REMARK    3  A    between atoms: N_13  and  C_14 
REMARK    4  A    between atoms: C_14  and  C_15 
REMARK    5  A    between atoms: C_15  and  N_18 
ROOT
HETATM    1  N   UNL     1       6.383  -1.789   0.044  1.00  0.00    -0.305 N 
HETATM    2  C   UNL     1       5.488  -2.818   0.224  1.00  0.00     0.320 C 
HETATM    3  O   UNL     1       5.389  -3.488   1.243  1.00  0.00    -0.247 OA
HETATM    4  N   UNL     1       4.716  -3.073  -0.887  1.00  0.00    -0.340 N 
HETATM    5  H   UNL     1       6.179  -1.080  -0.646  1.00  0.00     0.171 HD
HETATM    6  H   UNL     1       4.541  -2.298  -1.508  1.00  0.00     0.164 HD
ENDROOT
BRANCH   1   7
HETATM    7  C   UNL     1       7.424  -1.478   0.960  1.00  0.00     0.087 A 
HETATM    8  C   UNL     1       8.040  -0.221   0.957  1.00  0.00     0.169 A 
HETATM    9  N   UNL     1       9.028   0.141   1.815  1.00  0.00    -0.345 N 
HETATM   10  C   UNL     1       9.431  -0.783   2.711  1.00  0.00     0.090 A 
ATOM     11  HN  UNL     1       9.447   1.070   1.783  1.00  0.00     0.167 HD
HETATM   12  C   UNL     1       8.913  -2.060   2.778  1.00  0.00     0.019 A 
HETATM   13  C   UNL     1       7.909  -2.409   1.882  1.00  0.00     0.035 A 
BRANCH   8  14
HETATM   14  O   UNL     1       7.584   0.718   0.044  1.00  0.00    -0.339 OA
HETATM   15  C   UNL     1       8.377   1.907   0.055  1.00  0.00     0.211 C 
ENDBRANCH   8  14
ENDBRANCH   1   7
BRANCH   4  16
HETATM   16  C   UNL     1       3.697  -4.116  -0.817  1.00  0.00     0.165 C 
BRANCH  16  17
HETATM   17  C   UNL     1       4.110  -5.573  -1.277  1.00  0.00     0.168 C 
HETATM   18  C   UNL     1       4.448  -5.515  -2.783  1.00  0.00     0.050 C 
HETATM   19  C   UNL     1       5.421  -5.995  -0.563  1.00  0.00     0.050 C 
BRANCH  17  20
HETATM   20  N   UNL     1       3.036  -6.546  -0.886  1.00  0.00     0.102 N 
HETATM   21  C   UNL     1       3.201  -7.963  -1.256  1.00  0.00     0.303 C 
HETATM   22  C   UNL     1       2.688  -8.362  -2.664  1.00  0.00     0.302 C 
HETATM   23  N   UNL     1       1.389  -7.806  -3.096  1.00  0.00     0.087 N 
HETATM   24  C   UNL     1       0.279  -8.669  -2.709  1.00  0.00     0.310 C 
HETATM   25  C   UNL     1       1.184  -6.431  -2.607  1.00  0.00     0.302 C 
HETATM   26  C   UNL     1       1.636  -6.179  -1.157  1.00  0.00     0.303 C 
ENDBRANCH  17  20
ENDBRANCH  16  17
ENDBRANCH   4  16
TORSDOF 5
