REMARK  4 active torsions:
REMARK  status: ('A' for Active; 'I' for Inactive)
REMARK    1  A    between atoms: C_2  and  C_5 
REMARK    2  A    between atoms: C_5  and  C_6 
REMARK       I    between atoms: C_6  and  N_8 
REMARK    3  A    between atoms: N_8  and  C_9 
REMARK    4  A    between atoms: C_15  and  N_16 
ROOT
HETATM    1  C   UNL     1       6.688   2.237  -1.461  1.00  0.00     0.079 A 
HETATM    2  C   UNL     1       7.313   3.109  -2.349  1.00  0.00     0.035 A 
HETATM    3  C   UNL     1       8.697   3.210  -2.333  1.00  0.00     0.019 A 
HETATM    4  C   UNL     1       9.394   2.451  -1.408  1.00  0.00     0.090 A 
HETATM    5  N   UNL     1       8.810   1.628  -0.506  1.00  0.00    -0.351 N 
ATOM      6  HN  UNL     1       9.372   1.093   0.156  1.00  0.00     0.166 HD
HETATM    7  C   UNL     1       7.460   1.534  -0.506  1.00  0.00     0.130 A 
ENDROOT
BRANCH   1   8
HETATM    8  N   UNL     1       5.292   2.080  -1.562  1.00  0.00    -0.324 N 
HETATM    9  C   UNL     1       4.635   1.089  -2.253  1.00  0.00     0.223 C 
HETATM   10  O   UNL     1       3.404   1.127  -2.312  1.00  0.00    -0.273 OA
HETATM   11  H   UNL     1       4.711   2.890  -1.393  1.00  0.00     0.169 HD
BRANCH   9  12
HETATM   12  C   UNL     1       5.470   0.009  -2.945  1.00  0.00     0.111 C 
BRANCH  12  13
HETATM   13  C   UNL     1       4.727  -1.022  -3.839  1.00  0.00    -0.043 C 
HETATM   14  C   UNL     1       3.899  -0.345  -4.944  1.00  0.00     0.015 C 
HETATM   15  C   UNL     1       3.824  -1.948  -3.005  1.00  0.00     0.015 C 
HETATM   16  C   UNL     1       5.798  -1.896  -4.528  1.00  0.00     0.015 C 
ENDBRANCH  12  13
ENDBRANCH   9  12
ENDBRANCH   1   8
BRANCH   7  17
HETATM   17  N   UNL     1       6.851   0.705   0.422  1.00  0.00    -0.361 N 
HETATM   18  C   UNL     1       7.652  -0.335   1.079  1.00  0.00     0.150 C 
HETATM   19  C   UNL     1       6.660  -1.433   1.511  1.00  0.00     0.187 C 
HETATM   20  O   UNL     1       5.647  -0.916   2.401  1.00  0.00    -0.388 OA
HETATM   21  C   UNL     1       4.931   0.178   1.791  1.00  0.00     0.187 C 
HETATM   22  C   UNL     1       5.890   1.301   1.364  1.00  0.00     0.150 C 
ENDBRANCH   7  17
TORSDOF 4
