REMARK  2 active torsions:
REMARK  status: ('A' for Active; 'I' for Inactive)
REMARK    1  A    between atoms: C_6  and  N_7 
REMARK    2  A    between atoms: C_13  and  C_14 
ROOT
HETATM    1  N   UNL     3       3.409   0.041   1.503  1.00  0.00    -0.331 N 
HETATM    2  C   UNL     3       3.860   1.048   2.274  1.00  0.00     0.201 A 
HETATM    3  N   UNL     3       4.335   0.583   3.442  1.00  0.00    -0.295 N 
ATOM      4  HN  UNL     3       4.735   1.138   4.198  1.00  0.00     0.187 HD
HETATM    5  N   UNL     3       4.185  -0.733   3.426  1.00  0.00    -0.288 N 
ATOM      6  HN  UNL     3       4.456  -1.378   4.168  1.00  0.00     0.188 HD
HETATM    7  C   UNL     3       3.610  -1.068   2.254  1.00  0.00     0.104 A 
ENDROOT
BRANCH   7   8
HETATM    8  C   UNL     3       3.252  -2.495   1.866  1.00  0.00     0.083 C 
HETATM    9  C   UNL     3       2.224  -3.127   2.828  1.00  0.00     0.016 C 
HETATM   10  C   UNL     3       2.842  -3.427   4.202  1.00  0.00     0.031 C 
HETATM   11  C   UNL     3       4.107  -4.278   4.023  1.00  0.00     0.269 C 
HETATM   12  N   UNL     3       5.070  -3.593   3.145  1.00  0.00     0.084 N 
HETATM   13  C   UNL     3       4.501  -3.392   1.803  1.00  0.00     0.281 C 
HETATM   14  H   UNL     3       5.919  -4.198   3.053  1.00  0.00     0.315 HD
ENDBRANCH   7   8
BRANCH   1  15
HETATM   15  C   UNL     3       2.836   0.193   0.160  1.00  0.00     0.126 C 
HETATM   16  C   UNL     3       3.850   0.827  -0.788  1.00  0.00     0.027 C 
ENDBRANCH   1  15
TORSDOF 2
