REMARK  5 active torsions:
REMARK  status: ('A' for Active; 'I' for Inactive)
REMARK    1  A    between atoms: C_1  and  C_10 
REMARK    2  A    between atoms: N_7  and  C_10 
REMARK    3  A    between atoms: N_7  and  C_9 
REMARK    4  A    between atoms: N_7  and  C_16 
REMARK    5  A    between atoms: C_12  and  O_15 
ROOT
HETATM    1  N   UNL     1       0.718  -3.322   0.078  1.00  0.00     0.104 N 
ENDROOT
BRANCH   1   2
HETATM    2  C   UNL     1      -0.547  -2.581  -0.184  1.00  0.00     0.358 C 
BRANCH   2   3
HETATM    3  C   UNL     1      -0.418  -1.088  -0.133  1.00  0.00     0.168 A 
HETATM    4  N   UNL     1       0.405  -0.373  -0.922  1.00  0.00    -0.280 N 
HETATM    5  N   UNL     1       0.197   0.899  -0.624  1.00  0.00    -0.282 N 
ATOM      6  HN  UNL     1       1.060  -0.739  -1.613  1.00  0.00     0.189 HD
HETATM    7  C   UNL     1      -0.748   0.916   0.333  1.00  0.00     0.136 A 
ATOM      8  HN  UNL     1       0.661   1.707  -1.038  1.00  0.00     0.189 HD
HETATM    9  O   UNL     1      -1.135  -0.302   0.640  1.00  0.00    -0.281 OA
HETATM   10  C   UNL     1      -1.282   2.163   0.958  1.00  0.00     0.099 C 
ENDBRANCH   2   3
ENDBRANCH   1   2
BRANCH   1  11
HETATM   11  C   UNL     1       1.367  -3.172   1.422  1.00  0.00     0.281 C 
HETATM   12  C   UNL     1       0.618  -3.608   2.702  1.00  0.00     0.181 C 
HETATM   13  C   UNL     1       1.268  -2.730   3.800  1.00  0.00     0.303 C 
HETATM   14  N   UNL     1       2.377  -2.015   3.162  1.00  0.00     0.088 N 
HETATM   15  C   UNL     1       1.911  -1.812   1.793  1.00  0.00     0.308 C 
HETATM   16  H   UNL     1       2.563  -1.101   3.637  1.00  0.00     0.316 HD
BRANCH  12  17
HETATM   17  O   UNL     1      -0.773  -3.420   2.677  1.00  0.00    -0.392 OA
HETATM   18  H   UNL     1      -0.954  -2.449   2.588  1.00  0.00     0.210 HD
ENDBRANCH  12  17
ENDBRANCH   1  11
BRANCH   1  19
HETATM   19  C   UNL     1       0.587  -4.767  -0.248  1.00  0.00     0.269 C 
HETATM   20  C   UNL     1       0.329  -5.036  -1.736  1.00  0.00     0.037 C 
ENDBRANCH   1  19
TORSDOF 5
