REMARK  5 active torsions:
REMARK  status: ('A' for Active; 'I' for Inactive)
REMARK    1  A    between atoms: S_2  and  C_3 
REMARK    2  A    between atoms: C_3  and  C_4 
REMARK    3  A    between atoms: C_4  and  C_5 
REMARK       I    between atoms: C_5  and  N_7 
REMARK    4  A    between atoms: N_7  and  C_8 
REMARK    5  A    between atoms: C_11  and  N_15 
ROOT
HETATM    1  C   UNL     1       7.164  -4.684  -1.518  1.00  0.00     0.107 A 
HETATM    2  C   UNL     1       8.095  -4.739  -2.547  1.00  0.00     0.051 A 
HETATM    3  C   UNL     1       8.390  -5.979  -3.121  1.00  0.00     0.034 A 
HETATM    4  C   UNL     1       7.791  -7.149  -2.650  1.00  0.00     0.046 A 
HETATM    5  C   UNL     1       6.886  -6.954  -1.600  1.00  0.00     0.119 A 
HETATM    6  N   UNL     1       6.526  -5.767  -1.057  1.00  0.00    -0.350 N 
ATOM      7  HN  UNL     1       5.808  -5.701  -0.336  1.00  0.00     0.166 HD
ENDROOT
BRANCH   1   8
HETATM    8  N   UNL     1       6.777  -3.495  -0.907  1.00  0.00    -0.313 N 
HETATM    9  C   UNL     1       7.590  -2.402  -0.739  1.00  0.00     0.223 C 
HETATM   10  O   UNL     1       8.791  -2.373  -0.994  1.00  0.00    -0.273 OA
HETATM   11  H   UNL     1       5.951  -3.592  -0.330  1.00  0.00     0.170 HD
BRANCH   9  12
HETATM   12  C   UNL     1       6.872  -1.204  -0.161  1.00  0.00     0.113 C 
BRANCH  12  13
HETATM   13  C   UNL     1       7.438   0.037  -0.834  1.00  0.00     0.082 C 
BRANCH  13  14
HETATM   14  S   UNL     1       6.580   1.538  -0.275  1.00  0.00    -0.173 SA
HETATM   15  C   UNL     1       7.479   2.730  -1.299  1.00  0.00     0.089 C 
ENDBRANCH  13  14
ENDBRANCH  12  13
ENDBRANCH   9  12
ENDBRANCH   1   8
BRANCH   4  16
HETATM   16  N   UNL     1       8.072  -8.387  -3.175  1.00  0.00    -0.376 N 
HETATM   17  C   UNL     1       7.078  -9.475  -3.199  1.00  0.00     0.149 C 
HETATM   18  C   UNL     1       7.697 -10.738  -2.586  1.00  0.00     0.187 C 
HETATM   19  O   UNL     1       8.908 -11.105  -3.269  1.00  0.00    -0.388 OA
HETATM   20  C   UNL     1       9.874 -10.042  -3.189  1.00  0.00     0.187 C 
HETATM   21  C   UNL     1       9.348  -8.735  -3.812  1.00  0.00     0.149 C 
ENDBRANCH   4  16
TORSDOF 5
