REMARK  6 active torsions:
REMARK  status: ('A' for Active; 'I' for Inactive)
REMARK    1  A    between atoms: C_4  and  O_5 
REMARK    2  A    between atoms: C_4  and  C_10 
REMARK    3  A    between atoms: O_5  and  C_6 
REMARK    4  A    between atoms: C_6  and  C_7 
REMARK       I    between atoms: C_10  and  N_12 
REMARK    5  A    between atoms: N_12  and  C_13 
REMARK    6  A    between atoms: C_16  and  N_17 
ROOT
HETATM    1  C   UNL     2       3.240  -1.587  -0.334  1.00  0.00     0.250 C 
HETATM    2  O   UNL     2       2.349  -2.416  -0.187  1.00  0.00    -0.270 OA
HETATM    3  N   UNL     2       4.542  -1.990  -0.396  1.00  0.00    -0.324 N 
HETATM    4  H   UNL     2       5.290  -1.280  -0.430  1.00  0.00     0.169 HD
ENDROOT
BRANCH   3   5
HETATM    5  C   UNL     2       4.931  -3.357  -0.318  1.00  0.00     0.050 A 
HETATM    6  C   UNL     2       4.203  -4.373  -0.963  1.00  0.00     0.035 A 
HETATM    7  C   UNL     2       4.597  -5.698  -0.824  1.00  0.00     0.050 A 
HETATM    8  C   UNL     2       5.699  -6.011  -0.022  1.00  0.00     0.098 A 
HETATM    9  N   UNL     2       6.402  -5.012   0.582  1.00  0.00    -0.351 N 
HETATM   10  C   UNL     2       6.055  -3.706   0.437  1.00  0.00     0.119 A 
ATOM     11  HN  UNL     2       7.209  -5.251   1.158  1.00  0.00     0.166 HD
BRANCH   8  12
HETATM   12  N   UNL     2       6.077  -7.357   0.175  1.00  0.00    -0.385 N 
HETATM   13  H   UNL     2       5.554  -8.123  -0.274  1.00  0.00     0.157 HD
HETATM   14  H   UNL     2       6.857  -7.587   0.807  1.00  0.00     0.157 HD
ENDBRANCH   8  12
ENDBRANCH   3   5
BRANCH   1  15
HETATM   15  C   UNL     2       2.882  -0.111  -0.368  1.00  0.00     0.209 C 
HETATM   16  C   UNL     2       1.414   0.045  -0.785  1.00  0.00     0.050 C 
BRANCH  15  17
HETATM   17  O   UNL     2       3.050   0.506   0.905  1.00  0.00    -0.376 OA
BRANCH  17  18
HETATM   18  C   UNL     2       4.415   0.732   1.200  1.00  0.00     0.173 C 
BRANCH  18  19
HETATM   19  C   UNL     2       4.538   1.570   2.478  1.00  0.00     0.009 A 
HETATM   20  C   UNL     2       5.988   1.612   2.939  1.00  0.00     0.007 A 
HETATM   21  C   UNL     2       4.938   0.878   3.773  1.00  0.00     0.007 A 
ENDBRANCH  18  19
ENDBRANCH  17  18
ENDBRANCH  15  17
ENDBRANCH   1  15
TORSDOF 6
