REMARK  4 active torsions:
REMARK  status: ('A' for Active; 'I' for Inactive)
REMARK    1  A    between atoms: C_8  and  N_9 
REMARK       I    between atoms: N_9  and  C_10 
REMARK       I    between atoms: C_10  and  N_12 
REMARK    2  A    between atoms: N_12  and  C_13 
REMARK    3  A    between atoms: C_16  and  C_17 
REMARK    4  A    between atoms: C_17  and  O_18 
ROOT
HETATM    1  N   UNL     1       9.748   2.460   3.362  1.00  0.00    -0.295 N 
HETATM    2  C   UNL     1       9.277   2.276   2.088  1.00  0.00     0.322 C 
HETATM    3  O   UNL     1       8.838   1.178   1.752  1.00  0.00    -0.247 OA
HETATM    4  N   UNL     1       9.332   3.360   1.270  1.00  0.00    -0.338 N 
HETATM    5  H   UNL     1       9.697   1.630   3.932  1.00  0.00     0.172 HD
HETATM    6  H   UNL     1       9.694   4.198   1.717  1.00  0.00     0.164 HD
ENDROOT
BRANCH   1   7
HETATM    7  C   UNL     1      10.257   3.636   3.931  1.00  0.00     0.109 A 
HETATM    8  N   UNL     1      10.316   4.755   3.176  1.00  0.00    -0.346 N 
HETATM    9  C   UNL     1      10.798   5.893   3.718  1.00  0.00     0.007 A 
ATOM     10  HN  UNL     1      10.000   4.740   2.206  1.00  0.00     0.167 HD
HETATM   11  C   UNL     1      11.238   5.954   5.031  1.00  0.00     0.031 A 
HETATM   12  C   UNL     1      10.834   7.083   2.810  1.00  0.00     0.068 C 
HETATM   13  C   UNL     1      11.173   4.801   5.819  1.00  0.00    -0.057 A 
HETATM   14  C   UNL     1      11.633   4.822   7.246  1.00  0.00     0.048 C 
HETATM   15  C   UNL     1      10.677   3.619   5.253  1.00  0.00     0.055 A 
ENDBRANCH   1   7
BRANCH   4  16
HETATM   16  C   UNL     1       8.892   3.473  -0.102  1.00  0.00     0.086 C 
HETATM   17  C   UNL     1       9.675   2.559  -1.047  1.00  0.00     0.026 C 
HETATM   18  C   UNL     1       9.200   2.702  -2.493  1.00  0.00     0.009 C 
HETATM   19  C   UNL     1       7.678   2.511  -2.606  1.00  0.00     0.009 C 
HETATM   20  C   UNL     1       6.949   3.505  -1.694  1.00  0.00     0.009 C 
HETATM   21  C   UNL     1       7.378   3.307  -0.242  1.00  0.00     0.026 C 
BRANCH  19  22
HETATM   22  C   UNL     1       7.193   2.640  -4.051  1.00  0.00     0.168 C 
BRANCH  22  23
HETATM   23  O   UNL     1       7.794   1.645  -4.870  1.00  0.00    -0.400 OA
HETATM   24  H   UNL     1       7.642   0.784  -4.443  1.00  0.00     0.209 HD
ENDBRANCH  22  23
ENDBRANCH  19  22
ENDBRANCH   4  16
TORSDOF 4
