REMARK  3 active torsions:
REMARK  status: ('A' for Active; 'I' for Inactive)
REMARK    1  A    between atoms: C_2  and  C_3 
REMARK       I    between atoms: N_9  and  C_10 
REMARK       I    between atoms: C_10  and  N_12 
REMARK    2  A    between atoms: N_12  and  C_13 
REMARK    3  A    between atoms: C_16  and  S_18 
ROOT
HETATM    1  C   UNL     1       7.993  -3.266   3.546  1.00  0.00     0.069 A 
HETATM    2  N   UNL     1       7.834  -4.437   4.128  1.00  0.00    -0.296 N 
ATOM      3  HN  UNL     1       8.501  -4.843   4.784  1.00  0.00     0.187 HD
HETATM    4  N   UNL     1       6.664  -5.045   3.746  1.00  0.00    -0.279 N 
ATOM      5  HN  UNL     1       6.362  -5.962   4.076  1.00  0.00     0.189 HD
HETATM    6  C   UNL     1       5.980  -4.304   2.905  1.00  0.00     0.169 A 
HETATM    7  N   UNL     1       4.803  -4.604   2.289  1.00  0.00    -0.288 N 
HETATM    8  C   UNL     1       4.209  -5.831   2.315  1.00  0.00     0.322 C 
HETATM    9  O   UNL     1       3.126  -5.984   1.754  1.00  0.00    -0.247 OA
HETATM   10  N   UNL     1       4.902  -6.848   2.906  1.00  0.00    -0.338 N 
HETATM   11  S   UNL     1       6.677  -2.796   2.536  1.00  0.00    -0.038 SA
HETATM   12  H   UNL     1       4.343  -3.901   1.730  1.00  0.00     0.172 HD
HETATM   13  H   UNL     1       5.663  -6.591   3.528  1.00  0.00     0.164 HD
ENDROOT
BRANCH  10  14
HETATM   14  C   UNL     1       4.411  -8.200   2.951  1.00  0.00     0.087 C 
HETATM   15  C   UNL     1       3.650  -8.523   4.233  1.00  0.00     0.026 C 
HETATM   16  C   UNL     1       3.835 -10.034   4.448  1.00  0.00     0.017 C 
HETATM   17  C   UNL     1       4.804 -10.519   3.354  1.00  0.00     0.049 C 
HETATM   18  C   UNL     1       5.533  -9.238   2.952  1.00  0.00     0.040 C 
BRANCH  17  19
HETATM   19  S   UNL     1       3.841 -11.267   1.975  1.00  0.00    -0.169 SA
HETATM   20  C   UNL     1       5.185 -11.753   0.865  1.00  0.00     0.090 C 
ENDBRANCH  17  19
ENDBRANCH  10  14
BRANCH   1  21
HETATM   21  C   UNL     1       9.205  -2.416   3.714  1.00  0.00     0.062 C 
HETATM   22  C   UNL     1      10.324  -2.873   2.790  1.00  0.00     0.012 C 
ENDBRANCH   1  21
TORSDOF 3
