REMARK  10 active torsions:
REMARK  status: ('A' for Active; 'I' for Inactive)
REMARK    1  A    between atoms: N_1  and  C_9 
REMARK    2  A    between atoms: C_6  and  N_8 
REMARK    3  A    between atoms: C_14  and  C_27 
REMARK    4  A    between atoms: C_14  and  C_28 
REMARK    5  A    between atoms: C_21  and  C_29 
REMARK    6  A    between atoms: C_23  and  C_32 
REMARK    7  A    between atoms: O_25  and  C_32 
REMARK    8  A    between atoms: O_25  and  C_29 
REMARK    9  A    between atoms: C_27  and  O_31 
REMARK   10  A    between atoms: C_28  and  O_30 
ROOT
HETATM    1  N   UNL     1       1.599   1.140   0.003  1.00  0.00    -0.322 N 
HETATM    2  C   UNL     1       0.358  -0.652  -0.019  1.00  0.00     0.122 A 
HETATM    3  C   UNL     1       0.284   0.743  -0.019  1.00  0.00     0.140 A 
HETATM    4  N   UNL     1       1.672  -1.074   0.019  1.00  0.00    -0.346 N 
ATOM      5  HN  UNL     1       2.014  -2.035   0.036  1.00  0.00     0.167 HD
HETATM    6  C   UNL     1      -0.848  -1.400  -0.038  1.00  0.00     0.135 A 
HETATM    7  C   UNL     1       2.384   0.022   0.028  1.00  0.00     0.185 A 
HETATM    8  N   UNL     1      -0.841   1.477  -0.027  1.00  0.00    -0.336 N 
ATOM      9  HN  UNL     1      -0.868   2.497  -0.036  1.00  0.00     0.168 HD
HETATM   10  N   UNL     1      -2.002  -0.675  -0.020  1.00  0.00    -0.337 N 
ATOM     11  HN  UNL     1      -2.907  -1.146  -0.005  1.00  0.00     0.168 HD
HETATM   12  C   UNL     1      -1.933   0.680  -0.022  1.00  0.00     0.183 A 
ENDROOT
BRANCH   6  13
HETATM   13  N   UNL     1      -0.870  -2.799  -0.005  1.00  0.00    -0.361 N 
HETATM   14  C   UNL     1      -2.183  -3.468   0.061  1.00  0.00     0.158 C 
HETATM   15  C   UNL     1      -1.973  -4.970   0.394  1.00  0.00     0.163 C 
HETATM   16  O   UNL     1      -1.098  -5.585  -0.585  1.00  0.00    -0.381 OA
HETATM   17  C   UNL     1       0.185  -4.949  -0.565  1.00  0.00     0.188 C 
HETATM   18  C   UNL     1       0.061  -3.467  -0.938  1.00  0.00     0.151 C 
BRANCH  15  19
HETATM   19  C   UNL     1      -3.303  -5.733   0.385  1.00  0.00     0.201 C 
BRANCH  19  20
HETATM   20  O   UNL     1      -3.092  -7.062   0.881  1.00  0.00    -0.388 OA
BRANCH  20  21
HETATM   21  C   UNL     1      -4.263  -7.865   0.769  1.00  0.00     0.172 C 
BRANCH  21  22
HETATM   22  C   UNL     1      -3.922  -9.260   1.189  1.00  0.00     0.009 A 
HETATM   23  C   UNL     1      -5.001 -10.311   1.281  1.00  0.00     0.007 A 
HETATM   24  C   UNL     1      -4.350  -9.791   2.533  1.00  0.00     0.007 A 
ENDBRANCH  21  22
ENDBRANCH  20  21
ENDBRANCH  19  20
ENDBRANCH  15  19
ENDBRANCH   6  13
BRANCH   1  25
HETATM   25  C   UNL     1       2.218   2.432   0.038  1.00  0.00     0.094 C 
HETATM   26  C   UNL     1       1.774   3.349   1.211  1.00  0.00     0.039 C 
HETATM   27  C   UNL     1       2.098   4.558   0.258  1.00  0.00     0.006 C 
HETATM   28  C   UNL     1       1.666   3.556  -0.881  1.00  0.00     0.039 C 
BRANCH  27  29
HETATM   29  C   UNL     1       1.190   5.776   0.407  1.00  0.00     0.175 C 
BRANCH  29  30
HETATM   30  O   UNL     1       1.396   6.364   1.690  1.00  0.00    -0.400 OA
HETATM   31  H   UNL     1       0.926   5.807   2.338  1.00  0.00     0.209 HD
ENDBRANCH  29  30
ENDBRANCH  27  29
BRANCH  27  32
HETATM   32  C   UNL     1       3.579   4.988   0.191  1.00  0.00     0.175 C 
BRANCH  32  33
HETATM   33  O   UNL     1       4.037   5.373   1.482  1.00  0.00    -0.400 OA
HETATM   34  H   UNL     1       3.473   6.121   1.765  1.00  0.00     0.209 HD
ENDBRANCH  32  33
ENDBRANCH  27  32
ENDBRANCH   1  25
TORSDOF 10
