REMARK  5 active torsions:
REMARK  status: ('A' for Active; 'I' for Inactive)
REMARK    1  A    between atoms: C_7  and  C_8 
REMARK    2  A    between atoms: C_8  and  N_9 
REMARK    3  A    between atoms: N_9  and  C_10 
REMARK    4  A    between atoms: C_10  and  C_11 
REMARK    5  A    between atoms: C_11  and  N_12 
ROOT
HETATM    1  N   UNL     1       3.143  -3.645   0.224  1.00  0.00     0.085 N 
HETATM    2  H   UNL     1       4.159  -3.578   0.297  1.00  0.00     0.315 HD
ENDROOT
BRANCH   1   3
HETATM    3  C   UNL     1       2.553  -2.334   0.503  1.00  0.00     0.274 C 
BRANCH   3   4
HETATM    4  C   UNL     1       3.042  -1.268  -0.494  1.00  0.00     0.017 C 
HETATM    5  C   UNL     1       2.522   0.146  -0.120  1.00  0.00    -0.013 C 
HETATM    6  C   UNL     1       0.996   0.240   0.026  1.00  0.00     0.010 C 
HETATM    7  C   UNL     1       3.033   1.177  -1.140  1.00  0.00     0.005 C 
HETATM    8  C   UNL     1       2.685   0.808  -2.581  1.00  0.00     0.000 C 
HETATM    9  C   UNL     1       3.165  -0.593  -2.936  1.00  0.00     0.000 C 
HETATM   10  C   UNL     1       2.670  -1.640  -1.943  1.00  0.00     0.007 C 
ENDBRANCH   3   4
ENDBRANCH   1   3
BRANCH   1  11
HETATM   11  C   UNL     1       2.662  -4.687   1.141  1.00  0.00     0.289 C 
BRANCH  11  12
HETATM   12  C   UNL     1       1.155  -4.952   1.033  1.00  0.00     0.159 C 
BRANCH  12  13
HETATM   13  N   UNL     1       0.719  -5.984   1.945  1.00  0.00    -0.350 N 
HETATM   14  C   UNL     1       0.314  -5.795   3.238  1.00  0.00     0.108 A 
HETATM   15  C   UNL     1      -0.039  -7.047   3.679  1.00  0.00     0.106 A 
HETATM   16  N   UNL     1       0.139  -7.981   2.690  1.00  0.00    -0.361 N 
HETATM   17  C   UNL     1       0.588  -7.310   1.653  1.00  0.00     0.182 A 
ATOM     18  HN  UNL     1      -0.039  -8.984   2.747  1.00  0.00     0.166 HD
ENDBRANCH  12  13
ENDBRANCH  11  12
ENDBRANCH   1  11
TORSDOF 5
