REMARK  3 active torsions:
REMARK  status: ('A' for Active; 'I' for Inactive)
REMARK       I    between atoms: C_2  and  N_3 
REMARK       I    between atoms: C_2  and  N_13 
REMARK    1  A    between atoms: N_3  and  C_4 
REMARK    2  A    between atoms: C_4  and  C_5 
REMARK    3  A    between atoms: C_5  and  C_6 
ROOT
HETATM    1  O   UNL     1       1.623  -1.073  -0.291  1.00  0.00    -0.247 OA
HETATM    2  C   UNL     1       2.252  -0.071   0.034  1.00  0.00     0.318 C 
HETATM    3  N   UNL     1       2.225   1.076  -0.707  1.00  0.00    -0.343 N 
HETATM    4  N   UNL     1       3.075  -0.003   1.159  1.00  0.00    -0.334 N 
HETATM    5  C   UNL     1       3.339  -1.238   1.895  1.00  0.00     0.127 C 
HETATM    6  C   UNL     1       4.808  -1.673   1.878  1.00  0.00     0.020 C 
HETATM    7  C   UNL     1       5.478  -1.569   0.506  1.00  0.00     0.002 C 
HETATM    8  C   UNL     1       6.374  -0.340   0.308  1.00  0.00     0.000 C 
HETATM    9  C   UNL     1       5.724   1.048   0.322  1.00  0.00     0.002 C 
HETATM   10  C   UNL     1       5.078   1.461   1.646  1.00  0.00     0.020 C 
HETATM   11  C   UNL     1       3.567   1.243   1.748  1.00  0.00     0.127 C 
HETATM   12  H   UNL     1       3.031   1.669  -0.620  1.00  0.00     0.164 HD
ENDROOT
BRANCH   3  13
HETATM   13  C   UNL     1       1.446   1.231  -1.926  1.00  0.00     0.130 C 
BRANCH  13  14
HETATM   14  C   UNL     1       2.146   2.205  -2.871  1.00  0.00     0.076 C 
BRANCH  14  15
HETATM   15  C   UNL     1       1.375   2.456  -4.134  1.00  0.00     0.010 A 
HETATM   16  C   UNL     1       1.548   1.635  -5.244  1.00  0.00     0.025 A 
HETATM   17  C   UNL     1       0.851   1.932  -6.411  1.00  0.00     0.003 A 
HETATM   18  C   UNL     1       0.001   3.030  -6.436  1.00  0.00     0.017 A 
HETATM   19  C   UNL     1      -0.123   3.787  -5.284  1.00  0.00     0.088 A 
HETATM   20  N   UNL     1       0.541   3.524  -4.138  1.00  0.00    -0.369 N 
ATOM     21  HN  UNL     1       0.420   4.106  -3.309  1.00  0.00     0.165 HD
ENDBRANCH  14  15
ENDBRANCH  13  14
ENDBRANCH   3  13
TORSDOF 3
