REMARK  3 active torsions:
REMARK  status: ('A' for Active; 'I' for Inactive)
REMARK    1  A    between atoms: C_9  and  N_10 
REMARK       I    between atoms: N_10  and  C_11 
REMARK       I    between atoms: C_11  and  N_13 
REMARK    2  A    between atoms: N_13  and  C_14 
REMARK    3  A    between atoms: C_14  and  C_15 
ROOT
HETATM    1  N   UNL     1       2.198  -2.347   0.253  1.00  0.00    -0.307 N 
HETATM    2  C   UNL     1       0.820  -2.466   0.195  1.00  0.00     0.320 C 
HETATM    3  O   UNL     1       0.033  -1.526   0.278  1.00  0.00    -0.247 OA
HETATM    4  N   UNL     1       0.372  -3.766   0.036  1.00  0.00    -0.342 N 
HETATM    5  H   UNL     1       2.695  -3.145   0.624  1.00  0.00     0.170 HD
HETATM    6  H   UNL     1       0.982  -4.371  -0.498  1.00  0.00     0.164 HD
ENDROOT
BRANCH   1   7
HETATM    7  C   UNL     1       2.868  -1.082   0.235  1.00  0.00     0.061 A 
HETATM    8  C   UNL     1       4.147  -0.889   0.768  1.00  0.00     0.048 A 
HETATM    9  C   UNL     1       4.958  -1.963   1.417  1.00  0.00     0.072 C 
HETATM   10  N   UNL     1       4.741   0.335   0.773  1.00  0.00    -0.303 N 
HETATM   11  N   UNL     1       4.107   1.418   0.251  1.00  0.00    -0.312 N 
ATOM     12  HN  UNL     1       5.673   0.441   1.173  1.00  0.00     0.186 HD
HETATM   13  C   UNL     1       2.894   1.260  -0.296  1.00  0.00     0.109 A 
ATOM     14  HN  UNL     1       4.548   2.337   0.275  1.00  0.00     0.186 HD
HETATM   15  C   UNL     1       2.259   0.036  -0.340  1.00  0.00     0.050 A 
ENDBRANCH   1   7
BRANCH   4  16
HETATM   16  C   UNL     1      -1.065  -3.899  -0.200  1.00  0.00     0.133 C 
BRANCH  16  17
HETATM   17  C   UNL     1      -1.646  -5.325  -0.231  1.00  0.00    -0.028 C 
HETATM   18  C   UNL     1      -1.417  -6.029   1.118  1.00  0.00     0.016 C 
HETATM   19  C   UNL     1      -1.117  -6.166  -1.406  1.00  0.00     0.011 C 
HETATM   20  C   UNL     1      -2.296  -6.997  -1.929  1.00  0.00     0.001 C 
HETATM   21  C   UNL     1      -3.506  -6.626  -1.085  1.00  0.00     0.001 C 
HETATM   22  C   UNL     1      -3.163  -5.251  -0.534  1.00  0.00     0.011 C 
ENDBRANCH  16  17
ENDBRANCH   4  16
TORSDOF 3
