REMARK  5 active torsions:
REMARK  status: ('A' for Active; 'I' for Inactive)
REMARK    1  A    between atoms: C_8  and  N_9 
REMARK       I    between atoms: N_9  and  C_10 
REMARK       I    between atoms: C_10  and  N_12 
REMARK    2  A    between atoms: N_12  and  C_13 
REMARK    3  A    between atoms: C_13  and  C_14 
REMARK    4  A    between atoms: C_14  and  C_15 
REMARK    5  A    between atoms: C_14  and  N_20 
ROOT
HETATM    1  N   UNL     1       2.558  -2.478   0.330  1.00  0.00    -0.294 N 
HETATM    2  C   UNL     1       1.203  -2.521   0.412  1.00  0.00     0.321 C 
HETATM    3  O   UNL     1       0.562  -1.475   0.324  1.00  0.00    -0.247 OA
HETATM    4  N   UNL     1       0.617  -3.741   0.610  1.00  0.00    -0.341 N 
HETATM    5  H   UNL     1       2.906  -1.537   0.226  1.00  0.00     0.172 HD
HETATM    6  H   UNL     1       1.206  -4.527   0.344  1.00  0.00     0.164 HD
ENDROOT
BRANCH   4   7
HETATM    7  C   UNL     1      -0.813  -3.824   0.568  1.00  0.00     0.160 C 
BRANCH   7   8
HETATM    8  C   UNL     1      -1.542  -5.174   0.778  1.00  0.00     0.247 C 
BRANCH   8   9
HETATM    9  C   UNL     1      -1.164  -5.877   2.111  1.00  0.00     0.046 C 
HETATM   10  C   UNL     1       0.297  -6.292   2.225  1.00  0.00     0.035 C 
HETATM   11  C   UNL     1       0.292  -7.530   3.102  1.00  0.00     0.168 C 
HETATM   12  O   UNL     1      -1.074  -7.870   3.353  1.00  0.00    -0.391 OA
HETATM   13  C   UNL     1      -1.864  -7.208   2.353  1.00  0.00     0.174 C 
ENDBRANCH   8   9
BRANCH   8  14
HETATM   14  N   UNL     1      -3.023  -5.054   0.613  1.00  0.00     0.099 N 
HETATM   15  C   UNL     1      -3.470  -4.569  -0.716  1.00  0.00     0.299 C 
HETATM   16  C   UNL     1      -3.609  -3.036  -0.873  1.00  0.00     0.198 C 
HETATM   17  O   UNL     1      -4.410  -2.471   0.169  1.00  0.00    -0.388 OA
HETATM   18  C   UNL     1      -3.877  -2.791   1.457  1.00  0.00     0.198 C 
HETATM   19  C   UNL     1      -3.767  -4.314   1.655  1.00  0.00     0.299 C 
ENDBRANCH   8  14
ENDBRANCH   7   8
ENDBRANCH   4   7
BRANCH   1  20
HETATM   20  C   UNL     1       3.469  -3.531   0.445  1.00  0.00     0.114 A 
HETATM   21  C   UNL     1       4.841  -3.265   0.456  1.00  0.00    -0.018 A 
HETATM   22  C   UNL     1       5.426  -1.891   0.305  1.00  0.00     0.052 C 
HETATM   23  C   UNL     1       5.703  -4.347   0.665  1.00  0.00     0.012 A 
HETATM   24  C   UNL     1       5.200  -5.633   0.828  1.00  0.00     0.018 A 
HETATM   25  C   UNL     1       3.833  -5.798   0.766  1.00  0.00     0.089 A 
HETATM   26  N   UNL     1       2.972  -4.786   0.567  1.00  0.00    -0.352 N 
ATOM     27  HN  UNL     1       1.968  -4.958   0.509  1.00  0.00     0.166 HD
ENDBRANCH   1  20
TORSDOF 5
