REMARK  4 active torsions:
REMARK  status: ('A' for Active; 'I' for Inactive)
REMARK    1  A    between atoms: C_8  and  C_9 
REMARK    2  A    between atoms: C_9  and  C_10 
REMARK       I    between atoms: C_10  and  N_12 
REMARK    3  A    between atoms: N_12  and  C_13 
REMARK    4  A    between atoms: C_13  and  C_14 
ROOT
HETATM    1  C   UNL     1       1.767   3.083  -0.177  1.00  0.00     0.222 C 
HETATM    2  O   UNL     1       0.940   2.208  -0.425  1.00  0.00    -0.273 OA
HETATM    3  N   UNL     1       1.411   4.406   0.011  1.00  0.00    -0.360 N 
HETATM    4  H   UNL     1       2.148   5.102  -0.012  1.00  0.00     0.162 HD
ENDROOT
BRANCH   1   5
HETATM    5  C   UNL     1       3.244   2.775  -0.006  1.00  0.00     0.146 C 
BRANCH   5   6
HETATM    6  C   UNL     1       4.056   2.746  -1.260  1.00  0.00     0.006 A 
HETATM    7  C   UNL     1       3.702   2.449  -2.612  1.00  0.00     0.038 A 
HETATM    8  C   UNL     1       2.390   2.090  -3.205  1.00  0.00     0.071 C 
HETATM    9  N   UNL     1       4.769   2.504  -3.420  1.00  0.00    -0.265 N 
HETATM   10  O   UNL     1       5.842   2.805  -2.618  1.00  0.00    -0.242 OA
ATOM     11  HN  UNL     1       4.782   2.353  -4.429  1.00  0.00     0.194 HD
HETATM   12  C   UNL     1       5.425   2.944  -1.336  1.00  0.00     0.081 A 
HETATM   13  C   UNL     1       6.481   3.236  -0.347  1.00  0.00     0.079 C 
ENDBRANCH   5   6
ENDBRANCH   1   5
BRANCH   3  14
HETATM   14  C   UNL     1       0.046   4.862  -0.197  1.00  0.00     0.128 C 
BRANCH  14  15
HETATM   15  C   UNL     1      -0.841   4.886   1.055  1.00  0.00     0.018 C 
HETATM   16  C   UNL     1      -0.381   5.872   2.143  1.00  0.00     0.022 C 
HETATM   17  C   UNL     1      -1.132   5.560   3.446  1.00  0.00     0.141 C 
HETATM   18  S   UNL     1      -1.844   3.938   3.260  1.00  0.00     0.144 S 
HETATM   19  O   UNL     1      -1.364   3.084   4.323  1.00  0.00    -0.228 OA
HETATM   20  O   UNL     1      -3.257   4.096   2.970  1.00  0.00    -0.228 OA
HETATM   21  C   UNL     1      -0.998   3.536   1.750  1.00  0.00     0.146 C 
ENDBRANCH  14  15
ENDBRANCH   3  14
TORSDOF 4
