REMARK  3 active torsions:
REMARK  status: ('A' for Active; 'I' for Inactive)
REMARK    1  A    between atoms: N_12  and  C_13 
REMARK    2  A    between atoms: C_13  and  C_14 
REMARK    3  A    between atoms: C_14  and  O_15 
ROOT
HETATM    1  C   UNL     1       1.220  -0.186   0.067  1.00  0.00     0.164 C 
HETATM    2  N   UNL     1       2.668  -0.079   0.055  1.00  0.00    -0.269 N 
HETATM    3  C   UNL     1       3.237   1.210   0.066  1.00  0.00     0.332 A 
HETATM    4  O   UNL     1       2.535   2.225   0.084  1.00  0.00    -0.246 OA
HETATM    5  N   UNL     1       4.630   1.286   0.051  1.00  0.00    -0.287 N 
HETATM    6  C   UNL     1       5.298   2.576   0.069  1.00  0.00     0.163 C 
HETATM    7  C   UNL     1       5.371   0.130   0.036  1.00  0.00     0.146 A 
HETATM    8  N   UNL     1       6.728   0.061   0.035  1.00  0.00    -0.316 N 
ATOM      9  HN  UNL     1       7.397   0.831   0.027  1.00  0.00     0.170 HD
HETATM   10  C   UNL     1       6.977  -1.227   0.046  1.00  0.00     0.183 A 
HETATM   11 CL   UNL     1       8.536  -1.908   0.078  1.00  0.00    -0.044 Cl
HETATM   12  N   UNL     1       5.839  -1.995   0.041  1.00  0.00    -0.314 N 
HETATM   13  C   UNL     1       4.790  -1.105   0.029  1.00  0.00     0.150 A 
HETATM   14  C   UNL     1       3.378  -1.286   0.021  1.00  0.00     0.282 A 
HETATM   15  O   UNL     1       2.849  -2.393  -0.020  1.00  0.00    -0.265 OA
ENDROOT
BRANCH  12  16
HETATM   16  C   UNL     1       5.750  -3.443   0.112  1.00  0.00     0.158 C 
BRANCH  16  17
HETATM   17  C   UNL     1       5.654  -4.113  -1.255  1.00  0.00     0.184 C 
BRANCH  17  18
HETATM   18  O   UNL     1       6.849  -3.942  -2.010  1.00  0.00    -0.399 OA
HETATM   19  H   UNL     1       6.767  -3.122  -2.529  1.00  0.00     0.209 HD
ENDBRANCH  17  18
ENDBRANCH  16  17
ENDBRANCH  12  16
TORSDOF 3
