REMARK  5 active torsions:
REMARK  status: ('A' for Active; 'I' for Inactive)
REMARK    1  A    between atoms: C_8  and  C_9 
REMARK    2  A    between atoms: C_9  and  C_10 
REMARK       I    between atoms: C_10  and  N_12 
REMARK    3  A    between atoms: N_12  and  C_13 
REMARK    4  A    between atoms: C_13  and  C_19 
REMARK    5  A    between atoms: C_19  and  O_21 
ROOT
HETATM    1  C   UNL     1       2.048   3.240   0.683  1.00  0.00     0.223 C 
HETATM    2  O   UNL     1       1.355   2.438   1.308  1.00  0.00    -0.273 OA
HETATM    3  N   UNL     1       1.503   4.373   0.119  1.00  0.00    -0.342 N 
HETATM    4  H   UNL     1       2.136   5.140  -0.087  1.00  0.00     0.163 HD
ENDROOT
BRANCH   3   5
HETATM    5  C   UNL     1       0.045   4.673   0.067  1.00  0.00     0.118 C 
HETATM    6  C   UNL     1      -0.768   3.520  -0.575  1.00  0.00     0.042 C 
HETATM    7  C   UNL     1      -0.380   3.278  -2.036  1.00  0.00     0.003 C 
HETATM    8  C   UNL     1      -0.585   4.529  -2.881  1.00  0.00     0.000 C 
HETATM    9  C   UNL     1       0.128   5.739  -2.289  1.00  0.00     0.003 C 
HETATM   10  C   UNL     1      -0.189   5.938  -0.806  1.00  0.00     0.042 C 
BRANCH   5  11
HETATM   11  C   UNL     1      -0.495   4.980   1.495  1.00  0.00     0.169 C 
HETATM   12  O   UNL     1      -0.996   6.045   1.830  1.00  0.00    -0.648 OA
BRANCH  11  13
HETATM   13  O   UNL     1      -0.391   3.954   2.377  1.00  0.00    -0.775 OA
HETATM   14  H   UNL     1       0.097   3.174   2.014  1.00  0.00     0.167 HD
ENDBRANCH  11  13
ENDBRANCH   5  11
ENDBRANCH   3   5
BRANCH   1  15
HETATM   15  C   UNL     1       3.533   3.034   0.468  1.00  0.00     0.146 C 
BRANCH  15  16
HETATM   16  C   UNL     1       4.389   3.696   1.489  1.00  0.00     0.006 A 
HETATM   17  C   UNL     1       4.469   3.475   2.895  1.00  0.00     0.038 A 
HETATM   18  C   UNL     1       3.695   2.541   3.751  1.00  0.00     0.071 C 
HETATM   19  N   UNL     1       5.412   4.240   3.455  1.00  0.00    -0.265 N 
HETATM   20  O   UNL     1       5.980   4.959   2.429  1.00  0.00    -0.242 OA
ATOM     21  HN  UNL     1       5.660   4.282   4.443  1.00  0.00     0.194 HD
HETATM   22  C   UNL     1       5.378   4.633   1.258  1.00  0.00     0.081 A 
HETATM   23  C   UNL     1       5.909   5.292   0.050  1.00  0.00     0.079 C 
ENDBRANCH  15  16
ENDBRANCH   1  15
TORSDOF 5
