REMARK  2 active torsions:
REMARK  status: ('A' for Active; 'I' for Inactive)
REMARK    1  A    between atoms: C_2  and  C_3 
REMARK       I    between atoms: N_9  and  C_10 
REMARK       I    between atoms: C_10  and  N_12 
REMARK    2  A    between atoms: N_12  and  C_13 
ROOT
HETATM    1  C   UNL     1       6.409  -0.988  -3.706  1.00  0.00     0.069 A 
HETATM    2  N   UNL     1       6.401  -2.297  -3.574  1.00  0.00    -0.296 N 
ATOM      3  HN  UNL     1       7.031  -2.816  -2.963  1.00  0.00     0.187 HD
HETATM    4  N   UNL     1       5.440  -2.874  -4.360  1.00  0.00    -0.279 N 
ATOM      5  HN  UNL     1       5.267  -3.879  -4.399  1.00  0.00     0.189 HD
HETATM    6  C   UNL     1       4.765  -1.989  -5.058  1.00  0.00     0.169 A 
HETATM    7  N   UNL     1       3.793  -2.241  -5.981  1.00  0.00    -0.288 N 
HETATM    8  C   UNL     1       3.534  -3.485  -6.488  1.00  0.00     0.322 C 
HETATM    9  O   UNL     1       2.644  -3.639  -7.321  1.00  0.00    -0.247 OA
HETATM   10  N   UNL     1       4.345  -4.495  -6.061  1.00  0.00    -0.335 N 
HETATM   11  S   UNL     1       5.191  -0.373  -4.764  1.00  0.00    -0.038 SA
HETATM   12  H   UNL     1       3.279  -1.474  -6.382  1.00  0.00     0.172 HD
HETATM   13  H   UNL     1       4.864  -4.309  -5.208  1.00  0.00     0.164 HD
ENDROOT
BRANCH  10  14
HETATM   14  C   UNL     1       4.241  -5.874  -6.490  1.00  0.00     0.122 C 
HETATM   15  C   UNL     1       2.979  -6.540  -5.981  1.00  0.00     0.065 C 
HETATM   16  C   UNL     1       3.389  -7.963  -5.599  1.00  0.00     0.057 C 
HETATM   17  C   UNL     1       3.141  -8.237  -4.113  1.00  0.00     0.045 C 
HETATM   18  C   UNL     1       2.640  -9.007  -6.427  1.00  0.00     0.045 C 
HETATM   19  O   UNL     1       4.798  -8.100  -5.874  1.00  0.00    -0.369 OA
HETATM   20  C   UNL     1       5.390  -6.791  -6.016  1.00  0.00     0.075 C 
HETATM   21  C   UNL     1       6.502  -6.878  -7.067  1.00  0.00     0.048 C 
HETATM   22  C   UNL     1       6.045  -6.422  -4.675  1.00  0.00     0.048 C 
ENDBRANCH  10  14
BRANCH   1  23
HETATM   23  C   UNL     1       7.374  -0.103  -2.998  1.00  0.00     0.062 C 
HETATM   24  C   UNL     1       6.803   0.383  -1.678  1.00  0.00     0.012 C 
ENDBRANCH   1  23
TORSDOF 2
