REMARK  4 active torsions:
REMARK  status: ('A' for Active; 'I' for Inactive)
REMARK    1  A    between atoms: C_2  and  N_3 
REMARK    2  A    between atoms: C_2  and  C_13 
REMARK       I    between atoms: N_3  and  C_4 
REMARK       I    between atoms: C_4  and  N_6 
REMARK    3  A    between atoms: N_6  and  C_7 
REMARK       I    between atoms: C_13  and  N_15 
REMARK    4  A    between atoms: N_15  and  C_16 
ROOT
HETATM    1  N   UNL     1       3.072  -1.220  -0.723  1.00  0.00    -0.330 N 
HETATM    2  C   UNL     1       4.292  -1.763  -0.471  1.00  0.00     0.322 C 
HETATM    3  O   UNL     1       5.063  -1.292   0.362  1.00  0.00    -0.247 OA
HETATM    4  N   UNL     1       4.601  -2.912  -1.143  1.00  0.00    -0.289 N 
HETATM    5  H   UNL     1       2.615  -1.514  -1.583  1.00  0.00     0.165 HD
HETATM    6  H   UNL     1       5.436  -3.400  -0.850  1.00  0.00     0.172 HD
ENDROOT
BRANCH   1   7
HETATM    7  C   UNL     1       2.536  -0.061  -0.030  1.00  0.00     0.174 C 
HETATM    8  C   UNL     1       1.013  -0.132  -0.023  1.00  0.00     0.042 C 
BRANCH   7   9
HETATM    9  C   UNL     1       3.004   1.231  -0.725  1.00  0.00     0.240 C 
HETATM   10  O   UNL     1       2.362   1.787  -1.613  1.00  0.00    -0.271 OA
HETATM   11  N   UNL     1       4.230   1.689  -0.281  1.00  0.00    -0.355 N 
HETATM   12  H   UNL     1       4.830   1.008   0.182  1.00  0.00     0.162 HD
BRANCH  11  13
HETATM   13  C   UNL     1       4.808   2.910  -0.796  1.00  0.00     0.084 C 
HETATM   14  C   UNL     1       5.679   2.694  -2.036  1.00  0.00     0.025 C 
HETATM   15  C   UNL     1       6.839   3.686  -1.913  1.00  0.00     0.002 C 
HETATM   16  C   UNL     1       6.562   4.512  -0.663  1.00  0.00     0.002 C 
HETATM   17  C   UNL     1       5.730   3.588   0.210  1.00  0.00     0.025 C 
ENDBRANCH  11  13
ENDBRANCH   7   9
ENDBRANCH   1   7
BRANCH   4  18
HETATM   18  C   UNL     1       3.870  -3.434  -2.171  1.00  0.00     0.152 A 
HETATM   19  N   UNL     1       2.855  -2.876  -2.788  1.00  0.00    -0.346 N 
HETATM   20  C   UNL     1       2.422  -3.715  -3.794  1.00  0.00     0.097 A 
ATOM     21  HN  UNL     1       2.451  -1.968  -2.560  1.00  0.00     0.167 HD
HETATM   22  C   UNL     1       3.080  -4.924  -3.882  1.00  0.00     0.070 A 
HETATM   23  S   UNL     1       4.341  -4.978  -2.714  1.00  0.00    -0.064 SA
ENDBRANCH   4  18
TORSDOF 4
