REMARK  4 active torsions:
REMARK  status: ('A' for Active; 'I' for Inactive)
REMARK    1  A    between atoms: C_5  and  N_6 
REMARK       I    between atoms: N_6  and  C_7 
REMARK       I    between atoms: C_7  and  N_9 
REMARK    2  A    between atoms: N_9  and  C_10 
REMARK    3  A    between atoms: C_10  and  C_11 
REMARK    4  A    between atoms: C_11  and  C_12 
ROOT
HETATM    1  N   UNL     1       4.594  -0.680  -2.832  1.00  0.00    -0.338 N 
HETATM    2  C   UNL     1       5.224  -0.376  -4.008  1.00  0.00     0.316 C 
HETATM    3  O   UNL     1       4.644  -0.158  -5.063  1.00  0.00    -0.247 OA
HETATM    4  N   UNL     1       6.589  -0.381  -3.883  1.00  0.00    -0.343 N 
HETATM    5  H   UNL     1       5.154  -0.813  -2.006  1.00  0.00     0.164 HD
HETATM    6  H   UNL     1       6.964  -0.173  -2.972  1.00  0.00     0.164 HD
ENDROOT
BRANCH   1   7
HETATM    7  C   UNL     1       3.138  -0.684  -2.721  1.00  0.00     0.089 C 
HETATM    8  C   UNL     1       2.628   0.716  -2.347  1.00  0.00     0.026 C 
HETATM    9  C   UNL     1       2.936   1.084  -0.895  1.00  0.00     0.006 C 
HETATM   10  C   UNL     1       2.443   0.035   0.111  1.00  0.00    -0.018 C 
HETATM   11  C   UNL     1       0.918   0.069   0.260  1.00  0.00     0.010 C 
HETATM   12  C   UNL     1       2.945  -1.368  -0.267  1.00  0.00     0.010 C 
HETATM   13  C   UNL     1       2.623  -1.743  -1.723  1.00  0.00     0.004 C 
HETATM   14  C   UNL     1       3.132  -3.148  -2.052  1.00  0.00     0.012 C 
ENDBRANCH   1   7
BRANCH   4  15
HETATM   15  C   UNL     1       7.409  -0.094  -5.047  1.00  0.00     0.130 C 
BRANCH  15  16
HETATM   16  C   UNL     1       8.914  -0.181  -4.783  1.00  0.00     0.078 C 
BRANCH  16  17
HETATM   17  C   UNL     1       9.362  -1.536  -4.341  1.00  0.00     0.031 A 
HETATM   18  C   UNL     1       9.494  -2.060  -3.070  1.00  0.00     0.045 A 
HETATM   19  C   UNL     1       9.962  -3.370  -3.259  1.00  0.00     0.109 A 
HETATM   20  N   UNL     1      10.128  -3.666  -4.548  1.00  0.00    -0.310 N 
HETATM   21  N   UNL     1       9.750  -2.544  -5.191  1.00  0.00    -0.301 N 
ATOM     22  HN  UNL     1      10.464  -4.540  -4.954  1.00  0.00     0.186 HD
HETATM   23  C   UNL     1       9.799  -2.516  -6.635  1.00  0.00     0.177 C 
ENDBRANCH  16  17
ENDBRANCH  15  16
ENDBRANCH   4  15
TORSDOF 4
