REMARK  6 active torsions:
REMARK  status: ('A' for Active; 'I' for Inactive)
REMARK    1  A    between atoms: N_2  and  C_12 
REMARK    2  A    between atoms: N_5  and  C_9 
REMARK    3  A    between atoms: C_19  and  C_27 
REMARK    4  A    between atoms: C_19  and  C_28 
REMARK    5  A    between atoms: C_27  and  O_29 
REMARK    6  A    between atoms: C_28  and  O_30 
ROOT
HETATM    1  N   UNL     1       4.916  -2.419   3.339  1.00  0.00    -0.322 N 
HETATM    2  C   UNL     1       3.523  -1.329   2.056  1.00  0.00     0.122 A 
HETATM    3  C   UNL     1       4.538  -1.147   2.991  1.00  0.00     0.140 A 
HETATM    4  N   UNL     1       3.271  -2.680   1.867  1.00  0.00    -0.346 N 
ATOM      5  HN  UNL     1       2.576  -3.102   1.251  1.00  0.00     0.167 HD
HETATM    6  C   UNL     1       2.954  -0.169   1.476  1.00  0.00     0.135 A 
HETATM    7  C   UNL     1       4.122  -3.299   2.655  1.00  0.00     0.185 A 
HETATM    8  N   UNL     1       5.038   0.024   3.423  1.00  0.00    -0.336 N 
ATOM      9  HN  UNL     1       5.784   0.114   4.113  1.00  0.00     0.168 HD
HETATM   10  N   UNL     1       3.442   1.031   1.905  1.00  0.00    -0.337 N 
ATOM     11  HN  UNL     1       3.064   1.901   1.531  1.00  0.00     0.168 HD
HETATM   12  C   UNL     1       4.426   1.060   2.826  1.00  0.00     0.183 A 
ENDROOT
BRANCH   1  13
HETATM   13  C   UNL     1       5.972  -2.855   4.210  1.00  0.00     0.094 C 
HETATM   14  C   UNL     1       5.944  -2.222   5.627  1.00  0.00     0.039 C 
HETATM   15  C   UNL     1       7.500  -2.106   5.555  1.00  0.00     0.006 C 
HETATM   16  C   UNL     1       7.328  -2.119   4.007  1.00  0.00     0.039 C 
BRANCH  15  17
HETATM   17  C   UNL     1       8.066  -0.790   6.083  1.00  0.00     0.175 C 
BRANCH  17  18
HETATM   18  O   UNL     1       7.861  -0.718   7.492  1.00  0.00    -0.400 OA
HETATM   19  H   UNL     1       6.947  -0.406   7.629  1.00  0.00     0.209 HD
ENDBRANCH  17  18
ENDBRANCH  15  17
BRANCH  15  20
HETATM   20  C   UNL     1       8.292  -3.319   6.062  1.00  0.00     0.175 C 
BRANCH  20  21
HETATM   21  O   UNL     1       8.050  -3.524   7.448  1.00  0.00    -0.400 OA
HETATM   22  H   UNL     1       8.270  -2.682   7.897  1.00  0.00     0.209 HD
ENDBRANCH  20  21
ENDBRANCH  15  20
ENDBRANCH   1  13
BRANCH   6  23
HETATM   23  N   UNL     1       1.959  -0.176   0.523  1.00  0.00    -0.364 N 
HETATM   24  C   UNL     1       1.528   1.068  -0.109  1.00  0.00     0.145 C 
HETATM   25  C   UNL     1       0.597   0.594  -1.214  1.00  0.00     0.132 C 
HETATM   26  S   UNL     1       0.685   1.566  -2.688  1.00  0.00     0.150 S 
HETATM   27  C   UNL     1       1.141  -0.786  -1.592  1.00  0.00     0.025 C 
HETATM   28  C   UNL     1       1.821   0.513  -3.578  1.00  0.00     0.141 C 
HETATM   29  O   UNL     1       1.331   2.831  -2.408  1.00  0.00    -0.227 OA
HETATM   30  O   UNL     1      -0.604   1.501  -3.348  1.00  0.00    -0.227 OA
HETATM   31  C   UNL     1       2.287  -0.549  -2.590  1.00  0.00     0.022 C 
HETATM   32  C   UNL     1       1.624  -1.359  -0.260  1.00  0.00     0.130 C 
ENDBRANCH   6  23
TORSDOF 6
