REMARK  6 active torsions:
REMARK  status: ('A' for Active; 'I' for Inactive)
REMARK    1  A    between atoms: O_2  and  C_3 
REMARK    2  A    between atoms: C_3  and  C_4 
REMARK    3  A    between atoms: C_4  and  O_5 
REMARK    4  A    between atoms: O_5  and  C_6 
REMARK    5  A    between atoms: C_9  and  N_10 
REMARK       I    between atoms: N_10  and  C_11 
REMARK    6  A    between atoms: C_11  and  C_13 
ROOT
HETATM    1  N   UNL     1      10.300  -2.716  -3.045  1.00  0.00    -0.321 N 
HETATM    2  C   UNL     1      11.281  -1.740  -3.045  1.00  0.00     0.270 C 
HETATM    3  O   UNL     1      11.154  -0.582  -2.671  1.00  0.00    -0.266 OA
HETATM    4  H   UNL     1      10.599  -3.662  -3.263  1.00  0.00     0.169 HD
ENDROOT
BRANCH   1   5
HETATM    5  C   UNL     1       8.941  -2.484  -2.698  1.00  0.00     0.050 A 
HETATM    6  C   UNL     1       8.389  -1.206  -2.589  1.00  0.00     0.035 A 
HETATM    7  C   UNL     1       7.045  -1.039  -2.261  1.00  0.00     0.058 A 
HETATM    8  C   UNL     1       6.278  -2.163  -2.029  1.00  0.00     0.141 A 
HETATM    9  N   UNL     1       6.756  -3.421  -2.127  1.00  0.00    -0.345 N 
HETATM   10  C   UNL     1       8.070  -3.548  -2.465  1.00  0.00     0.119 A 
ATOM     11  HN  UNL     1       6.165  -4.234  -1.957  1.00  0.00     0.167 HD
BRANCH   8  12
HETATM   12  O   UNL     1       4.938  -1.936  -1.791  1.00  0.00    -0.334 OA
BRANCH  12  13
HETATM   13  C   UNL     1       4.302  -2.972  -1.043  1.00  0.00     0.203 C 
BRANCH  13  14
HETATM   14  C   UNL     1       2.800  -2.688  -1.016  1.00  0.00     0.193 C 
BRANCH  14  15
HETATM   15  O   UNL     1       2.141  -3.654  -0.198  1.00  0.00    -0.394 OA
HETATM   16  C   UNL     1       0.736  -3.438  -0.157  1.00  0.00     0.201 C 
ENDBRANCH  14  15
ENDBRANCH  13  14
ENDBRANCH  12  13
ENDBRANCH   8  12
ENDBRANCH   1   5
BRANCH   2  17
HETATM   17  C   UNL     1      12.670  -2.143  -3.529  1.00  0.00     0.094 A 
HETATM   18  N   UNL     1      12.896  -3.340  -3.973  1.00  0.00    -0.295 N 
HETATM   19  N   UNL     1      14.166  -3.642  -4.418  1.00  0.00    -0.265 N 
ATOM     20  HN  UNL     1      12.154  -4.040  -3.993  1.00  0.00     0.187 HD
HETATM   21  C   UNL     1      14.384  -4.987  -4.928  1.00  0.00     0.181 C 
HETATM   22  C   UNL     1      15.252  -2.778  -4.456  1.00  0.00     0.238 A 
HETATM   23  O   UNL     1      16.359  -3.112  -4.887  1.00  0.00    -0.272 OA
HETATM   24  C   UNL     1      15.059  -1.386  -3.939  1.00  0.00     0.111 A 
HETATM   25  C   UNL     1      13.685  -1.042  -3.445  1.00  0.00     0.073 A 
ENDBRANCH   2  17
TORSDOF 6
