REMARK  4 active torsions:
REMARK  status: ('A' for Active; 'I' for Inactive)
REMARK    1  A    between atoms: N1_1  and  C1*_4 
REMARK    2  A    between atoms: C4*_10  and  C5*_16 
REMARK    3  A    between atoms: C3*_11  and  O3*_15 
REMARK    4  A    between atoms: C5*_16  and  O5*_17 
ROOT
ATOM      1  N1    T A   1      -1.852  -2.696  -1.757  1.00  0.00    -0.282 N 
ATOM      2  C2    T A   1      -1.140  -3.191  -2.845  1.00  0.00     0.331 C 
ATOM      3  N3    T A   1      -1.735  -3.037  -4.067  1.00  0.00    -0.275 N 
ATOM      4  C6    T A   1      -2.909  -1.815  -1.974  1.00  0.00     0.110 C 
ATOM      5  C5    T A   1      -3.340  -1.474  -3.196  1.00  0.00     0.022 C 
ATOM      6  C4    T A   1      -2.667  -2.089  -4.358  1.00  0.00     0.256 C 
ATOM      7  O2    T A   1      -0.029  -3.712  -2.789  1.00  0.00    -0.246 OA
ATOM      8  O4    T A   1      -2.900  -1.734  -5.508  1.00  0.00    -0.267 OA
ATOM      9  C5M   T A   1      -4.420  -0.482  -3.475  1.00  0.00     0.056 C 
ATOM     10  H3    T A   1      -1.205  -3.379  -4.854  1.00  0.00     0.173 HD
ENDROOT
BRANCH   1  11
ATOM     11  C1*   T A   1      -1.295  -2.793  -0.395  1.00  0.00     0.235 C 
ATOM     12  O4*   T A   1      -2.397  -2.735   0.549  1.00  0.00    -0.356 OA
ATOM     13  C4*   T A   1      -2.516  -4.015   1.211  1.00  0.00     0.176 C 
ATOM     14  C3*   T A   1      -1.591  -4.977   0.478  1.00  0.00     0.153 C 
ATOM     15  C2*   T A   1      -0.511  -4.039   0.008  1.00  0.00     0.088 C 
BRANCH  13  16
ATOM     16  C5*   T A   1      -3.976  -4.468   1.219  1.00  0.00     0.198 C 
BRANCH  16  17
ATOM     17  O5*   T A   1      -4.495  -4.575  -0.106  1.00  0.00    -0.398 OA
ATOM     18  H5*   T A   1      -4.328  -3.716  -0.533  1.00  0.00     0.209 HD
ENDBRANCH  16  17
ENDBRANCH  13  16
BRANCH  14  19
ATOM     19  O3*   T A   1      -1.104  -6.006   1.328  1.00  0.00    -0.393 OA
ATOM     20  H3*   T A   1      -0.241  -5.746   1.692  1.00  0.00     0.210 HD
ENDBRANCH  14  19
ENDBRANCH   1  11
TORSDOF 4
