REMARK  4 active torsions:
REMARK  status: ('A' for Active; 'I' for Inactive)
REMARK       I    between atoms: C_2  and  N_3 
REMARK       I    between atoms: C_2  and  N_13 
REMARK    1  A    between atoms: N_3  and  C_4 
REMARK    2  A    between atoms: C_4  and  C_5 
REMARK    3  A    between atoms: C_5  and  C_6 
REMARK    4  A    between atoms: N_13  and  C_14 
ROOT
HETATM    1  O   UNL     1       1.113  -0.184   0.198  1.00  0.00    -0.247 OA
HETATM    2  C   UNL     1       2.320  -0.029   0.068  1.00  0.00     0.316 C 
HETATM    3  N   UNL     1       2.988   1.112   0.416  1.00  0.00    -0.343 N 
HETATM    4  N   UNL     1       3.164  -0.986  -0.432  1.00  0.00    -0.338 N 
HETATM    5  H   UNL     1       3.862   1.294  -0.054  1.00  0.00     0.164 HD
HETATM    6  H   UNL     1       4.150  -0.859  -0.252  1.00  0.00     0.164 HD
ENDROOT
BRANCH   3   7
HETATM    7  C   UNL     1       2.273   2.259   0.958  1.00  0.00     0.130 C 
BRANCH   7   8
HETATM    8  C   UNL     1       2.040   2.129   2.461  1.00  0.00     0.076 C 
BRANCH   8   9
HETATM    9  C   UNL     1       1.293   3.319   3.001  1.00  0.00     0.010 A 
HETATM   10  C   UNL     1      -0.100   3.310   3.064  1.00  0.00     0.025 A 
HETATM   11  C   UNL     1      -0.756   4.435   3.558  1.00  0.00     0.003 A 
HETATM   12  C   UNL     1      -0.012   5.531   3.973  1.00  0.00     0.017 A 
HETATM   13  C   UNL     1       1.367   5.459   3.874  1.00  0.00     0.088 A 
HETATM   14  N   UNL     1       2.032   4.386   3.391  1.00  0.00    -0.369 N 
ATOM     15  HN  UNL     1       3.050   4.380   3.323  1.00  0.00     0.165 HD
ENDBRANCH   8   9
ENDBRANCH   7   8
ENDBRANCH   3   7
BRANCH   4  16
HETATM   16  C   UNL     1       2.707  -2.301  -0.867  1.00  0.00     0.101 C 
HETATM   17  C   UNL     1       1.812  -2.233  -2.119  1.00  0.00     0.041 C 
HETATM   18  C   UNL     1       0.903  -3.459  -2.173  1.00  0.00     0.142 C 
HETATM   19  S   UNL     1       1.237  -4.423  -0.718  1.00  0.00     0.146 S 
HETATM   20  O   UNL     1      -0.010  -4.811  -0.095  1.00  0.00    -0.228 OA
HETATM   21  O   UNL     1       2.270  -5.389  -1.040  1.00  0.00    -0.228 OA
HETATM   22  C   UNL     1       1.982  -3.107   0.205  1.00  0.00     0.165 C 
ENDBRANCH   4  16
TORSDOF 4
