REMARK  9 active torsions:
REMARK  status: ('A' for Active; 'I' for Inactive)
REMARK    1  A    between atoms: N_1  and  C_9 
REMARK    2  A    between atoms: C_6  and  N_8 
REMARK    3  A    between atoms: C_14  and  C_25 
REMARK    4  A    between atoms: C_14  and  C_26 
REMARK    5  A    between atoms: C_19  and  C_23 
REMARK       I    between atoms: C_19  and  N_21 
REMARK    6  A    between atoms: C_23  and  C_27 
REMARK    7  A    between atoms: C_24  and  C_27 
REMARK    8  A    between atoms: C_25  and  O_28 
REMARK    9  A    between atoms: C_26  and  O_29 
ROOT
HETATM    1  N   UNL     1       1.580   1.114  -0.034  1.00  0.00    -0.322 N 
HETATM    2  C   UNL     1       0.333  -0.678  -0.035  1.00  0.00     0.117 A 
HETATM    3  C   UNL     1       0.266   0.716  -0.027  1.00  0.00     0.140 A 
HETATM    4  N   UNL     1       1.645  -1.113  -0.069  1.00  0.00    -0.346 N 
ATOM      5  HN  UNL     1       1.982  -2.075  -0.102  1.00  0.00     0.167 HD
HETATM    6  C   UNL     1      -0.881  -1.410   0.015  1.00  0.00     0.114 A 
HETATM    7  C   UNL     1       2.358  -0.016  -0.049  1.00  0.00     0.185 A 
HETATM    8  N   UNL     1      -0.855   1.457  -0.003  1.00  0.00    -0.336 N 
ATOM      9  HN  UNL     1      -0.876   2.477  -0.012  1.00  0.00     0.168 HD
HETATM   10  N   UNL     1      -2.032  -0.686   0.059  1.00  0.00    -0.341 N 
ATOM     11  HN  UNL     1      -2.938  -1.153   0.109  1.00  0.00     0.167 HD
HETATM   12  C   UNL     1      -1.953   0.664   0.035  1.00  0.00     0.183 A 
ENDROOT
BRANCH   6  13
HETATM   13  N   UNL     1      -0.888  -2.815   0.055  1.00  0.00    -0.267 NA
HETATM   14  C   UNL     1      -2.048  -3.440   0.696  1.00  0.00     0.101 C 
HETATM   15  C   UNL     1      -1.710  -4.928   0.973  1.00  0.00    -0.001 C 
HETATM   16  C   UNL     1      -1.290  -5.629  -0.333  1.00  0.00     0.007 C 
HETATM   17  C   UNL     1      -0.172  -4.869  -1.043  1.00  0.00     0.015 C 
HETATM   18  C   UNL     1      -0.529  -3.398  -1.242  1.00  0.00     0.097 C 
BRANCH  15  19
HETATM   19  C   UNL     1      -2.886  -5.649   1.662  1.00  0.00     0.015 C 
BRANCH  19  20
HETATM   20  C   UNL     1      -2.573  -7.108   2.017  1.00  0.00     0.103 C 
BRANCH  20  21
HETATM   21  C   UNL     1      -3.717  -7.799   2.725  1.00  0.00     0.215 C 
HETATM   22  O   UNL     1      -4.784  -7.270   3.011  1.00  0.00    -0.274 OA
HETATM   23  N   UNL     1      -3.476  -9.105   3.030  1.00  0.00    -0.370 N 
HETATM   24  H   UNL     1      -2.614  -9.578   2.793  1.00  0.00     0.159 HD
HETATM   25  H   UNL     1      -4.211  -9.630   3.486  1.00  0.00     0.159 HD
ENDBRANCH  20  21
ENDBRANCH  19  20
ENDBRANCH  15  19
ENDBRANCH   6  13
BRANCH   1  26
HETATM   26  C   UNL     1       2.204   2.408   0.004  1.00  0.00     0.094 C 
HETATM   27  C   UNL     1       1.756   3.354   1.158  1.00  0.00     0.039 C 
HETATM   28  C   UNL     1       2.078   4.545   0.182  1.00  0.00     0.006 C 
HETATM   29  C   UNL     1       1.660   3.514  -0.940  1.00  0.00     0.039 C 
BRANCH  28  30
HETATM   30  C   UNL     1       1.163   5.758   0.354  1.00  0.00     0.175 C 
BRANCH  30  31
HETATM   31  O   UNL     1       1.241   6.599  -0.793  1.00  0.00    -0.400 OA
HETATM   32  H   UNL     1       2.186   6.821  -0.922  1.00  0.00     0.209 HD
ENDBRANCH  30  31
ENDBRANCH  28  30
BRANCH  28  33
HETATM   33  C   UNL     1       3.558   4.977   0.225  1.00  0.00     0.175 C 
BRANCH  33  34
HETATM   34  O   UNL     1       3.886   5.701  -0.958  1.00  0.00    -0.400 OA
HETATM   35  H   UNL     1       4.032   5.049  -1.668  1.00  0.00     0.209 HD
ENDBRANCH  33  34
ENDBRANCH  28  33
ENDBRANCH   1  26
TORSDOF 9
