REMARK  7 active torsions:
REMARK  status: ('A' for Active; 'I' for Inactive)
REMARK    1  A    between atoms: C_2  and  C_3 
REMARK    2  A    between atoms: C_3  and  C_4 
REMARK    3  A    between atoms: C_3  and  N_9 
REMARK    4  A    between atoms: C_4  and  C_5 
REMARK    5  A    between atoms: C_5  and  N_6 
REMARK       I    between atoms: N_9  and  C_10 
REMARK       I    between atoms: C_10  and  N_12 
REMARK    6  A    between atoms: N_12  and  C_13 
REMARK    7  A    between atoms: C_16  and  N_21 
ROOT
HETATM    1  N   UNL     1       4.638   0.649  -1.535  1.00  0.00    -0.337 N 
HETATM    2  C   UNL     1       5.273   0.952  -2.720  1.00  0.00     0.321 C 
HETATM    3  O   UNL     1       4.781   1.700  -3.554  1.00  0.00    -0.247 OA
HETATM    4  N   UNL     1       6.454   0.249  -2.849  1.00  0.00    -0.307 N 
HETATM    5  H   UNL     1       5.251   0.486  -0.744  1.00  0.00     0.164 HD
HETATM    6  H   UNL     1       6.449  -0.643  -2.376  1.00  0.00     0.170 HD
ENDROOT
BRANCH   4   7
HETATM    7  C   UNL     1       7.316   0.382  -3.965  1.00  0.00     0.058 A 
HETATM    8  C   UNL     1       7.552   1.617  -4.551  1.00  0.00     0.035 A 
HETATM    9  C   UNL     1       8.398   1.714  -5.661  1.00  0.00     0.051 A 
HETATM   10  C   UNL     1       8.985   0.579  -6.210  1.00  0.00     0.103 A 
HETATM   11  N   UNL     1       8.797  -0.617  -5.609  1.00  0.00    -0.344 N 
HETATM   12  C   UNL     1       7.986  -0.711  -4.510  1.00  0.00     0.034 A 
ATOM     13  HN  UNL     1       9.259  -1.450  -5.974  1.00  0.00     0.167 HD
HETATM   14  C   UNL     1       7.826  -2.100  -3.964  1.00  0.00     0.070 C 
BRANCH  10  15
HETATM   15  N   UNL     1       9.772   0.629  -7.339  1.00  0.00    -0.367 N 
HETATM   16  C   UNL     1      10.174  -0.620  -7.984  1.00  0.00     0.124 C 
HETATM   17  C   UNL     1      10.491  -0.232  -9.431  1.00  0.00     0.021 C 
HETATM   18  C   UNL     1       9.753   1.078  -9.642  1.00  0.00     0.021 C 
HETATM   19  C   UNL     1       9.804   1.744  -8.274  1.00  0.00     0.124 C 
ENDBRANCH  10  15
ENDBRANCH   4   7
BRANCH   1  20
HETATM   20  C   UNL     1       3.270   1.111  -1.269  1.00  0.00     0.097 C 
BRANCH  20  21
HETATM   21  C   UNL     1       2.618   0.261  -0.160  1.00  0.00     0.021 C 
HETATM   22  C   UNL     1       2.549  -1.224  -0.497  1.00  0.00     0.007 C 
ENDBRANCH  20  21
BRANCH  20  23
HETATM   23  C   UNL     1       3.184   2.626  -0.965  1.00  0.00     0.129 C 
BRANCH  23  24
HETATM   24  C   UNL     1       3.886   2.962   0.340  1.00  0.00    -0.076 C 
BRANCH  24  25
HETATM   25  N   UNL     1       4.469   3.240   1.423  1.00  0.00    -0.370 N 
ATOM     26  HN2 UNL     1       4.015   2.981   0.547  1.00  0.00     0.165 HD
ATOM     27  HN1 UNL     1       4.940   3.466   2.299  1.00  0.00     0.165 HD
ENDBRANCH  24  25
ENDBRANCH  23  24
ENDBRANCH  20  23
ENDBRANCH   1  20
TORSDOF 7
