REMARK  5 active torsions:
REMARK  status: ('A' for Active; 'I' for Inactive)
REMARK    1  A    between atoms: C_2  and  C_3 
REMARK    2  A    between atoms: C_2  and  N_10 
REMARK    3  A    between atoms: C_3  and  N_4 
REMARK       I    between atoms: N_10  and  C_11 
REMARK    4  A    between atoms: C_11  and  C_13 
REMARK    5  A    between atoms: C_13  and  N_14 
ROOT
HETATM    1  N   UNL     1       3.361  -0.887  -1.406  1.00  0.00    -0.354 N 
HETATM    2  C   UNL     1       4.720  -1.116  -1.436  1.00  0.00     0.237 C 
HETATM    3  O   UNL     1       5.478  -0.790  -0.529  1.00  0.00    -0.272 OA
HETATM    4  H   UNL     1       2.813  -1.124  -2.227  1.00  0.00     0.162 HD
ENDROOT
BRANCH   1   5
HETATM    5  C   UNL     1       2.692  -0.207  -0.290  1.00  0.00     0.108 C 
HETATM    6  C   UNL     1       1.216  -0.006  -0.644  1.00  0.00     0.034 C 
BRANCH   5   7
HETATM    7  C   UNL     1       2.862  -0.992   1.049  1.00  0.00     0.297 C 
BRANCH   7   8
HETATM    8  N   UNL     1       2.135  -0.463   2.222  1.00  0.00     0.094 N 
HETATM    9  C   UNL     1       2.658   0.834   2.708  1.00  0.00     0.298 C 
HETATM   10  C   UNL     1       3.970   0.764   3.516  1.00  0.00     0.198 C 
HETATM   11  O   UNL     1       3.894  -0.191   4.581  1.00  0.00    -0.388 OA
HETATM   12  C   UNL     1       3.546  -1.482   4.070  1.00  0.00     0.198 C 
HETATM   13  C   UNL     1       2.188  -1.429   3.348  1.00  0.00     0.298 C 
ENDBRANCH   7   8
ENDBRANCH   5   7
ENDBRANCH   1   5
BRANCH   2  14
HETATM   14  C   UNL     1       5.226  -1.807  -2.677  1.00  0.00     0.250 C 
BRANCH  14  15
HETATM   15  N   UNL     1       4.986  -3.234  -2.624  1.00  0.00    -0.295 N 
HETATM   16  C   UNL     1       5.521  -4.128  -1.739  1.00  0.00     0.112 A 
HETATM   17  C   UNL     1       5.015  -5.358  -2.086  1.00  0.00     0.037 A 
HETATM   18  C   UNL     1       4.199  -5.105  -3.204  1.00  0.00     0.108 A 
HETATM   19  N   UNL     1       4.174  -3.811  -3.534  1.00  0.00    -0.310 N 
ATOM     20  HN  UNL     1       3.662  -3.364  -4.295  1.00  0.00     0.186 HD
ENDBRANCH  14  15
ENDBRANCH   2  14
TORSDOF 5
