REMARK  5 active torsions:
REMARK  status: ('A' for Active; 'I' for Inactive)
REMARK    1  A    between atoms: C_5  and  C_6 
REMARK    2  A    between atoms: C_6  and  C_7 
REMARK    3  A    between atoms: C_7  and  N_8 
REMARK       I    between atoms: N_8  and  C_9 
REMARK       I    between atoms: C_9  and  N_11 
REMARK    4  A    between atoms: N_11  and  C_12 
REMARK    5  A    between atoms: N_14  and  C_15 
ROOT
HETATM    1  N   UNL     1       8.806  -1.523  -0.878  1.00  0.00    -0.343 N 
HETATM    2  C   UNL     1       9.403  -2.762  -0.900  1.00  0.00     0.316 C 
HETATM    3  O   UNL     1       8.874  -3.780  -0.476  1.00  0.00    -0.247 OA
HETATM    4  N   UNL     1      10.651  -2.730  -1.471  1.00  0.00    -0.336 N 
HETATM    5  H   UNL     1       9.063  -0.924  -1.650  1.00  0.00     0.164 HD
HETATM    6  H   UNL     1      11.132  -1.843  -1.396  1.00  0.00     0.164 HD
ENDROOT
BRANCH   1   7
HETATM    7  C   UNL     1       7.434  -1.439  -0.391  1.00  0.00     0.129 C 
BRANCH   7   8
HETATM    8  C   UNL     1       6.846  -0.028  -0.444  1.00  0.00     0.060 C 
BRANCH   8   9
HETATM    9  C   UNL     1       5.433   0.003   0.085  1.00  0.00    -0.041 A 
HETATM   10  C   UNL     1       4.336  -0.231  -0.745  1.00  0.00     0.010 A 
HETATM   11  C   UNL     1       3.047  -0.257  -0.204  1.00  0.00     0.025 A 
HETATM   12  C   UNL     1       2.885  -0.049   1.161  1.00  0.00     0.005 A 
HETATM   13  C   UNL     1       1.530  -0.132   1.800  1.00  0.00     0.068 C 
HETATM   14  N   UNL     1       3.932   0.195   1.983  1.00  0.00    -0.369 N 
HETATM   15  C   UNL     1       5.170   0.214   1.433  1.00  0.00     0.095 A 
ATOM     16  HN  UNL     1       3.794   0.359   2.980  1.00  0.00     0.165 HD
ENDBRANCH   8   9
ENDBRANCH   7   8
ENDBRANCH   1   7
BRANCH   4  17
HETATM   17  C   UNL     1      11.485  -3.929  -1.589  1.00  0.00     0.112 C 
HETATM   18  C   UNL     1      10.864  -5.075  -2.389  1.00  0.00     0.152 C 
HETATM   19  N   UNL     1      11.460  -6.277  -1.852  1.00  0.00    -0.345 N 
HETATM   20  C   UNL     1      12.049  -6.036  -0.609  1.00  0.00     0.222 C 
HETATM   21  O   UNL     1      12.558  -6.863   0.134  1.00  0.00    -0.273 OA
HETATM   22  C   UNL     1      11.880  -4.576  -0.263  1.00  0.00     0.129 C 
BRANCH  19  23
HETATM   23  C   UNL     1      10.843  -7.536  -2.158  1.00  0.00     0.087 A 
HETATM   24  C   UNL     1      11.582  -8.837  -2.281  1.00  0.00     0.027 A 
HETATM   25  C   UNL     1      11.045  -8.167  -3.510  1.00  0.00     0.027 A 
ENDBRANCH  19  23
ENDBRANCH   4  17
TORSDOF 5
