REMARK  3 active torsions:
REMARK  status: ('A' for Active; 'I' for Inactive)
REMARK    1  A    between atoms: C_2  and  N_4 
REMARK    2  A    between atoms: C_9  and  N_10 
REMARK       I    between atoms: N_10  and  C_11 
REMARK       I    between atoms: C_11  and  N_13 
REMARK    3  A    between atoms: N_13  and  C_14 
ROOT
HETATM    1  N   UNL     1       4.727   0.355  -2.265  1.00  0.00    -0.293 N 
HETATM    2  C   UNL     1       5.284  -0.822  -1.662  1.00  0.00     0.322 C 
HETATM    3  O   UNL     1       5.635  -0.841  -0.499  1.00  0.00    -0.247 OA
HETATM    4  N   UNL     1       5.385  -1.854  -2.551  1.00  0.00    -0.334 N 
HETATM    5  H   UNL     1       4.672   0.416  -3.267  1.00  0.00     0.172 HD
HETATM    6  H   UNL     1       4.790  -1.831  -3.363  1.00  0.00     0.165 HD
ENDROOT
BRANCH   1   7
HETATM    7  C   UNL     1       4.365   1.470  -1.493  1.00  0.00     0.127 A 
HETATM    8  N   UNL     1       4.169   2.786  -1.874  1.00  0.00    -0.273 N 
HETATM    9  N   UNL     1       3.792   3.577  -0.842  1.00  0.00    -0.308 N 
HETATM   10  C   UNL     1       3.772   2.766   0.210  1.00  0.00     0.111 A 
ATOM     11  HN  UNL     1       3.572   4.573  -0.867  1.00  0.00     0.186 HD
HETATM   12  C   UNL     1       4.096   1.450  -0.137  1.00  0.00     0.069 A 
BRANCH   8  13
HETATM   13  C   UNL     1       4.400   3.464  -3.145  1.00  0.00     0.102 C 
HETATM   14  C   UNL     1       5.823   3.290  -3.669  1.00  0.00     0.034 C 
HETATM   15  C   UNL     1       3.343   3.135  -4.194  1.00  0.00     0.034 C 
ENDBRANCH   8  13
ENDBRANCH   1   7
BRANCH   4  16
HETATM   16  C   UNL     1       5.966  -3.184  -2.187  1.00  0.00     0.035 C 
HETATM   17  C   UNL     1       5.062  -3.905  -1.169  1.00  0.00     0.039 C 
HETATM   18  C   UNL     1       7.395  -3.072  -1.602  1.00  0.00     0.057 C 
HETATM   19  C   UNL     1       8.400  -2.601  -2.644  1.00  0.00     0.170 C 
HETATM   20  O   UNL     1       8.383  -3.452  -3.788  1.00  0.00    -0.391 OA
HETATM   21  C   UNL     1       7.110  -3.509  -4.420  1.00  0.00     0.170 C 
HETATM   22  C   UNL     1       6.061  -4.058  -3.461  1.00  0.00     0.057 C 
ENDBRANCH   4  16
TORSDOF 3
