REMARK  5 active torsions:
REMARK  status: ('A' for Active; 'I' for Inactive)
REMARK    1  A    between atoms: O_2  and  C_3 
REMARK    2  A    between atoms: C_3  and  C_4 
REMARK    3  A    between atoms: C_4  and  N_7 
REMARK       I    between atoms: N_7  and  C_8 
REMARK       I    between atoms: C_8  and  N_10 
REMARK    4  A    between atoms: N_10  and  C_11 
REMARK    5  A    between atoms: N_15  and  C_18 
ROOT
HETATM    1  C   UNL     1       8.021  -2.105   4.219  1.00  0.00     0.702 C 
HETATM    2  N   UNL     1       8.898  -1.070   4.073  1.00  0.00    -0.185 N 
ATOM      3  HN  UNL     1       8.722  -0.147   3.675  1.00  0.00     0.185 HD
HETATM    4  C   UNL     1      10.016  -1.537   4.562  1.00  0.00     0.218 C 
HETATM    5  N   UNL     1       9.810  -2.800   5.031  1.00  0.00    -0.268 N 
HETATM    6  N   UNL     1       8.514  -3.154   4.891  1.00  0.00    -0.128 N 
ATOM      7  HN  UNL     1       8.037  -3.997   5.212  1.00  0.00     0.206 HD
ENDROOT
BRANCH   1   8
HETATM    8  N   UNL     1       6.746  -2.084   3.711  1.00  0.00    -0.140 N 
HETATM    9  C   UNL     1       6.421  -1.270   2.654  1.00  0.00     0.335 C 
HETATM   10  N   UNL     1       5.095  -1.384   2.289  1.00  0.00    -0.332 N 
HETATM   11  O   UNL     1       7.194  -0.546   2.042  1.00  0.00    -0.246 OA
HETATM   12  H   UNL     1       4.447  -1.757   2.969  1.00  0.00     0.165 HD
HETATM   13  H   UNL     1       6.223  -2.923   3.867  1.00  0.00     0.189 HD
BRANCH  10  14
HETATM   14  C   UNL     1       4.526  -0.714   1.097  1.00  0.00     0.048 C 
HETATM   15  C   UNL     1       5.231  -1.217  -0.179  1.00  0.00     0.040 C 
HETATM   16  C   UNL     1       4.661   0.818   1.204  1.00  0.00     0.040 C 
BRANCH  14  17
HETATM   17  C   UNL     1       3.007  -1.034   0.984  1.00  0.00     0.197 C 
BRANCH  17  18
HETATM   18  O   UNL     1       2.791  -2.445   0.883  1.00  0.00    -0.394 OA
HETATM   19  C   UNL     1       1.418  -2.752   0.677  1.00  0.00     0.201 C 
ENDBRANCH  17  18
ENDBRANCH  14  17
ENDBRANCH  10  14
ENDBRANCH   1   8
BRANCH   5  20
HETATM   20  C   UNL     1      10.858  -3.719   5.456  1.00  0.00     0.109 C 
HETATM   21  C   UNL     1      11.773  -4.088   4.276  1.00  0.00     0.027 C 
HETATM   22  C   UNL     1      11.051  -4.989   3.277  1.00  0.00     0.002 C 
HETATM   23  C   UNL     1      10.577  -6.275   3.945  1.00  0.00     0.000 C 
HETATM   24  C   UNL     1       9.758  -6.032   5.212  1.00  0.00     0.002 C 
HETATM   25  C   UNL     1      10.383  -5.002   6.158  1.00  0.00     0.027 C 
ENDBRANCH   5  20
TORSDOF 5
