REMARK  4 active torsions:
REMARK  status: ('A' for Active; 'I' for Inactive)
REMARK    1  A    between atoms: C_9  and  C_10 
REMARK    2  A    between atoms: C_10  and  C_11 
REMARK       I    between atoms: C_11  and  N_13 
REMARK    3  A    between atoms: N_13  and  C_14 
REMARK    4  A    between atoms: C_17  and  O_18 
ROOT
HETATM    1  C   UNL     1       2.154   3.200   0.652  1.00  0.00     0.222 C 
HETATM    2  O   UNL     1       1.517   2.551   1.479  1.00  0.00    -0.273 OA
HETATM    3  N   UNL     1       1.665   4.349   0.063  1.00  0.00    -0.356 N 
HETATM    4  H   UNL     1       2.272   4.858  -0.568  1.00  0.00     0.162 HD
ENDROOT
BRANCH   1   5
HETATM    5  C   UNL     1       3.526   2.766   0.161  1.00  0.00     0.145 C 
BRANCH   5   6
HETATM    6  C   UNL     1       4.694   3.447   0.804  1.00  0.00    -0.002 A 
HETATM    7  C   UNL     1       4.855   3.922   2.139  1.00  0.00     0.030 A 
HETATM    8  C   UNL     1       3.897   3.889   3.274  1.00  0.00     0.070 C 
HETATM    9  N   UNL     1       6.069   4.447   2.335  1.00  0.00    -0.303 N 
HETATM   10  N   UNL     1       6.706   4.278   1.168  1.00  0.00    -0.300 N 
ATOM     11  HN  UNL     1       6.430   4.880   3.185  1.00  0.00     0.186 HD
HETATM   12  C   UNL     1       8.075   4.723   1.049  1.00  0.00     0.177 C 
HETATM   13  C   UNL     1       5.934   3.672   0.212  1.00  0.00     0.033 A 
HETATM   14  C   UNL     1       6.425   3.330  -1.149  1.00  0.00     0.070 C 
ENDBRANCH   5   6
ENDBRANCH   1   5
BRANCH   3  15
HETATM   15  C   UNL     1       0.301   4.822   0.288  1.00  0.00     0.084 C 
HETATM   16  C   UNL     1      -0.720   4.037  -0.551  1.00  0.00     0.028 C 
HETATM   17  C   UNL     1      -0.573   4.308  -2.050  1.00  0.00     0.034 C 
HETATM   18  C   UNL     1      -0.596   5.799  -2.393  1.00  0.00     0.118 C 
HETATM   19  C   UNL     1       0.323   6.637  -1.503  1.00  0.00     0.034 C 
HETATM   20  C   UNL     1       0.178   6.320  -0.013  1.00  0.00     0.028 C 
BRANCH  18  21
HETATM   21  O   UNL     1      -1.928   6.300  -2.315  1.00  0.00    -0.396 OA
HETATM   22  H   UNL     1      -2.285   6.127  -1.428  1.00  0.00     0.210 HD
ENDBRANCH  18  21
ENDBRANCH   3  15
TORSDOF 4
