REMARK  5 active torsions:
REMARK  status: ('A' for Active; 'I' for Inactive)
REMARK    1  A    between atoms: S_2  and  N_4 
REMARK    2  A    between atoms: S_2  and  N_14 
REMARK    3  A    between atoms: N_4  and  C_5 
REMARK    4  A    between atoms: C_5  and  C_6 
REMARK    5  A    between atoms: C_6  and  C_7 
ROOT
HETATM    1  N   UNL     1       3.200   0.909  -1.152  1.00  0.00    -0.202 NA
HETATM    2  H   UNL     1       4.187   0.670  -1.247  1.00  0.00     0.141 HD
ENDROOT
BRANCH   1   3
HETATM    3  S   UNL     1       2.568  -0.103   0.051  1.00  0.00     0.298 S 
HETATM    4  O   UNL     1       1.152   0.154   0.158  1.00  0.00    -0.188 OA
HETATM    5  O   UNL     1       3.085  -1.418  -0.233  1.00  0.00    -0.188 OA
BRANCH   3   6
HETATM    6  N   UNL     1       3.365   0.509   1.416  1.00  0.00    -0.298 N 
HETATM    7  C   UNL     1       2.841   1.785   1.964  1.00  0.00     0.136 C 
HETATM    8  C   UNL     1       2.944   1.791   3.490  1.00  0.00     0.021 C 
HETATM    9  C   UNL     1       4.257   2.359   4.025  1.00  0.00     0.002 C 
HETATM   10  C   UNL     1       5.518   1.910   3.296  1.00  0.00     0.002 C 
HETATM   11  C   UNL     1       5.471   0.465   2.810  1.00  0.00     0.021 C 
HETATM   12  C   UNL     1       4.836   0.332   1.427  1.00  0.00     0.136 C 
ENDBRANCH   3   6
ENDBRANCH   1   3
BRANCH   1  13
HETATM   13  C   UNL     1       2.527   0.701  -2.476  1.00  0.00     0.112 C 
BRANCH  13  14
HETATM   14  C   UNL     1       3.138   1.613  -3.541  1.00  0.00     0.072 C 
BRANCH  14  15
HETATM   15  C   UNL     1       2.475   1.380  -4.876  1.00  0.00     0.010 A 
HETATM   16  C   UNL     1       1.376   2.141  -5.266  1.00  0.00     0.025 A 
HETATM   17  C   UNL     1       0.760   1.860  -6.484  1.00  0.00     0.003 A 
HETATM   18  C   UNL     1       1.254   0.831  -7.276  1.00  0.00     0.017 A 
HETATM   19  C   UNL     1       2.351   0.124  -6.815  1.00  0.00     0.088 A 
HETATM   20  N   UNL     1       2.968   0.374  -5.637  1.00  0.00    -0.369 N 
ATOM     21  HN  UNL     1       3.773  -0.174  -5.334  1.00  0.00     0.165 HD
ENDBRANCH  14  15
ENDBRANCH  13  14
ENDBRANCH   1  13
TORSDOF 5
