REMARK  3 active torsions:
REMARK  status: ('A' for Active; 'I' for Inactive)
REMARK       I    between atoms: C_2  and  N_3 
REMARK       I    between atoms: C_2  and  N_9 
REMARK    1  A    between atoms: N_3  and  C_4 
REMARK    2  A    between atoms: N_9  and  C_10 
REMARK    3  A    between atoms: C_16  and  N_17 
ROOT
HETATM    1  C   UNL     1       4.237   1.292   0.550  1.00  0.00     0.080 A 
HETATM    2  C   UNL     1       4.838   2.545   0.661  1.00  0.00     0.035 A 
HETATM    3  C   UNL     1       6.223   2.650   0.601  1.00  0.00     0.019 A 
HETATM    4  C   UNL     1       6.961   1.492   0.452  1.00  0.00     0.090 A 
HETATM    5  N   UNL     1       6.416   0.268   0.284  1.00  0.00    -0.351 N 
ATOM      6  HN  UNL     1       7.005  -0.555   0.156  1.00  0.00     0.166 HD
HETATM    7  C   UNL     1       5.066   0.164   0.290  1.00  0.00     0.130 A 
ENDROOT
BRANCH   1   8
HETATM    8  N   UNL     1       2.842   1.091   0.732  1.00  0.00    -0.305 N 
HETATM    9  C   UNL     1       1.841   2.034   0.764  1.00  0.00     0.321 C 
HETATM   10  O   UNL     1       1.987   3.244   0.662  1.00  0.00    -0.247 OA
HETATM   11  N   UNL     1       0.594   1.451   0.898  1.00  0.00    -0.338 N 
HETATM   12  H   UNL     1       0.508   0.473   0.664  1.00  0.00     0.164 HD
HETATM   13  H   UNL     1       2.589   0.126   0.897  1.00  0.00     0.171 HD
BRANCH  11  14
HETATM   14  C   UNL     1      -0.612   2.263   0.877  1.00  0.00     0.086 C 
HETATM   15  C   UNL     1      -1.873   1.484   1.286  1.00  0.00     0.025 C 
HETATM   16  C   UNL     1      -2.975   1.892   0.304  1.00  0.00     0.002 C 
HETATM   17  C   UNL     1      -2.435   3.113  -0.423  1.00  0.00     0.002 C 
HETATM   18  C   UNL     1      -0.942   2.837  -0.504  1.00  0.00     0.025 C 
ENDBRANCH  11  14
ENDBRANCH   1   8
BRANCH   7  19
HETATM   19  N   UNL     1       4.502  -1.075  -0.061  1.00  0.00    -0.361 N 
HETATM   20  C   UNL     1       5.330  -2.280   0.134  1.00  0.00     0.150 C 
HETATM   21  C   UNL     1       5.400  -3.195  -1.093  1.00  0.00     0.187 C 
HETATM   22  O   UNL     1       4.106  -3.386  -1.674  1.00  0.00    -0.388 OA
HETATM   23  C   UNL     1       3.676  -2.147  -2.226  1.00  0.00     0.187 C 
HETATM   24  C   UNL     1       3.550  -1.028  -1.190  1.00  0.00     0.150 C 
ENDBRANCH   7  19
TORSDOF 3
