REMARK  6 active torsions:
REMARK  status: ('A' for Active; 'I' for Inactive)
REMARK    1  A    between atoms: C_2  and  C_4 
REMARK    2  A    between atoms: C_4  and  N_6 
REMARK       I    between atoms: N_6  and  C_7 
REMARK    3  A    between atoms: C_7  and  C_9 
REMARK    4  A    between atoms: C_9  and  N_10 
REMARK    5  A    between atoms: C_11  and  C_20 
REMARK    6  A    between atoms: C_14  and  C_15 
REMARK       I    between atoms: C_15  and  N_17 
ROOT
HETATM    1  N   UNL     1       7.289  -2.364  -3.100  1.00  0.00    -0.300 N 
HETATM    2  C   UNL     1       7.750  -1.884  -4.346  1.00  0.00     0.122 A 
HETATM    3  C   UNL     1       8.157  -2.783  -5.267  1.00  0.00     0.036 A 
HETATM    4  C   UNL     1       8.103  -4.198  -5.026  1.00  0.00     0.025 A 
HETATM    5  C   UNL     1       7.664  -4.694  -3.859  1.00  0.00     0.100 A 
HETATM    6  C   UNL     1       7.234  -3.736  -2.801  1.00  0.00     0.264 A 
HETATM    7  O   UNL     1       6.819  -4.155  -1.715  1.00  0.00    -0.267 OA
ENDROOT
BRANCH   1   8
HETATM    8  C   UNL     1       6.728  -1.490  -2.068  1.00  0.00     0.235 C 
BRANCH   8   9
HETATM    9  C   UNL     1       5.212  -1.383  -2.259  1.00  0.00     0.236 C 
HETATM   10  N   UNL     1       4.493  -2.387  -1.638  1.00  0.00    -0.355 N 
HETATM   11  H   UNL     1       5.013  -3.119  -1.160  1.00  0.00     0.162 HD
HETATM   12  O   UNL     1       4.702  -0.532  -2.983  1.00  0.00    -0.272 OA
BRANCH  10  13
HETATM   13  C   UNL     1       3.037  -2.464  -1.685  1.00  0.00     0.083 C 
HETATM   14  C   UNL     1       2.432  -1.528  -0.636  1.00  0.00     0.032 C 
BRANCH  13  15
HETATM   15  C   UNL     1       2.510  -3.918  -1.547  1.00  0.00    -0.000 C 
HETATM   16  C   UNL     1       3.059  -4.820  -2.658  1.00  0.00     0.011 C 
HETATM   17  C   UNL     1       2.779  -4.556  -0.181  1.00  0.00     0.011 C 
ENDBRANCH  13  15
ENDBRANCH  10  13
ENDBRANCH   8   9
ENDBRANCH   1   8
BRANCH   2  18
HETATM   18  C   UNL     1       7.844  -0.411  -4.737  1.00  0.00     0.432 C 
HETATM   19  F   UNL     1       7.450   0.476  -3.797  1.00  0.00    -0.165 F 
HETATM   20  F   UNL     1       9.132  -0.085  -5.044  1.00  0.00    -0.165 F 
HETATM   21  F   UNL     1       7.114  -0.150  -5.854  1.00  0.00    -0.165 F 
ENDBRANCH   2  18
BRANCH   5  22
HETATM   22  C   UNL     1       7.605  -6.177  -3.715  1.00  0.00     0.254 C 
HETATM   23  O   UNL     1       7.932  -6.948  -4.612  1.00  0.00    -0.268 OA
HETATM   24  N   UNL     1       7.161  -6.654  -2.523  1.00  0.00    -0.366 N 
HETATM   25  H   UNL     1       6.888  -6.034  -1.764  1.00  0.00     0.159 HD
HETATM   26  H   UNL     1       7.094  -7.653  -2.392  1.00  0.00     0.159 HD
ENDBRANCH   5  22
TORSDOF 6
