REMARK  4 active torsions:
REMARK  status: ('A' for Active; 'I' for Inactive)
REMARK    1  A    between atoms: C_2  and  C_3 
REMARK    2  A    between atoms: C_2  and  N_16 
REMARK    3  A    between atoms: C_3  and  N_4 
REMARK       I    between atoms: N_4  and  C_5 
REMARK       I    between atoms: C_5  and  N_7 
REMARK    4  A    between atoms: N_7  and  C_8 
ROOT
HETATM    1  N   UNL     1       2.503  -2.491   0.964  1.00  0.00    -0.341 N 
HETATM    2  C   UNL     1       2.989  -3.779   0.979  1.00  0.00     0.320 C 
HETATM    3  O   UNL     1       3.813  -4.179   0.165  1.00  0.00    -0.247 OA
HETATM    4  N   UNL     1       2.394  -4.537   1.964  1.00  0.00    -0.308 N 
HETATM    5  H   UNL     1       2.376  -2.054   1.868  1.00  0.00     0.164 HD
HETATM    6  H   UNL     1       1.506  -4.182   2.282  1.00  0.00     0.170 HD
ENDROOT
BRANCH   1   7
HETATM    7  C   UNL     1       2.999  -1.611  -0.078  1.00  0.00     0.159 C 
BRANCH   7   8
HETATM    8  C   UNL     1       2.437  -0.176   0.017  1.00  0.00     0.236 C 
HETATM    9  C   UNL     1       2.880   0.586  -1.237  1.00  0.00     0.044 C 
BRANCH   8  10
HETATM   10  N   UNL     1       2.680   0.449   1.340  1.00  0.00     0.098 N 
HETATM   11  C   UNL     1       2.017   1.755   1.530  1.00  0.00     0.299 C 
HETATM   12  C   UNL     1       2.821   2.966   1.026  1.00  0.00     0.198 C 
HETATM   13  O   UNL     1       4.131   3.000   1.601  1.00  0.00    -0.388 OA
HETATM   14  C   UNL     1       4.848   1.791   1.329  1.00  0.00     0.198 C 
HETATM   15  C   UNL     1       4.075   0.551   1.809  1.00  0.00     0.299 C 
ENDBRANCH   8  10
ENDBRANCH   7   8
ENDBRANCH   1   7
BRANCH   4  16
HETATM   16  C   UNL     1       2.718  -5.841   2.281  1.00  0.00     0.052 A 
HETATM   17  C   UNL     1       1.726  -6.624   2.984  1.00  0.00     0.036 A 
HETATM   18  C   UNL     1       1.957  -7.904   3.302  1.00  0.00     0.077 A 
HETATM   19  C   UNL     1       3.261  -8.544   2.976  1.00  0.00     0.247 A 
HETATM   20  O   UNL     1       3.447  -9.716   3.290  1.00  0.00    -0.268 OA
HETATM   21  N   UNL     1       4.186  -7.727   2.337  1.00  0.00    -0.327 N 
HETATM   22  C   UNL     1       5.507  -8.244   2.014  1.00  0.00     0.159 C 
HETATM   23  C   UNL     1       3.898  -6.417   1.988  1.00  0.00     0.123 A 
ENDBRANCH   4  16
TORSDOF 4
