REMARK  7 active torsions:
REMARK  status: ('A' for Active; 'I' for Inactive)
REMARK    1  A    between atoms: C_2  and  C_3 
REMARK    2  A    between atoms: C_7  and  C_8 
REMARK    3  A    between atoms: C_8  and  C_9 
REMARK    4  A    between atoms: C_9  and  N_10 
REMARK       I    between atoms: N_10  and  C_11 
REMARK    5  A    between atoms: C_11  and  C_13 
REMARK    6  A    between atoms: C_13  and  C_14 
REMARK    7  A    between atoms: C_14  and  C_15 
ROOT
HETATM    1  N   UNL     1       8.053   3.673  -1.248  1.00  0.00    -0.361 N 
HETATM    2  C   UNL     1       9.211   2.983  -1.538  1.00  0.00     0.217 C 
HETATM    3  O   UNL     1       9.254   1.759  -1.611  1.00  0.00    -0.274 OA
HETATM    4  H   UNL     1       8.069   4.682  -1.179  1.00  0.00     0.162 HD
ENDROOT
BRANCH   1   5
HETATM    5  C   UNL     1       6.844   2.940  -0.909  1.00  0.00     0.129 C 
BRANCH   5   6
HETATM    6  C   UNL     1       5.641   3.846  -0.667  1.00  0.00     0.084 C 
BRANCH   6   7
HETATM    7  C   UNL     1       4.427   3.032  -0.346  1.00  0.00     0.052 A 
HETATM    8  N   UNL     1       4.092   2.649   0.867  1.00  0.00    -0.363 N 
HETATM    9  C   UNL     1       2.936   1.894   0.814  1.00  0.00     0.103 A 
ATOM     10  HN  UNL     1       4.607   2.875   1.718  1.00  0.00     0.165 HD
HETATM   11  C   UNL     1       2.394   1.715  -0.443  1.00  0.00    -0.001 A 
HETATM   12  S   UNL     1       3.371   2.515  -1.602  1.00  0.00    -0.080 SA
BRANCH  11  13
HETATM   13  C   UNL     1       1.154   0.985  -0.846  1.00  0.00     0.043 C 
HETATM   14  C   UNL     1       1.429  -0.472  -1.185  1.00  0.00     0.010 C 
ENDBRANCH  11  13
ENDBRANCH   6   7
ENDBRANCH   5   6
ENDBRANCH   1   5
BRANCH   2  15
HETATM   15  C   UNL     1      10.426   3.850  -1.799  1.00  0.00     0.105 C 
BRANCH  15  16
HETATM   16  C   UNL     1      10.772   4.791  -0.644  1.00  0.00     0.041 C 
BRANCH  16  17
HETATM   17  C   UNL     1      11.044   4.057   0.667  1.00  0.00     0.121 C 
HETATM   18  C   UNL     1      11.367   4.995   1.822  1.00  0.00     0.034 C 
HETATM   19  C   UNL     1      12.440   4.271   2.612  1.00  0.00     0.029 C 
HETATM   20  C   UNL     1      12.639   2.963   1.877  1.00  0.00     0.168 C 
HETATM   21  O   UNL     1      12.190   3.208   0.541  1.00  0.00    -0.386 OA
ENDBRANCH  16  17
ENDBRANCH  15  16
ENDBRANCH   2  15
TORSDOF 7
