REMARK  4 active torsions:
REMARK  status: ('A' for Active; 'I' for Inactive)
REMARK       I    between atoms: N_6  and  C_8 
REMARK       I    between atoms: C_8  and  N_10 
REMARK    1  A    between atoms: N_10  and  C_11 
REMARK    2  A    between atoms: C_11  and  C_12 
REMARK    3  A    between atoms: C_12  and  C_13 
REMARK    4  A    between atoms: N_18  and  C_19 
ROOT
HETATM    1  C   UNL     1       1.010   0.017   0.036  1.00  0.00     0.011 C 
HETATM    2  C   UNL     1       2.536  -0.040  -0.091  1.00  0.00    -0.000 C 
HETATM    3  C   UNL     1       3.061   0.990  -1.104  1.00  0.00     0.007 C 
HETATM    4  C   UNL     1       2.756   0.595  -2.551  1.00  0.00     0.020 C 
HETATM    5  C   UNL     1       3.211  -0.834  -2.847  1.00  0.00     0.127 C 
HETATM    6  N   UNL     1       2.652  -1.764  -1.863  1.00  0.00    -0.334 N 
HETATM    7  C   UNL     1       3.009  -1.449  -0.479  1.00  0.00     0.131 C 
HETATM    8  C   UNL     1       1.785  -2.813  -2.089  1.00  0.00     0.318 C 
HETATM    9  O   UNL     1       1.268  -3.456  -1.176  1.00  0.00    -0.247 OA
HETATM   10  N   UNL     1       1.494  -3.101  -3.388  1.00  0.00    -0.343 N 
HETATM   11  H   UNL     1       1.878  -2.566  -4.147  1.00  0.00     0.164 HD
ENDROOT
BRANCH  10  12
HETATM   12  C   UNL     1       0.574  -4.166  -3.757  1.00  0.00     0.132 C 
BRANCH  12  13
HETATM   13  C   UNL     1      -0.893  -3.735  -3.675  1.00  0.00     0.096 C 
BRANCH  13  14
HETATM   14  C   UNL     1      -1.189  -2.640  -4.655  1.00  0.00     0.088 A 
HETATM   15  N   UNL     1      -1.038  -2.750  -5.962  1.00  0.00    -0.354 N 
HETATM   16  C   UNL     1      -1.414  -1.546  -6.492  1.00  0.00     0.107 A 
ATOM     17  HN  UNL     1      -0.707  -3.568  -6.474  1.00  0.00     0.166 HD
HETATM   18  C   UNL     1      -1.791  -0.680  -5.498  1.00  0.00     0.114 A 
HETATM   19  N   UNL     1      -1.631  -1.379  -4.327  1.00  0.00    -0.289 N 
BRANCH  19  20
HETATM   20  C   UNL     1      -1.906  -0.858  -3.002  1.00  0.00     0.465 C 
HETATM   21  F   UNL     1      -1.732   0.491  -2.959  1.00  0.00    -0.191 F 
HETATM   22  F   UNL     1      -3.197  -1.094  -2.653  1.00  0.00    -0.191 F 
ENDBRANCH  19  20
ENDBRANCH  13  14
ENDBRANCH  12  13
ENDBRANCH  10  12
TORSDOF 4
