REMARK  4 active torsions:
REMARK  status: ('A' for Active; 'I' for Inactive)
REMARK    1  A    between atoms: C_5  and  N_6 
REMARK       I    between atoms: N_6  and  C_7 
REMARK       I    between atoms: C_7  and  N_9 
REMARK    2  A    between atoms: N_9  and  C_10 
REMARK    3  A    between atoms: N_13  and  C_14 
REMARK    4  A    between atoms: C_14  and  C_15 
ROOT
HETATM    1  N   UNL     1       6.497   0.439  -1.499  1.00  0.00    -0.295 N 
HETATM    2  C   UNL     1       7.297   1.541  -1.343  1.00  0.00     0.322 C 
HETATM    3  O   UNL     1       6.788   2.648  -1.205  1.00  0.00    -0.247 OA
HETATM    4  N   UNL     1       8.630   1.310  -1.378  1.00  0.00    -0.338 N 
HETATM    5  H   UNL     1       5.510   0.658  -1.516  1.00  0.00     0.172 HD
HETATM    6  H   UNL     1       8.857   0.318  -1.368  1.00  0.00     0.164 HD
ENDROOT
BRANCH   4   7
HETATM    7  C   UNL     1       9.735   2.209  -1.090  1.00  0.00     0.089 C 
HETATM    8  C   UNL     1       9.953   2.371   0.416  1.00  0.00     0.055 C 
HETATM    9  C   UNL     1       9.345   3.653   0.968  1.00  0.00     0.274 C 
HETATM   10  N   UNL     1       9.803   4.850   0.252  1.00  0.00     0.089 N 
HETATM   11  C   UNL     1       9.304   4.765  -1.135  1.00  0.00     0.274 C 
HETATM   12  C   UNL     1       9.746   3.512  -1.902  1.00  0.00     0.055 C 
BRANCH  10  13
HETATM   13  C   UNL     1      11.256   5.090   0.303  1.00  0.00     0.279 C 
BRANCH  13  14
HETATM   14  C   UNL     1      11.869   5.166   1.710  1.00  0.00     0.040 C 
HETATM   15  C   UNL     1      11.396   6.330   2.572  1.00  0.00     0.035 C 
HETATM   16  C   UNL     1      12.670   7.027   3.014  1.00  0.00     0.168 C 
HETATM   17  O   UNL     1      13.730   6.087   2.822  1.00  0.00    -0.391 OA
HETATM   18  C   UNL     1      13.381   5.339   1.654  1.00  0.00     0.173 C 
ENDBRANCH  13  14
ENDBRANCH  10  13
ENDBRANCH   4   7
BRANCH   1  19
HETATM   19  C   UNL     1       6.883  -0.898  -1.682  1.00  0.00     0.108 A 
HETATM   20  C   UNL     1       5.906  -1.854  -1.924  1.00  0.00     0.049 A 
HETATM   21  C   UNL     1       6.298  -3.167  -2.192  1.00  0.00     0.012 A 
HETATM   22  C   UNL     1       7.655  -3.496  -2.211  1.00  0.00    -0.046 A 
HETATM   23  C   UNL     1       8.146  -4.868  -2.545  1.00  0.00     0.049 C 
HETATM   24  C   UNL     1       8.554  -2.490  -1.907  1.00  0.00     0.096 A 
HETATM   25  N   UNL     1       8.198  -1.218  -1.644  1.00  0.00    -0.352 N 
ATOM     26  HN  UNL     1       8.901  -0.513  -1.422  1.00  0.00     0.166 HD
ENDBRANCH   1  19
TORSDOF 4
