REMARK  7 active torsions:
REMARK  status: ('A' for Active; 'I' for Inactive)
REMARK    1  A    between atoms: C_2  and  N_3 
REMARK    2  A    between atoms: C_2  and  C_6 
REMARK    3  A    between atoms: N_3  and  C_4 
REMARK    4  A    between atoms: N_15  and  C_16 
REMARK    5  A    between atoms: C_16  and  C_17 
REMARK    6  A    between atoms: C_17  and  O_18 
REMARK    7  A    between atoms: O_18  and  C_19 
ROOT
HETATM    1  C   UNL     1       2.920   1.332  -0.266  1.00  0.00     0.107 A 
HETATM    2  N   UNL     1       2.177   2.377   0.048  1.00  0.00    -0.342 N 
ATOM      3  HN  UNL     1       1.238   2.363   0.445  1.00  0.00     0.167 HD
HETATM    4  C   UNL     1       2.918   3.482  -0.266  1.00  0.00     0.060 A 
HETATM    5  C   UNL     1       2.574   4.839  -0.122  1.00  0.00     0.032 A 
HETATM    6  C   UNL     1       3.486   5.825  -0.509  1.00  0.00     0.002 A 
HETATM    7  C   UNL     1       4.717   5.466  -1.040  1.00  0.00     0.002 A 
HETATM    8  C   UNL     1       5.067   4.122  -1.194  1.00  0.00     0.032 A 
HETATM    9  C   UNL     1       4.158   3.125  -0.794  1.00  0.00     0.062 A 
HETATM   10  N   UNL     1       4.155   1.735  -0.771  1.00  0.00    -0.331 N 
ENDROOT
BRANCH  10  11
HETATM   11  C   UNL     1       5.217   0.808  -1.164  1.00  0.00     0.157 C 
BRANCH  11  12
HETATM   12  C   UNL     1       6.514   1.457  -1.628  1.00  0.00     0.196 C 
BRANCH  12  13
HETATM   13  O   UNL     1       7.545   0.528  -1.962  1.00  0.00    -0.349 OA
BRANCH  13  14
HETATM   14  C   UNL     1       8.715   1.118  -2.409  1.00  0.00     0.074 A 
HETATM   15  C   UNL     1       8.929   2.503  -2.505  1.00  0.00     0.037 A 
HETATM   16  C   UNL     1      10.139   3.019  -2.974  1.00  0.00     0.003 A 
HETATM   17  C   UNL     1      11.158   2.156  -3.349  1.00  0.00     0.001 A 
HETATM   18  C   UNL     1      10.966   0.778  -3.256  1.00  0.00     0.009 A 
HETATM   19  C   UNL     1       9.750   0.247  -2.788  1.00  0.00    -0.029 A 
HETATM   20  C   UNL     1       9.569  -1.243  -2.722  1.00  0.00     0.051 C 
ENDBRANCH  13  14
ENDBRANCH  12  13
ENDBRANCH  11  12
ENDBRANCH  10  11
BRANCH   1  21
HETATM   21  C   UNL     1       2.478  -0.099  -0.093  1.00  0.00     0.147 C 
HETATM   22  C   UNL     1       2.829  -0.607   1.303  1.00  0.00     0.040 C 
BRANCH  21  23
HETATM   23  N   UNL     1       1.035  -0.132  -0.275  1.00  0.00    -0.357 N 
HETATM   24  H   UNL     1       0.519   0.679   0.048  1.00  0.00     0.162 HD
BRANCH  23  25
HETATM   25  C   UNL     1       0.373  -1.233  -0.735  1.00  0.00     0.349 C 
HETATM   26  O   UNL     1       0.899  -2.276  -1.097  1.00  0.00    -0.284 OA
ENDBRANCH  23  25
ENDBRANCH  21  23
ENDBRANCH   1  21
TORSDOF 7
