REMARK  5 active torsions:
REMARK  status: ('A' for Active; 'I' for Inactive)
REMARK    1  A    between atoms: C_2  and  C_3 
REMARK    2  A    between atoms: C_2  and  N_10 
REMARK    3  A    between atoms: C_3  and  N_4 
REMARK       I    between atoms: N_10  and  C_11 
REMARK    4  A    between atoms: C_11  and  C_13 
REMARK    5  A    between atoms: C_13  and  N_14 
ROOT
HETATM    1  N   UNL     1       3.111  -0.795   1.030  1.00  0.00    -0.354 N 
HETATM    2  C   UNL     1       4.398  -1.253   0.850  1.00  0.00     0.235 C 
HETATM    3  O   UNL     1       5.056  -1.011  -0.159  1.00  0.00    -0.272 OA
HETATM    4  H   UNL     1       2.527  -1.321   1.682  1.00  0.00     0.163 HD
ENDROOT
BRANCH   1   5
HETATM    5  C   UNL     1       2.464   0.055   0.027  1.00  0.00     0.098 C 
HETATM    6  C   UNL     1       0.993   0.252   0.402  1.00  0.00     0.034 C 
BRANCH   5   7
HETATM    7  C   UNL     1       3.211   1.401  -0.098  1.00  0.00     0.153 C 
BRANCH   7   8
HETATM    8  N   UNL     1       2.739   2.251  -1.166  1.00  0.00    -0.350 N 
HETATM    9  C   UNL     1       1.897   3.322  -1.031  1.00  0.00     0.108 A 
HETATM   10  C   UNL     1       1.817   3.868  -2.291  1.00  0.00     0.106 A 
HETATM   11  N   UNL     1       2.593   3.164  -3.175  1.00  0.00    -0.361 N 
HETATM   12  C   UNL     1       3.148   2.206  -2.466  1.00  0.00     0.182 A 
ATOM     13  HN  UNL     1       2.714   3.345  -4.171  1.00  0.00     0.166 HD
ENDBRANCH   7   8
ENDBRANCH   5   7
ENDBRANCH   1   5
BRANCH   2  14
HETATM   14  C   UNL     1       4.913  -2.142   1.968  1.00  0.00     0.228 C 
BRANCH  14  15
HETATM   15  N   UNL     1       4.708  -3.540   1.649  1.00  0.00    -0.343 N 
HETATM   16  C   UNL     1       5.386  -4.186   0.557  1.00  0.00     0.127 C 
HETATM   17  C   UNL     1       4.871  -5.614   0.564  1.00  0.00     0.029 C 
HETATM   18  C   UNL     1       3.939  -5.726   1.767  1.00  0.00     0.104 C 
HETATM   19  C   UNL     1       3.697  -4.304   2.185  1.00  0.00     0.220 C 
HETATM   20  O   UNL     1       2.809  -3.906   2.920  1.00  0.00    -0.273 OA
ENDBRANCH  14  15
ENDBRANCH   2  14
TORSDOF 5
