REMARK  4 active torsions:
REMARK  status: ('A' for Active; 'I' for Inactive)
REMARK    1  A    between atoms: C_2  and  C_4 
REMARK       I    between atoms: N_6  and  C_10 
REMARK       I    between atoms: C_10  and  N_12 
REMARK    2  A    between atoms: N_12  and  C_13 
REMARK    3  A    between atoms: C_13  and  C_14 
REMARK    4  A    between atoms: C_14  and  C_15 
ROOT
HETATM    1  C   UNL     1       2.911   0.339   1.460  1.00  0.00     0.068 C 
HETATM    2  C   UNL     1       3.658   1.692   1.513  1.00  0.00     0.143 C 
HETATM    3  N   UNL     1       4.844   1.750   0.640  1.00  0.00    -0.332 N 
HETATM    4  C   UNL     1       5.899   0.780   0.968  1.00  0.00     0.137 C 
HETATM    5  C   UNL     1       5.430  -0.672   0.893  1.00  0.00     0.094 C 
HETATM    6  S   UNL     1       4.054  -0.989   2.046  1.00  0.00    -0.161 SA
HETATM    7  C   UNL     1       5.142   2.719  -0.302  1.00  0.00     0.318 C 
HETATM    8  O   UNL     1       6.210   2.746  -0.911  1.00  0.00    -0.247 OA
HETATM    9  N   UNL     1       4.181   3.657  -0.546  1.00  0.00    -0.343 N 
HETATM   10  H   UNL     1       3.287   3.608  -0.096  1.00  0.00     0.164 HD
ENDROOT
BRANCH   9  11
HETATM   11  C   UNL     1       4.389   4.707  -1.527  1.00  0.00     0.129 C 
BRANCH  11  12
HETATM   12  C   UNL     1       3.206   5.676  -1.628  1.00  0.00     0.060 C 
BRANCH  12  13
HETATM   13  C   UNL     1       2.931   6.416  -0.344  1.00  0.00    -0.041 A 
HETATM   14  C   UNL     1       3.871   7.282   0.215  1.00  0.00     0.010 A 
HETATM   15  C   UNL     1       3.605   7.895   1.437  1.00  0.00     0.025 A 
HETATM   16  C   UNL     1       2.397   7.632   2.072  1.00  0.00     0.005 A 
HETATM   17  C   UNL     1       2.097   8.213   3.420  1.00  0.00     0.068 C 
HETATM   18  N   UNL     1       1.457   6.817   1.537  1.00  0.00    -0.369 N 
HETATM   19  C   UNL     1       1.740   6.239   0.348  1.00  0.00     0.095 A 
ATOM     20  HN  UNL     1       0.571   6.646   2.012  1.00  0.00     0.165 HD
ENDBRANCH  12  13
ENDBRANCH  11  12
ENDBRANCH   9  11
BRANCH   1  21
HETATM   21  C   UNL     1       2.278  -0.007   0.078  1.00  0.00    -0.007 C 
HETATM   22  C   UNL     1       1.518  -1.343   0.107  1.00  0.00     0.011 C 
HETATM   23  C   UNL     1       1.309   1.077  -0.408  1.00  0.00     0.011 C 
ENDBRANCH   1  21
TORSDOF 4
