REMARK  6 active torsions:
REMARK  status: ('A' for Active; 'I' for Inactive)
REMARK    1  A    between atoms: N_7  and  C_8 
REMARK    2  A    between atoms: C_8  and  C_9 
REMARK    3  A    between atoms: C_9  and  C_10 
REMARK    4  A    between atoms: C_10  and  N_11 
REMARK       I    between atoms: N_11  and  C_12 
REMARK    5  A    between atoms: C_12  and  C_14 
REMARK    6  A    between atoms: C_14  and  N_15 
ROOT
HETATM    1  N   UNL     1       2.564  -6.008  -3.015  1.00  0.00    -0.360 N 
HETATM    2  C   UNL     1       1.314  -6.554  -3.214  1.00  0.00     0.237 C 
HETATM    3  O   UNL     1       0.612  -6.291  -4.189  1.00  0.00    -0.272 OA
HETATM    4  H   UNL     1       3.039  -6.170  -2.134  1.00  0.00     0.162 HD
ENDROOT
BRANCH   1   5
HETATM    5  C   UNL     1       3.083  -4.978  -3.890  1.00  0.00     0.124 C 
BRANCH   5   6
HETATM    6  C   UNL     1       2.556  -3.583  -3.554  1.00  0.00     0.050 C 
BRANCH   6   7
HETATM    7  C   UNL     1       3.023  -3.095  -2.173  1.00  0.00     0.274 C 
BRANCH   7   8
HETATM    8  N   UNL     1       2.544  -1.742  -1.823  1.00  0.00     0.089 N 
HETATM    9  C   UNL     1       3.058  -0.715  -2.745  1.00  0.00     0.276 C 
HETATM   10  C   UNL     1       2.554   0.693  -2.391  1.00  0.00     0.010 C 
HETATM   11  C   UNL     1       2.894   1.040  -0.939  1.00  0.00     0.012 C 
HETATM   12  C   UNL     1       3.141   1.723  -3.355  1.00  0.00     0.011 C 
HETATM   13  C   UNL     1       2.405  -0.050   0.024  1.00  0.00     0.010 C 
HETATM   14  C   UNL     1       0.880  -0.041   0.169  1.00  0.00     0.011 C 
HETATM   15  C   UNL     1       2.922  -1.426  -0.433  1.00  0.00     0.276 C 
ENDBRANCH   7   8
ENDBRANCH   6   7
ENDBRANCH   5   6
ENDBRANCH   1   5
BRANCH   2  16
HETATM   16  C   UNL     1       0.847  -7.517  -2.124  1.00  0.00     0.255 C 
BRANCH  16  17
HETATM   17  N   UNL     1      -0.420  -7.069  -1.564  1.00  0.00    -0.246 N 
HETATM   18  N   UNL     1      -1.518  -7.133  -2.444  1.00  0.00    -0.261 N 
HETATM   19  C   UNL     1      -2.720  -6.552  -2.150  1.00  0.00     0.260 C 
HETATM   20  H   UNL     1      -1.322  -7.252  -3.438  1.00  0.00     0.190 HD
HETATM   21  O   UNL     1      -3.629  -6.446  -2.965  1.00  0.00    -0.267 OA
HETATM   22  C   UNL     1      -2.886  -6.059  -0.774  1.00  0.00     0.081 C 
HETATM   23  C   UNL     1      -1.853  -6.019   0.074  1.00  0.00     0.081 C 
HETATM   24  C   UNL     1      -0.505  -6.472  -0.326  1.00  0.00     0.262 C 
HETATM   25  O   UNL     1       0.444  -6.323   0.438  1.00  0.00    -0.267 OA
ENDBRANCH  16  17
ENDBRANCH   2  16
TORSDOF 6
