REMARK  5 active torsions:
REMARK  status: ('A' for Active; 'I' for Inactive)
REMARK    1  A    between atoms: N_7  and  C_8 
REMARK    2  A    between atoms: C_8  and  C_9 
REMARK    3  A    between atoms: C_9  and  N_10 
REMARK       I    between atoms: N_10  and  C_11 
REMARK    4  A    between atoms: C_11  and  C_13 
REMARK    5  A    between atoms: C_13  and  N_14 
ROOT
HETATM    1  N   UNL     1       2.388  -1.016   2.620  1.00  0.00    -0.358 N 
HETATM    2  C   UNL     1       2.762  -0.676   3.904  1.00  0.00     0.235 C 
HETATM    3  O   UNL     1       3.506  -1.374   4.593  1.00  0.00    -0.272 OA
HETATM    4  H   UNL     1       2.123  -0.264   1.984  1.00  0.00     0.162 HD
ENDROOT
BRANCH   1   5
HETATM    5  C   UNL     1       2.875  -2.251   2.033  1.00  0.00     0.152 C 
BRANCH   5   6
HETATM    6  C   UNL     1       2.446  -2.455   0.567  1.00  0.00     0.292 C 
BRANCH   6   7
HETATM    7  N   UNL     1       2.867  -1.382  -0.359  1.00  0.00     0.094 N 
HETATM    8  C   UNL     1       2.234  -1.510  -1.693  1.00  0.00     0.219 C 
HETATM    9  C   UNL     1       2.494  -2.839  -2.425  1.00  0.00     0.043 C 
HETATM   10  C   UNL     1       2.631  -0.318  -2.587  1.00  0.00     0.035 C 
HETATM   11  C   UNL     1       4.142  -0.152  -2.697  1.00  0.00     0.004 C 
HETATM   12  C   UNL     1       4.760  -0.083  -1.310  1.00  0.00     0.030 C 
HETATM   13  C   UNL     1       4.331  -1.262  -0.439  1.00  0.00     0.273 C 
ENDBRANCH   6   7
ENDBRANCH   5   6
ENDBRANCH   1   5
BRANCH   2  14
HETATM   14  C   UNL     1       2.204   0.649   4.415  1.00  0.00     0.234 C 
BRANCH  14  15
HETATM   15  N   UNL     1       3.118   1.765   4.194  1.00  0.00    -0.316 N 
HETATM   16  C   UNL     1       4.078   2.066   5.143  1.00  0.00     0.095 A 
HETATM   17  C   UNL     1       4.878   3.131   5.001  1.00  0.00     0.017 A 
HETATM   18  C   UNL     1       4.738   3.988   3.850  1.00  0.00     0.007 A 
HETATM   19  C   UNL     1       3.846   3.701   2.894  1.00  0.00     0.074 A 
HETATM   20  C   UNL     1       2.975   2.499   3.021  1.00  0.00     0.247 A 
HETATM   21  O   UNL     1       2.179   2.223   2.124  1.00  0.00    -0.268 OA
ENDBRANCH  14  15
ENDBRANCH   2  14
TORSDOF 5
