REMARK  5 active torsions:
REMARK  status: ('A' for Active; 'I' for Inactive)
REMARK    1  A    between atoms: C_2  and  C_4 
REMARK    2  A    between atoms: C_4  and  N_5 
REMARK    3  A    between atoms: C_10  and  C_11 
REMARK    4  A    between atoms: C_11  and  C_12 
REMARK       I    between atoms: C_12  and  N_14 
REMARK    5  A    between atoms: N_14  and  C_15 
ROOT
HETATM    1  N   UNL     1       4.700   0.685   1.098  1.00  0.00    -0.296 N 
HETATM    2  N   UNL     1       5.179   1.829   0.582  1.00  0.00    -0.302 N 
ATOM      3  HN  UNL     1       4.645   2.618   0.218  1.00  0.00     0.186 HD
HETATM    4  C   UNL     1       6.505   1.708   0.650  1.00  0.00     0.030 A 
HETATM    5  C   UNL     1       7.360   2.823   0.177  1.00  0.00     0.070 C 
HETATM    6  C   UNL     1       6.891   0.451   1.195  1.00  0.00    -0.002 A 
HETATM    7  C   UNL     1       5.689  -0.177   1.506  1.00  0.00     0.033 A 
HETATM    8  C   UNL     1       5.401  -1.476   2.168  1.00  0.00     0.070 C 
ENDROOT
BRANCH   6   9
HETATM    9  C   UNL     1       8.282  -0.038   1.459  1.00  0.00     0.145 C 
BRANCH   9  10
HETATM   10  C   UNL     1       9.227  -0.108   0.265  1.00  0.00     0.222 C 
HETATM   11  O   UNL     1      10.443  -0.003   0.427  1.00  0.00    -0.273 OA
HETATM   12  N   UNL     1       8.676  -0.407  -0.961  1.00  0.00    -0.356 N 
HETATM   13  H   UNL     1       7.677  -0.283  -1.078  1.00  0.00     0.162 HD
BRANCH  12  14
HETATM   14  C   UNL     1       9.500  -0.528  -2.151  1.00  0.00     0.084 C 
HETATM   15  C   UNL     1       9.794   0.815  -2.830  1.00  0.00     0.025 C 
HETATM   16  C   UNL     1       9.751   0.552  -4.338  1.00  0.00     0.002 C 
HETATM   17  C   UNL     1       9.571  -0.951  -4.498  1.00  0.00     0.002 C 
HETATM   18  C   UNL     1       8.837  -1.371  -3.236  1.00  0.00     0.025 C 
ENDBRANCH  12  14
ENDBRANCH   9  10
ENDBRANCH   6   9
BRANCH   1  19
HETATM   19  C   UNL     1       3.256   0.506   1.161  1.00  0.00     0.152 C 
BRANCH  19  20
HETATM   20  C   UNL     1       2.562   0.637  -0.208  1.00  0.00    -0.003 C 
HETATM   21  C   UNL     1       3.032  -0.441  -1.187  1.00  0.00     0.011 C 
HETATM   22  C   UNL     1       1.044   0.567  -0.043  1.00  0.00     0.011 C 
ENDBRANCH  19  20
ENDBRANCH   1  19
TORSDOF 5
