REMARK  6 active torsions:
REMARK  status: ('A' for Active; 'I' for Inactive)
REMARK    1  A    between atoms: C_5  and  O_6 
REMARK    2  A    between atoms: O_6  and  C_7 
REMARK    3  A    between atoms: C_7  and  C_8 
REMARK    4  A    between atoms: C_8  and  O_9 
REMARK    5  A    between atoms: C_8  and  C_10 
REMARK    6  A    between atoms: C_10  and  N_11 
ROOT
HETATM    1  N   UNL     1      11.080  -1.708  -1.508  1.00  0.00    -0.333 N 
HETATM    2  C   UNL     1      12.107  -1.569  -0.606  1.00  0.00     0.185 A 
HETATM    3  N   UNL     1      13.193  -1.099  -1.178  1.00  0.00    -0.336 N 
ATOM      4  HN  UNL     1      14.093  -0.903  -0.740  1.00  0.00     0.168 HD
HETATM    5  C   UNL     1      12.849  -0.931  -2.486  1.00  0.00     0.145 A 
HETATM    6  N   UNL     1      13.643  -0.408  -3.477  1.00  0.00    -0.287 N 
HETATM    7  C   UNL     1      15.019  -0.029  -3.234  1.00  0.00     0.163 C 
HETATM    8  C   UNL     1      13.104  -0.204  -4.750  1.00  0.00     0.332 C 
HETATM    9  O   UNL     1      13.768   0.320  -5.648  1.00  0.00    -0.246 OA
HETATM   10  N   UNL     1      11.773  -0.611  -4.957  1.00  0.00    -0.269 N 
HETATM   11  C   UNL     1      11.164  -0.361  -6.248  1.00  0.00     0.164 C 
HETATM   12  C   UNL     1      10.972  -1.260  -4.015  1.00  0.00     0.282 C 
HETATM   13  O   UNL     1       9.848  -1.694  -4.254  1.00  0.00    -0.265 OA
HETATM   14  C   UNL     1      11.571  -1.329  -2.726  1.00  0.00     0.149 A 
ENDROOT
BRANCH   1  15
HETATM   15  C   UNL     1       9.744  -2.151  -1.187  1.00  0.00     0.164 C 
BRANCH  15  16
HETATM   16  C   UNL     1       8.791  -1.031  -0.761  1.00  0.00     0.160 C 
BRANCH  16  17
HETATM   17  C   UNL     1       8.496  -0.006  -1.874  1.00  0.00     0.209 C 
BRANCH  17  18
HETATM   18  O   UNL     1       7.609   0.982  -1.339  1.00  0.00    -0.349 OA
BRANCH  18  19
HETATM   19  C   UNL     1       7.256   2.014  -2.164  1.00  0.00     0.068 A 
HETATM   20  C   UNL     1       6.056   2.644  -1.830  1.00  0.00     0.037 A 
HETATM   21  C   UNL     1       5.593   3.736  -2.567  1.00  0.00     0.009 A 
HETATM   22  C   UNL     1       6.337   4.226  -3.643  1.00  0.00    -0.062 A 
HETATM   23  C   UNL     1       5.875   5.424  -4.419  1.00  0.00     0.048 C 
HETATM   24  C   UNL     1       7.547   3.601  -3.969  1.00  0.00     0.009 A 
HETATM   25  C   UNL     1       8.004   2.499  -3.236  1.00  0.00     0.037 A 
ENDBRANCH  18  19
ENDBRANCH  17  18
ENDBRANCH  16  17
BRANCH  16  26
HETATM   26  O   UNL     1       7.583  -1.657  -0.297  1.00  0.00    -0.392 OA
HETATM   27  H   UNL     1       6.901  -1.554  -0.984  1.00  0.00     0.210 HD
ENDBRANCH  16  26
ENDBRANCH  15  16
ENDBRANCH   1  15
TORSDOF 6
