REMARK  6 active torsions:
REMARK  status: ('A' for Active; 'I' for Inactive)
REMARK    1  A    between atoms: C_2  and  C_3 
REMARK       I    between atoms: C_2  and  N_16 
REMARK    2  A    between atoms: C_3  and  C_4 
REMARK    3  A    between atoms: C_4  and  N_5 
REMARK    4  A    between atoms: N_16  and  C_17 
REMARK    5  A    between atoms: C_17  and  C_18 
REMARK    6  A    between atoms: C_18  and  C_19 
ROOT
HETATM    1  O   UNL     1       1.130  -0.443  -0.361  1.00  0.00    -0.274 OA
HETATM    2  C   UNL     1       2.224   0.021  -0.061  1.00  0.00     0.219 C 
HETATM    3  N   UNL     1       2.887  -0.307   1.104  1.00  0.00    -0.361 N 
HETATM    4  H   UNL     1       3.741   0.183   1.341  1.00  0.00     0.162 HD
ENDROOT
BRANCH   2   5
HETATM    5  C   UNL     1       2.994   0.966  -0.960  1.00  0.00     0.123 C 
BRANCH   5   6
HETATM    6  C   UNL     1       2.044   1.743  -1.866  1.00  0.00     0.144 C 
BRANCH   6   7
HETATM    7  N   UNL     1       2.757   2.657  -2.745  1.00  0.00    -0.287 N 
HETATM    8  C   UNL     1       3.050   3.968  -2.432  1.00  0.00     0.231 C 
HETATM    9  O   UNL     1       2.893   4.532  -1.364  1.00  0.00    -0.273 OA
HETATM   10  C   UNL     1       3.536   4.592  -3.715  1.00  0.00     0.091 C 
HETATM   11  C   UNL     1       4.459   5.793  -3.691  1.00  0.00     0.015 C 
HETATM   12  C   UNL     1       4.235   3.397  -4.342  1.00  0.00     0.091 C 
HETATM   13  C   UNL     1       4.891   6.113  -5.133  1.00  0.00     0.001 C 
HETATM   14  C   UNL     1       5.475   4.895  -5.869  1.00  0.00     0.001 C 
HETATM   15  C   UNL     1       4.560   3.662  -5.796  1.00  0.00     0.015 C 
HETATM   16  C   UNL     1       3.296   2.287  -3.958  1.00  0.00     0.231 C 
HETATM   17  O   UNL     1       3.148   1.234  -4.552  1.00  0.00    -0.273 OA
ENDBRANCH   6   7
ENDBRANCH   5   6
ENDBRANCH   2   5
BRANCH   3  18
HETATM   18  C   UNL     1       2.278  -1.191   2.085  1.00  0.00     0.127 C 
BRANCH  18  19
HETATM   19  C   UNL     1       3.148  -1.361   3.330  1.00  0.00     0.059 C 
BRANCH  19  20
HETATM   20  C   UNL     1       2.530  -2.279   4.348  1.00  0.00    -0.041 A 
HETATM   21  C   UNL     1       2.805  -3.650   4.356  1.00  0.00     0.010 A 
HETATM   22  C   UNL     1       2.208  -4.468   5.309  1.00  0.00     0.018 A 
HETATM   23  C   UNL     1       1.348  -3.889   6.227  1.00  0.00     0.087 A 
HETATM   24  N   UNL     1       1.054  -2.573   6.250  1.00  0.00    -0.375 N 
HETATM   25  C   UNL     1       1.648  -1.801   5.311  1.00  0.00     0.094 A 
ATOM     26  HN  UNL     1       0.415  -2.179   6.941  1.00  0.00     0.164 HD
ENDBRANCH  19  20
ENDBRANCH  18  19
ENDBRANCH   3  18
TORSDOF 6
