REMARK  2 active torsions:
REMARK  status: ('A' for Active; 'I' for Inactive)
REMARK    1  A    between atoms: C_5  and  C_7 
REMARK       I    between atoms: C_7  and  N_9 
REMARK    2  A    between atoms: N_9  and  C_10 
ROOT
HETATM    1  C   UNL     1       5.313   1.155   0.024  1.00  0.00     0.251 C 
HETATM    2  O   UNL     1       4.886   1.940  -0.819  1.00  0.00    -0.270 OA
HETATM    3  N   UNL     1       6.582   0.600   0.028  1.00  0.00    -0.323 N 
HETATM    4  H   UNL     1       6.739  -0.163   0.682  1.00  0.00     0.169 HD
ENDROOT
BRANCH   3   5
HETATM    5  C   UNL     1       7.638   0.918  -0.864  1.00  0.00     0.059 A 
HETATM    6  C   UNL     1       7.614   2.072  -1.646  1.00  0.00     0.048 A 
HETATM    7  C   UNL     1       8.655   2.310  -2.521  1.00  0.00     0.090 A 
HETATM    8  N   UNL     1       9.703   1.478  -2.681  1.00  0.00    -0.368 N 
HETATM    9  C   UNL     1       9.737   0.358  -1.915  1.00  0.00     0.029 A 
ATOM     10  HN  UNL     1      10.443   1.682  -3.353  1.00  0.00     0.165 HD
HETATM   11  C   UNL     1      10.888  -0.566  -2.190  1.00  0.00     0.070 C 
HETATM   12  C   UNL     1       8.745   0.058  -0.971  1.00  0.00     0.083 A 
HETATM   13 CL   UNL     1       8.849  -1.359   0.018  1.00  0.00    -0.080 Cl
ENDBRANCH   3   5
BRANCH   1  14
HETATM   14  C   UNL     1       4.415   0.626   1.160  1.00  0.00     0.214 C 
HETATM   15  C   UNL     1       3.295   1.598   1.503  1.00  0.00     0.044 C 
HETATM   16  C   UNL     1       3.773   2.314   2.751  1.00  0.00     0.034 C 
HETATM   17  C   UNL     1       5.125   1.692   3.062  1.00  0.00     0.118 C 
HETATM   18  C   UNL     1       5.368   1.483   4.544  1.00  0.00     0.039 C 
HETATM   19  O   UNL     1       5.152   0.433   2.374  1.00  0.00    -0.372 OA
ENDBRANCH   1  14
TORSDOF 2
