REMARK  6 active torsions:
REMARK  status: ('A' for Active; 'I' for Inactive)
REMARK    1  A    between atoms: C_2  and  C_3 
REMARK    2  A    between atoms: C_3  and  N_4 
REMARK       I    between atoms: N_4  and  C_5 
REMARK    3  A    between atoms: C_5  and  C_7 
REMARK    4  A    between atoms: C_7  and  C_8 
REMARK    5  A    between atoms: C_11  and  N_12 
REMARK       I    between atoms: N_12  and  C_13 
REMARK    6  A    between atoms: C_13  and  C_15 
ROOT
HETATM    1  C   UNL     1       7.333  -4.145   0.573  1.00  0.00     0.026 A 
HETATM    2  C   UNL     1       8.549  -4.493   1.132  1.00  0.00     0.078 A 
HETATM    3  S   UNL     1       8.712  -6.209   1.159  1.00  0.00    -0.064 SA
HETATM    4  C   UNL     1       7.154  -6.348   0.486  1.00  0.00     0.151 A 
HETATM    5  N   UNL     1       6.553  -5.225   0.196  1.00  0.00    -0.339 N 
ATOM      6  HN  UNL     1       5.637  -5.154  -0.247  1.00  0.00     0.168 HD
ENDROOT
BRANCH   1   7
HETATM    7  C   UNL     1       6.766  -2.774   0.375  1.00  0.00     0.160 C 
BRANCH   7   8
HETATM    8  C   UNL     1       6.598  -2.381  -1.086  1.00  0.00     0.223 C 
HETATM    9  N   UNL     1       6.159  -3.373  -1.933  1.00  0.00    -0.361 N 
HETATM   10  H   UNL     1       6.022  -4.307  -1.541  1.00  0.00     0.162 HD
HETATM   11  O   UNL     1       6.781  -1.222  -1.458  1.00  0.00    -0.273 OA
BRANCH   9  12
HETATM   12  C   UNL     1       5.979  -3.176  -3.354  1.00  0.00     0.122 C 
BRANCH  12  13
HETATM   13  C   UNL     1       7.291  -3.269  -4.134  1.00  0.00     0.015 C 
HETATM   14  C   UNL     1       7.928  -4.649  -4.055  1.00  0.00     0.006 C 
ENDBRANCH  12  13
ENDBRANCH   9  12
ENDBRANCH   7   8
ENDBRANCH   1   7
BRANCH   4  15
HETATM   15  N   UNL     1       6.674  -7.621   0.343  1.00  0.00    -0.307 N 
HETATM   16  C   UNL     1       5.387  -7.828  -0.102  1.00  0.00     0.227 C 
HETATM   17  O   UNL     1       4.599  -6.969  -0.484  1.00  0.00    -0.273 OA
HETATM   18  H   UNL     1       7.268  -8.384   0.619  1.00  0.00     0.171 HD
BRANCH  16  19
HETATM   19  C   UNL     1       4.895  -9.233  -0.118  1.00  0.00     0.078 A 
HETATM   20  C   UNL     1       5.652 -10.482   0.243  1.00  0.00     0.015 A 
HETATM   21  C   UNL     1       5.394 -10.162  -1.201  1.00  0.00     0.015 A 
ENDBRANCH  16  19
ENDBRANCH   4  15
TORSDOF 6
