REMARK  5 active torsions:
REMARK  status: ('A' for Active; 'I' for Inactive)
REMARK    1  A    between atoms: C_7  and  C_9 
REMARK    2  A    between atoms: C_9  and  O_10 
REMARK    3  A    between atoms: C_9  and  C_11 
REMARK    4  A    between atoms: C_11  and  N_12 
REMARK    5  A    between atoms: C_15  and  C_20 
ROOT
HETATM    1  N   UNL     1       3.700  -3.943   0.856  1.00  0.00    -0.255 N 
HETATM    2  N   UNL     1       4.433  -4.062   2.026  1.00  0.00    -0.291 N 
ATOM      3  HN  UNL     1       5.451  -3.994   2.016  1.00  0.00     0.187 HD
HETATM    4  C   UNL     1       3.785  -4.263   3.141  1.00  0.00     0.132 A 
HETATM    5  C   UNL     1       2.309  -4.392   3.209  1.00  0.00     0.041 A 
HETATM    6  C   UNL     1       1.624  -4.267   2.073  1.00  0.00     0.078 A 
HETATM    7  C   UNL     1       2.312  -4.024   0.790  1.00  0.00     0.262 A 
HETATM    8  O   UNL     1       1.641  -3.939  -0.233  1.00  0.00    -0.267 OA
ENDROOT
BRANCH   1   9
HETATM    9  C   UNL     1       4.468  -3.771  -0.384  1.00  0.00     0.189 C 
BRANCH   9  10
HETATM   10  C   UNL     1       5.375  -2.522  -0.403  1.00  0.00     0.171 C 
BRANCH  10  11
HETATM   11  C   UNL     1       4.620  -1.212  -0.244  1.00  0.00    -0.022 A 
HETATM   12  C   UNL     1       4.093  -0.515  -1.352  1.00  0.00    -0.053 A 
HETATM   13  C   UNL     1       3.392   0.684  -1.139  1.00  0.00     0.008 A 
HETATM   14  C   UNL     1       4.247  -1.017  -2.763  1.00  0.00     0.049 C 
HETATM   15  C   UNL     1       3.180   1.178   0.149  1.00  0.00     0.007 A 
HETATM   16  C   UNL     1       3.666   0.484   1.256  1.00  0.00    -0.061 A 
HETATM   17  C   UNL     1       3.418   0.966   2.653  1.00  0.00     0.048 C 
HETATM   18  C   UNL     1       4.396  -0.691   1.047  1.00  0.00     0.017 A 
ENDBRANCH  10  11
BRANCH  10  19
HETATM   19  O   UNL     1       6.410  -2.629   0.585  1.00  0.00    -0.389 OA
HETATM   20  H   UNL     1       5.987  -3.069   1.349  1.00  0.00     0.210 HD
ENDBRANCH  10  19
ENDBRANCH   9  10
ENDBRANCH   1   9
BRANCH   4  21
HETATM   21  C   UNL     1       4.555  -4.356   4.459  1.00  0.00     0.433 C 
HETATM   22  F   UNL     1       3.739  -4.530   5.537  1.00  0.00    -0.165 F 
HETATM   23  F   UNL     1       5.431  -5.394   4.470  1.00  0.00    -0.165 F 
HETATM   24  F   UNL     1       5.275  -3.228   4.706  1.00  0.00    -0.165 F 
ENDBRANCH   4  21
TORSDOF 5
