REMARK  5 active torsions:
REMARK  status: ('A' for Active; 'I' for Inactive)
REMARK    1  A    between atoms: N_2  and  C_4 
REMARK    2  A    between atoms: C_4  and  C_5 
REMARK    3  A    between atoms: C_5  and  C_6 
REMARK    4  A    between atoms: C_6  and  N_7 
REMARK       I    between atoms: N_7  and  C_8 
REMARK       I    between atoms: C_8  and  N_10 
REMARK    5  A    between atoms: N_10  and  C_11 
ROOT
HETATM    1  N   UNL     1       4.555  -3.847  -0.659  1.00  0.00    -0.342 N 
HETATM    2  C   UNL     1       4.936  -4.923  -1.435  1.00  0.00     0.321 C 
HETATM    3  O   UNL     1       5.644  -4.796  -2.423  1.00  0.00    -0.247 OA
HETATM    4  N   UNL     1       4.471  -6.097  -0.899  1.00  0.00    -0.294 N 
HETATM    5  H   UNL     1       3.588  -3.882  -0.340  1.00  0.00     0.164 HD
HETATM    6  H   UNL     1       4.172  -6.050   0.062  1.00  0.00     0.172 HD
ENDROOT
BRANCH   1   7
HETATM    7  C   UNL     1       4.988  -2.516  -1.041  1.00  0.00     0.135 C 
BRANCH   7   8
HETATM    8  C   UNL     1       4.538  -1.413  -0.050  1.00  0.00     0.002 C 
HETATM    9  C   UNL     1       5.204  -1.561   1.335  1.00  0.00     0.013 C 
HETATM   10  C   UNL     1       6.405  -0.624   1.397  1.00  0.00     0.001 C 
HETATM   11  C   UNL     1       6.492   0.060   0.048  1.00  0.00     0.001 C 
HETATM   12  C   UNL     1       5.093  -0.051  -0.543  1.00  0.00     0.013 C 
BRANCH   8  13
HETATM   13  C   UNL     1       2.979  -1.352   0.025  1.00  0.00     0.282 C 
BRANCH  13  14
HETATM   14  N   UNL     1       2.248  -2.580   0.436  1.00  0.00     0.080 N 
HETATM   15  C   UNL     1       2.444  -2.923   1.849  1.00  0.00     0.309 C 
HETATM   16  C   UNL     1       0.806  -2.383   0.214  1.00  0.00     0.309 C 
ENDBRANCH  13  14
ENDBRANCH   8  13
ENDBRANCH   7   8
ENDBRANCH   1   7
BRANCH   4  17
HETATM   17  C   UNL     1       4.682  -7.359  -1.471  1.00  0.00     0.123 A 
HETATM   18  C   UNL     1       4.498  -8.477  -0.670  1.00  0.00     0.051 A 
HETATM   19  C   UNL     1       4.742  -9.740  -1.205  1.00  0.00     0.022 A 
HETATM   20  C   UNL     1       5.129  -9.828  -2.525  1.00  0.00     0.107 A 
HETATM   21  N   UNL     1       5.271  -8.739  -3.299  1.00  0.00    -0.310 N 
HETATM   22  N   UNL     1       5.048  -7.496  -2.761  1.00  0.00    -0.286 N 
ATOM     23  HN  UNL     1       5.542  -8.835  -4.278  1.00  0.00     0.186 HD
ATOM     24  HN  UNL     1       5.161  -6.667  -3.344  1.00  0.00     0.188 HD
ENDBRANCH   4  17
TORSDOF 5
