REMARK  6 active torsions:
REMARK  status: ('A' for Active; 'I' for Inactive)
REMARK    1  A    between atoms: O_1  and  C_2 
REMARK    2  A    between atoms: C_2  and  C_3 
REMARK    3  A    between atoms: N_12  and  C_13 
REMARK    4  A    between atoms: C_13  and  C_14 
REMARK    5  A    between atoms: C_14  and  O_15 
REMARK    6  A    between atoms: C_14  and  C_16 
ROOT
HETATM    1  C   UNL     1       2.803   0.891  -1.176  1.00  0.00     0.108 A 
HETATM    2  N   UNL     1       2.600   2.195  -1.128  1.00  0.00    -0.342 N 
ATOM      3  HN  UNL     1       2.198   2.725  -0.355  1.00  0.00     0.167 HD
HETATM    4  C   UNL     1       3.038   2.691  -2.326  1.00  0.00     0.060 A 
HETATM    5  C   UNL     1       3.043   4.016  -2.786  1.00  0.00     0.032 A 
HETATM    6  C   UNL     1       3.542   4.288  -4.065  1.00  0.00     0.002 A 
HETATM    7  C   UNL     1       4.037   3.258  -4.865  1.00  0.00     0.002 A 
HETATM    8  C   UNL     1       4.058   1.931  -4.414  1.00  0.00     0.032 A 
HETATM    9  C   UNL     1       3.542   1.676  -3.136  1.00  0.00     0.062 A 
HETATM   10  N   UNL     1       3.391   0.533  -2.376  1.00  0.00    -0.330 N 
ENDROOT
BRANCH  10  11
HETATM   11  C   UNL     1       3.893  -0.792  -2.720  1.00  0.00     0.167 C 
BRANCH  11  12
HETATM   12  C   UNL     1       2.863  -1.698  -3.419  1.00  0.00     0.172 C 
BRANCH  12  13
HETATM   13  O   UNL     1       2.513  -1.182  -4.711  1.00  0.00    -0.389 OA
HETATM   14  H   UNL     1       3.329  -0.915  -5.164  1.00  0.00     0.210 HD
ENDBRANCH  12  13
BRANCH  12  15
HETATM   15  C   UNL     1       3.246  -3.156  -3.627  1.00  0.00     0.011 A 
HETATM   16  C   UNL     1       2.308  -4.009  -4.245  1.00  0.00     0.016 A 
HETATM   17  C   UNL     1       2.584  -5.364  -4.448  1.00  0.00     0.043 A 
HETATM   18  C   UNL     1       3.800  -5.882  -4.026  1.00  0.00     0.119 A 
HETATM   19  F   UNL     1       4.064  -7.182  -4.214  1.00  0.00    -0.206 F 
HETATM   20  C   UNL     1       4.745  -5.073  -3.416  1.00  0.00     0.085 A 
HETATM   21  C   UNL     1       4.464  -3.721  -3.225  1.00  0.00     0.128 A 
HETATM   22  F   UNL     1       5.410  -2.972  -2.643  1.00  0.00    -0.205 F 
ENDBRANCH  12  15
ENDBRANCH  11  12
ENDBRANCH  10  11
BRANCH   1  23
HETATM   23  C   UNL     1       2.485  -0.052  -0.068  1.00  0.00     0.240 C 
BRANCH  23  24
HETATM   24  O   UNL     1       1.599  -1.044  -0.569  1.00  0.00    -0.393 OA
HETATM   25  H   UNL     1       1.014  -1.289   0.168  1.00  0.00     0.209 HD
ENDBRANCH  23  24
ENDBRANCH   1  23
TORSDOF 6
