REMARK  6 active torsions:
REMARK  status: ('A' for Active; 'I' for Inactive)
REMARK    1  A    between atoms: C_2  and  C_3 
REMARK    2  A    between atoms: C_3  and  C_4 
REMARK    3  A    between atoms: C_6  and  N_7 
REMARK       I    between atoms: N_7  and  C_8 
REMARK    4  A    between atoms: C_8  and  C_10 
REMARK    5  A    between atoms: C_10  and  N_11 
REMARK    6  A    between atoms: C_19  and  O_20 
ROOT
HETATM    1  C   UNL     1       3.078   0.484   1.126  1.00  0.00     0.006 C 
HETATM    2  C   UNL     1       2.136   0.437   2.379  1.00  0.00     0.101 C 
HETATM    3  C   UNL     1       2.434   1.923   2.672  1.00  0.00     0.035 C 
HETATM    4  C   UNL     1       3.382   2.351   3.784  1.00  0.00     0.015 C 
HETATM    5  C   UNL     1       2.978   2.064   1.222  1.00  0.00     0.137 C 
ENDROOT
BRANCH   2   6
HETATM    6  N   UNL     1       2.475  -0.506   3.468  1.00  0.00    -0.354 N 
HETATM    7  C   UNL     1       1.650  -0.621   4.571  1.00  0.00     0.237 C 
HETATM    8  O   UNL     1       0.680   0.112   4.762  1.00  0.00    -0.272 OA
HETATM    9  H   UNL     1       3.174  -1.225   3.319  1.00  0.00     0.163 HD
BRANCH   7  10
HETATM   10  C   UNL     1       2.004  -1.725   5.533  1.00  0.00     0.248 C 
BRANCH  10  11
HETATM   11  N   UNL     1       1.246  -2.918   5.241  1.00  0.00    -0.277 N 
HETATM   12  C   UNL     1      -0.100  -3.111   5.325  1.00  0.00     0.126 A 
HETATM   13  C   UNL     1      -0.264  -4.431   4.985  1.00  0.00     0.123 A 
HETATM   14  N   UNL     1       0.955  -4.986   4.715  1.00  0.00    -0.294 N 
HETATM   15  N   UNL     1       1.879  -4.047   4.874  1.00  0.00    -0.021 NA
ATOM     16  HN  UNL     1       1.125  -5.953   4.439  1.00  0.00     0.183 HD
ENDBRANCH  10  11
ENDBRANCH   7  10
ENDBRANCH   2   6
BRANCH   1  17
HETATM   17  C   UNL     1       2.370  -0.117  -0.114  1.00  0.00     0.010 C 
HETATM   18  C   UNL     1       2.287  -1.638  -0.071  1.00  0.00     0.006 C 
ENDBRANCH   1  17
BRANCH   1  19
HETATM   19  C   UNL     1       4.517  -0.052   1.317  1.00  0.00     0.010 C 
HETATM   20  C   UNL     1       5.415   0.182   0.107  1.00  0.00     0.006 C 
ENDBRANCH   1  19
BRANCH   5  21
HETATM   21  O   UNL     1       2.079   2.705   0.282  1.00  0.00    -0.389 OA
HETATM   22  C   UNL     1       1.749   4.062   0.552  1.00  0.00     0.202 C 
ENDBRANCH   5  21
TORSDOF 6
