REMARK  3 active torsions:
REMARK  status: ('A' for Active; 'I' for Inactive)
REMARK    1  A    between atoms: C_2  and  C_3 
REMARK       I    between atoms: C_2  and  N_10 
REMARK    2  A    between atoms: C_3  and  N_4 
REMARK    3  A    between atoms: N_10  and  C_11 
ROOT
HETATM    1  C   UNL     1       4.528   1.046  -0.668  1.00  0.00     0.122 C 
HETATM    2  C   UNL     1       4.997   0.286  -1.941  1.00  0.00     0.046 C 
HETATM    3  C   UNL     1       6.462   0.500  -2.355  1.00  0.00     0.004 C 
HETATM    4  C   UNL     1       7.487  -0.399  -1.673  1.00  0.00     0.000 C 
HETATM    5  C   UNL     1       7.262  -0.711  -0.200  1.00  0.00     0.000 C 
HETATM    6  C   UNL     1       6.728   0.453   0.630  1.00  0.00     0.004 C 
HETATM    7  C   UNL     1       5.194   0.532   0.631  1.00  0.00     0.046 C 
HETATM    8  C   UNL     1       4.856   2.498  -0.818  1.00  0.00     0.091 C 
HETATM    9  N   UNL     1       5.054   3.634  -0.940  1.00  0.00    -0.195 NA
ENDROOT
BRANCH   1  10
HETATM   10  N   UNL     1       3.036   0.983  -0.559  1.00  0.00    -0.338 N 
HETATM   11  C   UNL     1       2.288  -0.157  -0.377  1.00  0.00     0.237 C 
HETATM   12  O   UNL     1       2.790  -1.270  -0.247  1.00  0.00    -0.272 OA
HETATM   13  H   UNL     1       2.540   1.864  -0.645  1.00  0.00     0.164 HD
BRANCH  11  14
HETATM   14  C   UNL     1       0.783   0.029  -0.449  1.00  0.00     0.231 C 
BRANCH  14  15
HETATM   15  N   UNL     1       0.221   0.808   0.639  1.00  0.00    -0.343 N 
HETATM   16  C   UNL     1      -0.414   2.017   0.523  1.00  0.00     0.109 A 
HETATM   17  C   UNL     1      -0.940   2.263   1.769  1.00  0.00     0.106 A 
HETATM   18  N   UNL     1      -0.628   1.249   2.636  1.00  0.00    -0.361 N 
HETATM   19  C   UNL     1       0.059   0.381   1.926  1.00  0.00     0.182 A 
ATOM     20  HN  UNL     1      -0.876   1.182   3.623  1.00  0.00     0.166 HD
ENDBRANCH  14  15
ENDBRANCH  11  14
ENDBRANCH   1  10
TORSDOF 3
