REMARK  5 active torsions:
REMARK  status: ('A' for Active; 'I' for Inactive)
REMARK    1  A    between atoms: C_8  and  N_9 
REMARK       I    between atoms: N_9  and  C_10 
REMARK       I    between atoms: C_10  and  N_12 
REMARK    2  A    between atoms: N_12  and  C_13 
REMARK    3  A    between atoms: C_13  and  C_14 
REMARK    4  A    between atoms: C_14  and  C_15 
REMARK       I    between atoms: C_15  and  N_17 
REMARK    5  A    between atoms: N_17  and  C_18 
ROOT
HETATM    1  N   UNL     1       5.322   4.027   0.971  1.00  0.00    -0.295 N 
HETATM    2  C   UNL     1       6.663   4.239   1.139  1.00  0.00     0.321 C 
HETATM    3  O   UNL     1       7.078   4.773   2.165  1.00  0.00    -0.247 OA
HETATM    4  N   UNL     1       7.469   3.854   0.115  1.00  0.00    -0.342 N 
HETATM    5  H   UNL     1       4.762   4.364   1.739  1.00  0.00     0.172 HD
HETATM    6  H   UNL     1       7.003   3.303  -0.604  1.00  0.00     0.164 HD
ENDROOT
BRANCH   4   7
HETATM    7  C   UNL     1       8.911   3.856   0.137  1.00  0.00     0.133 C 
BRANCH   7   8
HETATM    8  C   UNL     1       9.490   5.259   0.144  1.00  0.00     0.122 C 
BRANCH   8   9
HETATM    9  C   UNL     1      10.997   5.188   0.133  1.00  0.00     0.219 C 
HETATM   10  O   UNL     1      11.630   4.275  -0.391  1.00  0.00    -0.274 OA
HETATM   11  N   UNL     1      11.593   6.278   0.726  1.00  0.00    -0.356 N 
HETATM   12  H   UNL     1      11.006   6.859   1.312  1.00  0.00     0.162 HD
BRANCH  11  13
HETATM   13  C   UNL     1      13.038   6.373   0.893  1.00  0.00     0.084 C 
HETATM   14  C   UNL     1      13.498   5.668   2.175  1.00  0.00     0.025 C 
HETATM   15  C   UNL     1      13.050   6.402   3.441  1.00  0.00     0.002 C 
HETATM   16  C   UNL     1      13.424   7.883   3.420  1.00  0.00     0.000 C 
HETATM   17  C   UNL     1      12.980   8.582   2.139  1.00  0.00     0.002 C 
HETATM   18  C   UNL     1      13.476   7.840   0.898  1.00  0.00     0.025 C 
ENDBRANCH  11  13
ENDBRANCH   8   9
ENDBRANCH   7   8
ENDBRANCH   4   7
BRANCH   1  19
HETATM   19  C   UNL     1       4.682   3.385  -0.095  1.00  0.00     0.109 A 
HETATM   20  N   UNL     1       5.436   2.887  -1.097  1.00  0.00    -0.346 N 
HETATM   21  C   UNL     1       4.828   2.262  -2.129  1.00  0.00     0.007 A 
ATOM     22  HN  UNL     1       6.451   2.981  -1.076  1.00  0.00     0.167 HD
HETATM   23  C   UNL     1       3.451   2.111  -2.191  1.00  0.00     0.031 A 
HETATM   24  C   UNL     1       5.734   1.748  -3.203  1.00  0.00     0.068 C 
HETATM   25  C   UNL     1       2.668   2.623  -1.153  1.00  0.00    -0.057 A 
HETATM   26  C   UNL     1       1.176   2.478  -1.179  1.00  0.00     0.048 C 
HETATM   27  C   UNL     1       3.299   3.272  -0.085  1.00  0.00     0.055 A 
ENDBRANCH   1  19
TORSDOF 5
