REMARK  5 active torsions:
REMARK  status: ('A' for Active; 'I' for Inactive)
REMARK    1  A    between atoms: S_2  and  N_5 
REMARK    2  A    between atoms: C_9  and  C_10 
REMARK       I    between atoms: C_10  and  N_12 
REMARK    3  A    between atoms: N_12  and  C_13 
REMARK    4  A    between atoms: C_13  and  C_14 
REMARK    5  A    between atoms: C_14  and  N_15 
ROOT
HETATM    1  C   UNL     1       2.364   2.914   1.249  1.00  0.00     0.241 C 
HETATM    2  O   UNL     1       3.182   3.416   2.017  1.00  0.00    -0.271 OA
HETATM    3  N   UNL     1       1.094   2.553   1.660  1.00  0.00    -0.358 N 
HETATM    4  H   UNL     1       0.659   1.782   1.152  1.00  0.00     0.162 HD
ENDROOT
BRANCH   1   5
HETATM    5  C   UNL     1       2.632   2.713  -0.247  1.00  0.00     0.187 C 
HETATM    6  N   UNL     1       3.346   1.473  -0.614  1.00  0.00    -0.297 N 
HETATM    7  C   UNL     1       4.804   1.715  -0.540  1.00  0.00     0.136 C 
HETATM    8  C   UNL     1       4.966   3.231  -0.488  1.00  0.00     0.023 C 
HETATM    9  C   UNL     1       3.581   3.790  -0.775  1.00  0.00     0.037 C 
BRANCH   6  10
HETATM   10  S   UNL     1       2.724   0.014  -0.097  1.00  0.00     0.225 S 
HETATM   11  C   UNL     1       3.373  -1.101  -1.334  1.00  0.00     0.186 C 
HETATM   12  O   UNL     1       1.285   0.097  -0.252  1.00  0.00    -0.206 OA
HETATM   13  O   UNL     1       3.309  -0.310   1.186  1.00  0.00    -0.206 OA
ENDBRANCH   6  10
ENDBRANCH   1   5
BRANCH   3  14
HETATM   14  C   UNL     1       0.649   2.812   3.025  1.00  0.00     0.143 C 
BRANCH  14  15
HETATM   15  C   UNL     1       0.630   4.307   3.372  1.00  0.00     0.148 C 
BRANCH  15  16
HETATM   16  N   UNL     1       0.167   4.570   4.719  1.00  0.00    -0.350 N 
HETATM   17  C   UNL     1      -1.106   4.893   5.092  1.00  0.00     0.108 A 
HETATM   18  C   UNL     1      -1.029   5.109   6.449  1.00  0.00     0.106 A 
HETATM   19  N   UNL     1       0.254   4.938   6.898  1.00  0.00    -0.361 N 
HETATM   20  C   UNL     1       0.957   4.626   5.832  1.00  0.00     0.182 A 
ATOM     21  HN  UNL     1       0.592   5.033   7.856  1.00  0.00     0.166 HD
ENDBRANCH  15  16
ENDBRANCH  14  15
ENDBRANCH   3  14
TORSDOF 5
