REMARK  5 active torsions:
REMARK  status: ('A' for Active; 'I' for Inactive)
REMARK    1  A    between atoms: C_2  and  C_3 
REMARK    2  A    between atoms: C_3  and  C_4 
REMARK    3  A    between atoms: C_3  and  N_16 
REMARK    4  A    between atoms: C_4  and  N_5 
REMARK       I    between atoms: N_5  and  C_6 
REMARK       I    between atoms: C_6  and  N_8 
REMARK    5  A    between atoms: N_8  and  C_9 
ROOT
HETATM    1  N   UNL     1       2.860   3.676   0.921  1.00  0.00    -0.341 N 
HETATM    2  C   UNL     1       2.281   4.551   1.823  1.00  0.00     0.322 C 
HETATM    3  O   UNL     1       1.424   4.181   2.615  1.00  0.00    -0.247 OA
HETATM    4  N   UNL     1       2.736   5.837   1.674  1.00  0.00    -0.288 N 
HETATM    5  H   UNL     1       3.851   3.795   0.752  1.00  0.00     0.164 HD
HETATM    6  H   UNL     1       3.141   6.108   0.795  1.00  0.00     0.172 HD
ENDROOT
BRANCH   1   7
HETATM    7  C   UNL     1       2.417   2.292   0.988  1.00  0.00     0.160 C 
BRANCH   7   8
HETATM    8  C   UNL     1       3.102   1.344  -0.030  1.00  0.00     0.240 C 
BRANCH   8   9
HETATM    9  C   UNL     1       2.515  -0.088   0.112  1.00  0.00     0.033 C 
HETATM   10  C   UNL     1       1.018  -0.175  -0.170  1.00  0.00     0.007 C 
ENDBRANCH   8   9
BRANCH   8  11
HETATM   11  N   UNL     1       4.581   1.420   0.076  1.00  0.00     0.094 N 
HETATM   12  C   UNL     1       5.309   0.687  -0.968  1.00  0.00     0.273 C 
HETATM   13  C   UNL     1       6.601   0.198  -0.322  1.00  0.00     0.032 C 
HETATM   14  C   UNL     1       6.622   0.846   1.048  1.00  0.00     0.032 C 
HETATM   15  C   UNL     1       5.151   1.036   1.368  1.00  0.00     0.273 C 
ENDBRANCH   8  11
ENDBRANCH   7   8
ENDBRANCH   1   7
BRANCH   4  16
HETATM   16  C   UNL     1       2.284   6.821   2.516  1.00  0.00     0.168 A 
HETATM   17  N   UNL     1       1.693   6.723   3.682  1.00  0.00    -0.279 N 
HETATM   18  N   UNL     1       1.369   7.960   4.209  1.00  0.00    -0.303 N 
ATOM     19  HN  UNL     1       1.495   5.837   4.147  1.00  0.00     0.189 HD
HETATM   20  C   UNL     1       1.736   8.935   3.408  1.00  0.00     0.160 A 
ATOM     21  HN  UNL     1       0.904   8.098   5.106  1.00  0.00     0.186 HD
HETATM   22  S   UNL     1       2.535   8.423   1.973  1.00  0.00    -0.046 SA
ENDBRANCH   4  16
TORSDOF 5
