REMARK  7 active torsions:
REMARK  status: ('A' for Active; 'I' for Inactive)
REMARK    1  A    between atoms: C_2  and  N_3 
REMARK    2  A    between atoms: N_6  and  C_7 
REMARK    3  A    between atoms: C_7  and  C_8 
REMARK    4  A    between atoms: C_8  and  O_9 
REMARK    5  A    between atoms: C_8  and  C_10 
REMARK    6  A    between atoms: C_10  and  O_11 
REMARK    7  A    between atoms: O_11  and  C_12 
ROOT
HETATM    1  C   UNL     1       0.746   8.412  -0.810  1.00  0.00     0.069 A 
HETATM    2  C   UNL     1       0.481   8.861  -2.105  1.00  0.00     0.038 A 
HETATM    3  C   UNL     1       0.189  10.205  -2.347  1.00  0.00     0.025 A 
HETATM    4  C   UNL     1       0.139  11.109  -1.285  1.00  0.00     0.044 A 
HETATM    5  C   UNL     1      -0.141  12.493  -1.527  1.00  0.00     0.099 C 
HETATM    6  N   UNL     1      -0.361  13.615  -1.724  1.00  0.00    -0.191 NA
HETATM    7  C   UNL     1       0.368  10.653   0.020  1.00  0.00     0.025 A 
HETATM    8  C   UNL     1       0.669   9.307   0.258  1.00  0.00     0.038 A 
ENDROOT
BRANCH   1   9
HETATM    9  O   UNL     1       1.025   7.079  -0.717  1.00  0.00    -0.349 OA
BRANCH   9  10
HETATM   10  C   UNL     1       1.803   6.656   0.407  1.00  0.00     0.209 C 
BRANCH  10  11
HETATM   11  C   UNL     1       2.039   5.137   0.294  1.00  0.00     0.161 C 
BRANCH  11  12
HETATM   12  C   UNL     1       2.980   4.670   1.416  1.00  0.00     0.168 C 
BRANCH  12  13
HETATM   13  N   UNL     1       3.244   3.253   1.386  1.00  0.00    -0.295 N 
HETATM   14  C   UNL     1       2.503   2.289   2.100  1.00  0.00     0.330 A 
HETATM   15  N   UNL     1       3.128   1.045   1.857  1.00  0.00    -0.298 N 
HETATM   16  O   UNL     1       1.536   2.507   2.816  1.00  0.00    -0.246 OA
HETATM   17  C   UNL     1       4.228   1.248   1.012  1.00  0.00     0.065 A 
HETATM   18  C   UNL     1       4.290   2.611   0.707  1.00  0.00     0.066 A 
HETATM   19  C   UNL     1       5.153   0.352   0.517  1.00  0.00     0.032 A 
HETATM   20  C   UNL     1       5.275   3.131  -0.106  1.00  0.00     0.032 A 
HETATM   21  C   UNL     1       6.215   2.234  -0.624  1.00  0.00     0.002 A 
HETATM   22  C   UNL     1       6.155   0.859  -0.316  1.00  0.00     0.002 A 
BRANCH  15  23
HETATM   23  C   UNL     1       2.805  -0.177   2.548  1.00  0.00     0.130 C 
HETATM   24  C   UNL     1       3.532  -0.272   3.882  1.00  0.00     0.027 C 
ENDBRANCH  15  23
ENDBRANCH  12  13
ENDBRANCH  11  12
BRANCH  11  25
HETATM   25  O   UNL     1       0.779   4.458   0.359  1.00  0.00    -0.392 OA
HETATM   26  H   UNL     1       0.486   4.418   1.288  1.00  0.00     0.210 HD
ENDBRANCH  11  25
ENDBRANCH  10  11
ENDBRANCH   9  10
ENDBRANCH   1   9
TORSDOF 7
