REMARK  5 active torsions:
REMARK  status: ('A' for Active; 'I' for Inactive)
REMARK    1  A    between atoms: C_2  and  N_3 
REMARK    2  A    between atoms: C_2  and  C_20 
REMARK       I    between atoms: N_3  and  C_4 
REMARK       I    between atoms: C_4  and  N_6 
REMARK    3  A    between atoms: N_6  and  C_7 
REMARK    4  A    between atoms: C_13  and  N_14 
REMARK       I    between atoms: C_20  and  N_22 
REMARK    5  A    between atoms: N_22  and  C_23 
ROOT
HETATM    1  N   UNL     1       2.871  -0.174  -1.488  1.00  0.00    -0.330 N 
HETATM    2  C   UNL     1       2.809  -1.422  -2.055  1.00  0.00     0.321 C 
HETATM    3  O   UNL     1       2.575  -2.413  -1.373  1.00  0.00    -0.247 OA
HETATM    4  N   UNL     1       2.970  -1.399  -3.422  1.00  0.00    -0.306 N 
HETATM    5  H   UNL     1       3.544   0.460  -1.897  1.00  0.00     0.165 HD
HETATM    6  H   UNL     1       2.652  -0.571  -3.908  1.00  0.00     0.171 HD
ENDROOT
BRANCH   4   7
HETATM    7  C   UNL     1       2.888  -2.600  -4.178  1.00  0.00     0.075 A 
HETATM    8  C   UNL     1       3.535  -3.747  -3.705  1.00  0.00     0.034 A 
HETATM    9  C   UNL     1       3.462  -4.931  -4.419  1.00  0.00     0.019 A 
HETATM   10  C   UNL     1       2.738  -4.925  -5.592  1.00  0.00     0.089 A 
HETATM   11  N   UNL     1       2.136  -3.828  -6.105  1.00  0.00    -0.355 N 
HETATM   12  C   UNL     1       2.218  -2.658  -5.422  1.00  0.00     0.109 A 
ATOM     13  HN  UNL     1       1.630  -3.879  -6.989  1.00  0.00     0.166 HD
BRANCH  12  14
HETATM   14  N   UNL     1       1.697  -1.494  -6.024  1.00  0.00    -0.267 NA
HETATM   15  C   UNL     1       1.507  -1.646  -7.480  1.00  0.00     0.097 C 
HETATM   16  C   UNL     1       1.390  -0.253  -8.094  1.00  0.00     0.015 C 
HETATM   17  C   UNL     1       0.282   0.566  -7.432  1.00  0.00     0.002 C 
HETATM   18  C   UNL     1       0.369   0.516  -5.903  1.00  0.00     0.015 C 
HETATM   19  C   UNL     1       0.497  -0.926  -5.393  1.00  0.00     0.097 C 
ENDBRANCH  12  14
ENDBRANCH   4   7
BRANCH   1  20
HETATM   20  C   UNL     1       2.561  -0.008  -0.065  1.00  0.00     0.174 C 
HETATM   21  C   UNL     1       2.115   1.429   0.198  1.00  0.00     0.042 C 
BRANCH  20  22
HETATM   22  C   UNL     1       3.733  -0.373   0.885  1.00  0.00     0.240 C 
HETATM   23  O   UNL     1       4.169   0.436   1.699  1.00  0.00    -0.271 OA
HETATM   24  N   UNL     1       4.184  -1.680   0.816  1.00  0.00    -0.351 N 
HETATM   25  H   UNL     1       3.665  -2.310   0.197  1.00  0.00     0.163 HD
BRANCH  24  26
HETATM   26  C   UNL     1       5.191  -2.249   1.732  1.00  0.00     0.022 C 
HETATM   27  C   UNL     1       4.669  -2.265   3.180  1.00  0.00     0.037 C 
HETATM   28  C   UNL     1       5.493  -3.703   1.323  1.00  0.00     0.037 C 
HETATM   29  C   UNL     1       6.510  -1.460   1.657  1.00  0.00     0.037 C 
ENDBRANCH  24  26
ENDBRANCH  20  22
ENDBRANCH   1  20
TORSDOF 5
