REMARK  5 active torsions:
REMARK  status: ('A' for Active; 'I' for Inactive)
REMARK    1  A    between atoms: C_7  and  O_8 
REMARK    2  A    between atoms: O_8  and  C_9 
REMARK    3  A    between atoms: C_9  and  C_10 
REMARK    4  A    between atoms: C_10  and  N_11 
REMARK       I    between atoms: N_11  and  C_12 
REMARK       I    between atoms: C_12  and  N_14 
REMARK    5  A    between atoms: N_14  and  C_15 
ROOT
HETATM    1  N   UNL     1       2.826  -4.569   2.662  1.00  0.00    -0.341 N 
HETATM    2  C   UNL     1       2.409  -5.704   3.290  1.00  0.00     0.323 C 
HETATM    3  O   UNL     1       1.699  -5.687   4.294  1.00  0.00    -0.247 OA
HETATM    4  N   UNL     1       2.782  -6.891   2.738  1.00  0.00    -0.274 N 
HETATM    5  H   UNL     1       3.129  -4.680   1.702  1.00  0.00     0.164 HD
HETATM    6  H   UNL     1       2.351  -7.718   3.120  1.00  0.00     0.174 HD
ENDROOT
BRANCH   1   7
HETATM    7  C   UNL     1       2.339  -3.255   3.016  1.00  0.00     0.150 C 
BRANCH   7   8
HETATM    8  C   UNL     1       2.911  -2.182   2.087  1.00  0.00     0.188 C 
BRANCH   8   9
HETATM    9  O   UNL     1       2.360  -2.321   0.766  1.00  0.00    -0.384 OA
BRANCH   9  10
HETATM   10  C   UNL     1       2.851  -1.349  -0.173  1.00  0.00     0.125 C 
HETATM   11  C   UNL     1       2.483   0.101   0.218  1.00  0.00     0.010 C 
HETATM   12  C   UNL     1       0.986   0.266   0.517  1.00  0.00     0.012 C 
HETATM   13  C   UNL     1       2.958   1.088  -0.856  1.00  0.00     0.007 C 
HETATM   14  C   UNL     1       2.420   0.755  -2.243  1.00  0.00     0.001 C 
HETATM   15  C   UNL     1       2.727  -0.687  -2.635  1.00  0.00     0.002 C 
HETATM   16  C   UNL     1       2.299  -1.696  -1.568  1.00  0.00     0.032 C 
ENDBRANCH   9  10
ENDBRANCH   8   9
ENDBRANCH   7   8
ENDBRANCH   1   7
BRANCH   4  17
HETATM   17  C   UNL     1       3.616  -7.078   1.679  1.00  0.00     0.233 A 
HETATM   18  N   UNL     1       3.791  -8.194   1.012  1.00  0.00    -0.323 N 
HETATM   19  C   UNL     1       4.673  -7.851   0.009  1.00  0.00     0.038 A 
ATOM     20  HN  UNL     1       3.371  -9.106   1.194  1.00  0.00     0.169 HD
HETATM   21  C   UNL     1       5.064  -8.810  -1.042  1.00  0.00     0.071 C 
HETATM   22  C   UNL     1       5.060  -6.538   0.166  1.00  0.00     0.075 A 
HETATM   23  C   UNL     1       5.985  -5.625  -0.526  1.00  0.00     0.079 C 
HETATM   24  O   UNL     1       4.367  -6.030   1.222  1.00  0.00    -0.282 OA
ENDBRANCH   4  17
TORSDOF 5
