REMARK  5 active torsions:
REMARK  status: ('A' for Active; 'I' for Inactive)
REMARK    1  A    between atoms: CA_2  and  N_3 
REMARK    2  A    between atoms: CA_2  and  C_4 
REMARK       I    between atoms: N_3  and  C_9 
REMARK    3  A    between atoms: C_4  and  OXT_6 
REMARK    4  A    between atoms: C_9  and  C_11 
REMARK    5  A    between atoms: C_11  and  N_12 
ROOT
ATOM      1  N   ALA A   1       1.427  -0.025  -2.482  1.00  0.00    -0.346 N 
ATOM      2  H   ALA A   1       0.929   0.054  -3.377  1.00  0.00     0.163 HD
HETATM    3  C   UNK A   0       2.693   0.517  -2.407  1.00  0.00     0.238 C 
HETATM    4  O   UNK A   0       3.385   0.383  -1.399  1.00  0.00    -0.272 OA
ENDROOT
BRANCH   3   5
HETATM    5  C   UNK A   0       3.145   1.419  -3.541  1.00  0.00     0.251 C 
BRANCH   5   6
HETATM    6  N   UNK A   0       2.640   1.057  -4.857  1.00  0.00    -0.286 N 
HETATM    7  N   UNK A   0       1.298   1.006  -5.044  1.00  0.00    -0.301 N 
HETATM    8  C   UNK A   0       1.159   0.762  -6.355  1.00  0.00     0.045 A 
ATOM      9  HN  UNK A   0       0.563   1.126  -4.347  1.00  0.00     0.187 HD
HETATM   10  C   UNK A   0      -0.190   0.665  -6.965  1.00  0.00     0.071 C 
HETATM   11  C   UNK A   0       2.413   0.636  -6.994  1.00  0.00     0.081 A 
HETATM   12 CL   UNK A   0       2.670   0.316  -8.640  1.00  0.00    -0.080 Cl
HETATM   13  C   UNK A   0       3.357   0.848  -6.011  1.00  0.00     0.049 A 
HETATM   14  C   UNK A   0       4.840   0.879  -6.085  1.00  0.00     0.072 C 
ENDBRANCH   5   6
ENDBRANCH   3   5
BRANCH   1  15
ATOM     15  CA  ALA A   1       0.896  -0.913  -1.432  1.00  0.00     0.178 C 
ATOM     16  CB  ALA A   1      -0.036  -1.960  -2.026  1.00  0.00     0.043 C 
BRANCH  15  17
ATOM     17  C   ALA A   1       0.134  -0.119  -0.357  1.00  0.00     0.163 C 
ATOM     18  O   ALA A   1      -0.376  -0.618   0.636  1.00  0.00    -0.648 OA
BRANCH  17  19
ATOM     19  OXT ALA A   1       0.022   1.202  -0.641  1.00  0.00    -0.775 OA
ATOM     20  HXT ALA A   1       0.494   1.391  -1.477  1.00  0.00     0.167 HD
ENDBRANCH  17  19
ENDBRANCH  15  17
ENDBRANCH   1  15
TORSDOF 5
