REMARK  4 active torsions:
REMARK  status: ('A' for Active; 'I' for Inactive)
REMARK    1  A    between atoms: C_4  and  C_8 
REMARK       I    between atoms: C_8  and  N_10 
REMARK    2  A    between atoms: N_10  and  C_11 
REMARK    3  A    between atoms: C_11  and  C_12 
REMARK    4  A    between atoms: C_12  and  C_13 
ROOT
HETATM    1  C   UNL     1       4.942  -1.400  -2.003  1.00  0.00     0.223 C 
HETATM    2  O   UNL     1       4.975  -0.781  -3.066  1.00  0.00    -0.273 OA
HETATM    3  N   UNL     1       5.136  -2.765  -1.959  1.00  0.00    -0.360 N 
HETATM    4  H   UNL     1       5.276  -3.223  -1.066  1.00  0.00     0.162 HD
ENDROOT
BRANCH   3   5
HETATM    5  C   UNL     1       5.535  -3.449  -3.182  1.00  0.00     0.128 C 
BRANCH   5   6
HETATM    6  C   UNL     1       5.632  -4.966  -3.048  1.00  0.00     0.077 C 
BRANCH   6   7
HETATM    7  C   UNL     1       5.998  -5.601  -4.352  1.00  0.00     0.018 A 
HETATM    8  C   UNL     1       5.127  -6.042  -5.329  1.00  0.00     0.076 A 
HETATM    9  S   UNL     1       6.001  -6.655  -6.668  1.00  0.00    -0.087 SA
HETATM   10  C   UNL     1       7.473  -6.297  -5.856  1.00  0.00     0.046 A 
HETATM   11  C   UNL     1       8.782  -6.588  -6.502  1.00  0.00     0.076 C 
HETATM   12  N   UNL     1       7.340  -5.756  -4.664  1.00  0.00    -0.357 N 
ATOM     13  HN  UNL     1       8.114  -5.489  -4.056  1.00  0.00     0.166 HD
ENDBRANCH   6   7
ENDBRANCH   5   6
ENDBRANCH   3   5
BRANCH   1  14
HETATM   14  C   UNL     1       4.595  -0.733  -0.683  1.00  0.00     0.104 C 
HETATM   15  C   UNL     1       4.510   0.781  -0.859  1.00  0.00     0.139 C 
HETATM   16  N   UNL     1       5.240   1.351   0.242  1.00  0.00    -0.356 N 
HETATM   17  C   UNL     1       5.619   2.743   0.251  1.00  0.00     0.152 C 
HETATM   18  C   UNL     1       5.932   0.406   0.975  1.00  0.00     0.220 C 
HETATM   19  C   UNL     1       5.635  -0.958   0.414  1.00  0.00     0.118 C 
HETATM   20  O   UNL     1       6.692   0.627   1.902  1.00  0.00    -0.273 OA
ENDBRANCH   1  14
TORSDOF 4
