REMARK  8 active torsions:
REMARK  status: ('A' for Active; 'I' for Inactive)
REMARK    1  A    between atoms: N_2  and  C_14 
REMARK    2  A    between atoms: C_6  and  N_7 
REMARK    3  A    between atoms: C_13  and  C_14 
REMARK    4  A    between atoms: C_13  and  C_27 
REMARK    5  A    between atoms: C_15  and  C_16 
REMARK    6  A    between atoms: C_15  and  O_26 
REMARK    7  A    between atoms: C_16  and  C_18 
REMARK       I    between atoms: C_18  and  N_22 
REMARK    8  A    between atoms: C_27  and  O_29 
ROOT
HETATM    1  C   UNL     1      -0.754  -0.771  -1.217  1.00  0.00     0.122 A 
HETATM    2  N   UNL     1      -0.418   1.108  -2.283  1.00  0.00    -0.326 N 
HETATM    3  C   UNL     1      -0.752   0.609  -1.058  1.00  0.00     0.140 A 
HETATM    4  N   UNL     1      -0.412  -1.092  -2.522  1.00  0.00    -0.346 N 
ATOM      5  HN  UNL     1      -0.307  -2.025  -2.921  1.00  0.00     0.167 HD
HETATM    6  C   UNL     1      -1.073  -1.552  -0.081  1.00  0.00     0.135 A 
HETATM    7  C   UNL     1      -0.252   0.059  -3.136  1.00  0.00     0.185 A 
HETATM    8  N   UNL     1      -1.018   1.307   0.055  1.00  0.00    -0.336 N 
ATOM      9  HN  UNL     1      -1.008   2.325   0.116  1.00  0.00     0.168 HD
HETATM   10  N   UNL     1      -1.338  -0.862   1.069  1.00  0.00    -0.337 N 
ATOM     11  HN  UNL     1      -1.566  -1.369   1.924  1.00  0.00     0.168 HD
HETATM   12  C   UNL     1      -1.300   0.485   1.078  1.00  0.00     0.183 A 
ENDROOT
BRANCH   6  13
HETATM   13  N   UNL     1      -1.061  -2.955  -0.056  1.00  0.00    -0.362 N 
HETATM   14  C   UNL     1      -1.461  -3.549   1.225  1.00  0.00     0.162 C 
HETATM   15  C   UNL     1      -0.912  -4.993   1.311  1.00  0.00     0.082 C 
HETATM   16  C   UNL     1      -1.467  -5.790   0.113  1.00  0.00     0.041 C 
HETATM   17  C   UNL     1      -1.239  -5.106  -1.234  1.00  0.00     0.023 C 
HETATM   18  C   UNL     1      -1.628  -3.625  -1.233  1.00  0.00     0.124 C 
BRANCH  15  19
HETATM   19  C   UNL     1       0.635  -5.027   1.345  1.00  0.00     0.142 C 
BRANCH  19  20
HETATM   20  C   UNL     1       1.216  -4.360   2.582  1.00  0.00     0.220 C 
HETATM   21  O   UNL     1       0.528  -4.011   3.537  1.00  0.00    -0.274 OA
HETATM   22  N   UNL     1       2.588  -4.237   2.553  1.00  0.00    -0.365 N 
HETATM   23  C   UNL     1       3.329  -3.628   3.630  1.00  0.00     0.149 C 
HETATM   24  H   UNL     1       3.104  -4.640   1.782  1.00  0.00     0.161 HD
ENDBRANCH  19  20
ENDBRANCH  15  19
BRANCH  15  25
HETATM   25  O   UNL     1      -1.422  -5.644   2.488  1.00  0.00    -0.388 OA
HETATM   26  H   UNL     1      -1.107  -5.116   3.253  1.00  0.00     0.210 HD
ENDBRANCH  15  25
ENDBRANCH   6  13
BRANCH   2  27
HETATM   27  C   UNL     1      -0.321   2.517  -2.619  1.00  0.00     0.147 C 
BRANCH  27  28
HETATM   28  C   UNL     1       1.088   3.085  -2.509  1.00  0.00     0.040 C 
HETATM   29  C   UNL     1       1.727   3.166  -1.106  1.00  0.00     0.183 C 
HETATM   30  O   UNL     1       2.007   4.579  -1.291  1.00  0.00    -0.389 OA
HETATM   31  C   UNL     1       1.076   4.623  -2.401  1.00  0.00     0.183 C 
BRANCH  28  32
HETATM   32  C   UNL     1       2.073   2.552  -3.544  1.00  0.00     0.179 C 
BRANCH  32  33
HETATM   33  O   UNL     1       1.566   2.794  -4.852  1.00  0.00    -0.400 OA
HETATM   34  H   UNL     1       1.125   1.988  -5.167  1.00  0.00     0.209 HD
ENDBRANCH  32  33
ENDBRANCH  28  32
ENDBRANCH  27  28
ENDBRANCH   2  27
TORSDOF 8
