REMARK  7 active torsions:
REMARK  status: ('A' for Active; 'I' for Inactive)
REMARK    1  A    between atoms: C_2  and  C_4 
REMARK    2  A    between atoms: C_8  and  O_9 
REMARK    3  A    between atoms: O_9  and  C_10 
REMARK    4  A    between atoms: C_10  and  C_11 
REMARK    5  A    between atoms: C_11  and  O_12 
REMARK    6  A    between atoms: C_11  and  C_13 
REMARK    7  A    between atoms: C_13  and  N_14 
ROOT
HETATM    1  C   UNL     1       2.460  -6.505  -1.451  1.00  0.00     0.161 C 
ENDROOT
BRANCH   1   2
HETATM    2  C   UNL     1       2.702  -5.032  -1.098  1.00  0.00     0.209 C 
BRANCH   2   3
HETATM    3  O   UNL     1       3.366  -4.387  -2.187  1.00  0.00    -0.349 OA
BRANCH   3   4
HETATM    4  C   UNL     1       3.637  -3.055  -2.041  1.00  0.00     0.069 A 
HETATM    5  C   UNL     1       4.337  -2.484  -3.105  1.00  0.00     0.037 A 
HETATM    6  C   UNL     1       4.657  -1.127  -3.097  1.00  0.00     0.004 A 
HETATM    7  C   UNL     1       4.265  -0.325  -2.026  1.00  0.00     0.015 A 
HETATM    8  C   UNL     1       3.557  -0.885  -0.956  1.00  0.00     0.012 A 
HETATM    9  C   UNL     1       3.261  -2.256  -0.960  1.00  0.00     0.051 A 
BRANCH   8  10
HETATM   10  C   UNL     1       3.075  -0.062   0.192  1.00  0.00     0.155 C 
HETATM   11  C   UNL     1       3.260   1.432   0.139  1.00  0.00     0.096 C 
HETATM   12  O   UNL     1       2.531  -0.604   1.153  1.00  0.00    -0.293 OA
ENDBRANCH   8  10
ENDBRANCH   3   4
ENDBRANCH   2   3
ENDBRANCH   1   2
BRANCH   1  13
HETATM   13  O   UNL     1       3.716  -7.169  -1.651  1.00  0.00    -0.392 OA
HETATM   14  H   UNL     1       4.108  -7.369  -0.781  1.00  0.00     0.210 HD
ENDBRANCH   1  13
BRANCH   1  15
HETATM   15  C   UNL     1       1.646  -7.168  -0.326  1.00  0.00     0.168 C 
BRANCH  15  16
HETATM   16  N   UNL     1       1.380  -8.561  -0.573  1.00  0.00    -0.295 N 
HETATM   17  C   UNL     1       2.227  -9.616  -0.169  1.00  0.00     0.329 A 
HETATM   18  O   UNL     1       3.245  -9.509   0.498  1.00  0.00    -0.246 OA
HETATM   19  N   UNL     1       1.656 -10.796  -0.687  1.00  0.00    -0.302 N 
HETATM   20  C   UNL     1       2.188 -12.118  -0.527  1.00  0.00     0.161 C 
HETATM   21  C   UNL     1       0.521 -10.465  -1.435  1.00  0.00     0.065 A 
HETATM   22  C   UNL     1      -0.336 -11.266  -2.158  1.00  0.00     0.032 A 
HETATM   23  C   UNL     1       0.350  -9.079  -1.367  1.00  0.00     0.066 A 
HETATM   24  C   UNL     1      -1.392 -10.636  -2.825  1.00  0.00     0.002 A 
HETATM   25  C   UNL     1      -1.566  -9.238  -2.753  1.00  0.00     0.002 A 
HETATM   26  C   UNL     1      -0.686  -8.440  -2.016  1.00  0.00     0.032 A 
ENDBRANCH  15  16
ENDBRANCH   1  15
TORSDOF 7
