REMARK  6 active torsions:
REMARK  status: ('A' for Active; 'I' for Inactive)
REMARK    1  A    between atoms: O_1  and  C_2 
REMARK    2  A    between atoms: C_2  and  C_3 
REMARK    3  A    between atoms: C_2  and  C_12 
REMARK    4  A    between atoms: C_3  and  O_4 
REMARK    5  A    between atoms: O_4  and  C_5 
REMARK    6  A    between atoms: C_12  and  N_13 
ROOT
HETATM    1  C   UNL     1       2.484   0.104   0.053  1.00  0.00     0.160 C 
ENDROOT
BRANCH   1   2
HETATM    2  O   UNL     1       1.055   0.239   0.015  1.00  0.00    -0.392 OA
HETATM    3  H   UNL     1       0.700  -0.051   0.874  1.00  0.00     0.210 HD
ENDBRANCH   1   2
BRANCH   1   4
HETATM    4  C   UNL     1       2.782  -1.392   0.197  1.00  0.00     0.209 C 
BRANCH   4   5
HETATM    5  O   UNL     1       4.178  -1.681   0.276  1.00  0.00    -0.349 OA
BRANCH   5   6
HETATM    6  C   UNL     1       4.444  -3.021   0.449  1.00  0.00     0.069 A 
HETATM    7  C   UNL     1       3.646  -4.054  -0.060  1.00  0.00     0.040 A 
HETATM    8  C   UNL     1       3.974  -5.387   0.186  1.00  0.00     0.045 A 
HETATM    9  C   UNL     1       5.109  -5.687   0.925  1.00  0.00     0.116 A 
HETATM   10  F   UNL     1       5.416  -6.967   1.167  1.00  0.00    -0.206 F 
HETATM   11  C   UNL     1       5.934  -4.677   1.405  1.00  0.00     0.045 A 
HETATM   12  C   UNL     1       5.602  -3.340   1.164  1.00  0.00     0.040 A 
ENDBRANCH   5   6
ENDBRANCH   4   5
ENDBRANCH   1   4
BRANCH   1  13
HETATM   13  C   UNL     1       3.082   0.671  -1.244  1.00  0.00     0.164 C 
BRANCH  13  14
HETATM   14  N   UNL     1       2.725   2.066  -1.444  1.00  0.00    -0.339 N 
HETATM   15  C   UNL     1       1.610   2.498  -2.111  1.00  0.00     0.184 A 
HETATM   16  N   UNL     1       1.470   3.801  -2.037  1.00  0.00    -0.350 N 
HETATM   17  C   UNL     1       2.541   4.232  -1.294  1.00  0.00     0.060 A 
ATOM     18  HN  UNL     1       0.727   4.370  -2.443  1.00  0.00     0.166 HD
HETATM   19  C   UNL     1       2.863   5.528  -0.868  1.00  0.00     0.032 A 
HETATM   20  C   UNL     1       3.374   3.168  -0.945  1.00  0.00     0.062 A 
HETATM   21  C   UNL     1       4.026   5.720  -0.115  1.00  0.00     0.002 A 
HETATM   22  C   UNL     1       4.865   4.646   0.190  1.00  0.00     0.002 A 
HETATM   23  C   UNL     1       4.558   3.342  -0.219  1.00  0.00     0.032 A 
ENDBRANCH  13  14
ENDBRANCH   1  13
TORSDOF 6
