REMARK  5 active torsions:
REMARK  status: ('A' for Active; 'I' for Inactive)
REMARK    1  A    between atoms: C_2  and  N_3 
REMARK    2  A    between atoms: C_6  and  C_7 
REMARK    3  A    between atoms: C_7  and  N_8 
REMARK       I    between atoms: N_8  and  C_9 
REMARK       I    between atoms: C_9  and  N_11 
REMARK    4  A    between atoms: N_11  and  C_12 
REMARK    5  A    between atoms: N_16  and  C_17 
ROOT
HETATM    1  N   UNL     1       4.134   2.934  -4.796  1.00  0.00    -0.342 N 
HETATM    2  C   UNL     1       3.725   2.913  -6.104  1.00  0.00     0.320 C 
HETATM    3  O   UNL     1       4.420   3.451  -6.959  1.00  0.00    -0.247 OA
HETATM    4  N   UNL     1       2.546   2.251  -6.319  1.00  0.00    -0.306 N 
HETATM    5  H   UNL     1       5.034   3.378  -4.661  1.00  0.00     0.164 HD
HETATM    6  H   UNL     1       2.196   1.660  -5.586  1.00  0.00     0.171 HD
ENDROOT
BRANCH   1   7
HETATM    7  C   UNL     1       3.368   2.467  -3.656  1.00  0.00     0.130 C 
BRANCH   7   8
HETATM    8  C   UNL     1       4.080   2.620  -2.313  1.00  0.00     0.033 C 
HETATM    9  C   UNL     1       5.352   1.777  -2.233  1.00  0.00     0.038 C 
HETATM   10  C   UNL     1       4.918   0.450  -1.612  1.00  0.00     0.273 C 
HETATM   11  N   UNL     1       3.479   0.585  -1.348  1.00  0.00     0.088 N 
HETATM   12  C   UNL     1       3.220   2.021  -1.199  1.00  0.00     0.278 C 
BRANCH  11  13
HETATM   13  C   UNL     1       3.058  -0.229  -0.207  1.00  0.00     0.268 C 
HETATM   14  C   UNL     1       1.553  -0.186   0.035  1.00  0.00     0.037 C 
ENDBRANCH  11  13
ENDBRANCH   7   8
ENDBRANCH   1   7
BRANCH   4  15
HETATM   15  C   UNL     1       1.946   2.088  -7.544  1.00  0.00     0.070 A 
HETATM   16  C   UNL     1       2.149   2.711  -8.790  1.00  0.00     0.138 A 
HETATM   17  N   UNL     1       1.365   2.192  -9.744  1.00  0.00    -0.308 N 
HETATM   18  N   UNL     1       0.687   1.224  -9.100  1.00  0.00    -0.302 N 
ATOM     19  HN  UNL     1       1.298   2.465 -10.724  1.00  0.00     0.186 HD
HETATM   20  C   UNL     1       0.950   1.169  -7.764  1.00  0.00     0.141 A 
BRANCH  18  21
HETATM   21  C   UNL     1      -0.153   0.304  -9.838  1.00  0.00     0.143 C 
HETATM   22  C   UNL     1       0.630  -0.915 -10.299  1.00  0.00     0.028 C 
ENDBRANCH  18  21
ENDBRANCH   4  15
TORSDOF 5
