REMARK  5 active torsions:
REMARK  status: ('A' for Active; 'I' for Inactive)
REMARK    1  A    between atoms: N_2  and  C_4 
REMARK    2  A    between atoms: C_7  and  N_8 
REMARK       I    between atoms: N_8  and  C_9 
REMARK       I    between atoms: C_9  and  N_11 
REMARK    3  A    between atoms: N_11  and  C_12 
REMARK    4  A    between atoms: C_12  and  C_13 
REMARK    5  A    between atoms: C_17  and  O_18 
ROOT
HETATM    1  N   UNL     1       5.089   4.699  -1.344  1.00  0.00    -0.308 N 
HETATM    2  C   UNL     1       6.280   4.754  -2.033  1.00  0.00     0.320 C 
HETATM    3  O   UNL     1       7.009   3.801  -2.277  1.00  0.00    -0.247 OA
HETATM    4  N   UNL     1       6.604   6.020  -2.453  1.00  0.00    -0.342 N 
HETATM    5  H   UNL     1       4.708   5.571  -1.011  1.00  0.00     0.170 HD
HETATM    6  H   UNL     1       6.083   6.816  -2.119  1.00  0.00     0.164 HD
ENDROOT
BRANCH   1   7
HETATM    7  C   UNL     1       4.491   3.503  -0.874  1.00  0.00     0.051 A 
HETATM    8  C   UNL     1       4.825   2.249  -1.356  1.00  0.00     0.035 A 
HETATM    9  C   UNL     1       4.244   1.107  -0.804  1.00  0.00     0.050 A 
HETATM   10  C   UNL     1       3.331   1.208   0.245  1.00  0.00     0.102 A 
HETATM   11  N   UNL     1       2.942   2.433   0.672  1.00  0.00    -0.350 N 
HETATM   12  C   UNL     1       3.514   3.535   0.111  1.00  0.00     0.119 A 
ATOM     13  HN  UNL     1       2.234   2.529   1.400  1.00  0.00     0.166 HD
BRANCH  10  14
HETATM   14  N   UNL     1       2.797   0.058   0.844  1.00  0.00    -0.376 N 
HETATM   15  C   UNL     1       3.651  -1.126   0.892  1.00  0.00     0.150 C 
HETATM   16  C   UNL     1       1.962   0.305   2.010  1.00  0.00     0.150 C 
ENDBRANCH  10  14
ENDBRANCH   1   7
BRANCH   4  17
HETATM   17  C   UNL     1       7.812   6.248  -3.234  1.00  0.00     0.131 C 
BRANCH  17  18
HETATM   18  C   UNL     1       9.046   6.450  -2.354  1.00  0.00     0.032 C 
HETATM   19  C   UNL     1       8.996   7.755  -1.546  1.00  0.00     0.009 C 
HETATM   20  C   UNL     1      10.439   8.251  -1.438  1.00  0.00     0.003 C 
HETATM   21  C   UNL     1      11.305   7.218  -2.156  1.00  0.00     0.032 C 
HETATM   22  C   UNL     1      10.356   6.546  -3.142  1.00  0.00     0.123 C 
BRANCH  22  23
HETATM   23  O   UNL     1      10.214   7.337  -4.317  1.00  0.00    -0.395 OA
HETATM   24  H   UNL     1      10.052   8.260  -4.059  1.00  0.00     0.210 HD
ENDBRANCH  22  23
ENDBRANCH  17  18
ENDBRANCH   4  17
TORSDOF 5
