REMARK  6 active torsions:
REMARK  status: ('A' for Active; 'I' for Inactive)
REMARK    1  A    between atoms: O_2  and  C_3 
REMARK    2  A    between atoms: C_3  and  C_4 
REMARK    3  A    between atoms: C_4  and  N_5 
REMARK    4  A    between atoms: C_6  and  S_7 
REMARK    5  A    between atoms: S_7  and  C_8 
REMARK    6  A    between atoms: C_8  and  C_9 
REMARK       I    between atoms: C_9  and  N_11 
ROOT
HETATM    1  N   UNL     1       4.943   0.312   2.506  1.00  0.00    -0.324 N 
HETATM    2  C   UNL     1       5.070   1.574   3.043  1.00  0.00     0.148 A 
HETATM    3  N   UNL     1       5.599   1.559   4.247  1.00  0.00    -0.335 N 
ATOM      4  HN  UNL     1       5.840   2.360   4.830  1.00  0.00     0.168 HD
HETATM    5  C   UNL     1       5.755   0.229   4.547  1.00  0.00     0.061 A 
HETATM    6  C   UNL     1       6.195  -0.363   5.744  1.00  0.00     0.032 A 
HETATM    7  C   UNL     1       6.300  -1.755   5.830  1.00  0.00     0.002 A 
HETATM    8  C   UNL     1       5.993  -2.553   4.737  1.00  0.00     0.002 A 
HETATM    9  C   UNL     1       5.548  -1.985   3.543  1.00  0.00     0.032 A 
HETATM   10  C   UNL     1       5.406  -0.584   3.464  1.00  0.00     0.063 A 
ENDROOT
BRANCH   2  11
HETATM   11  S   UNL     1       4.515   3.009   2.238  1.00  0.00    -0.084 SA
BRANCH  11  12
HETATM   12  C   UNL     1       5.942   4.107   2.425  1.00  0.00     0.184 C 
BRANCH  12  13
HETATM   13  C   UNL     1       7.085   3.620   1.547  1.00  0.00     0.225 C 
HETATM   14  O   UNL     1       7.130   3.773   0.333  1.00  0.00    -0.273 OA
HETATM   15  N   UNL     1       8.089   2.969   2.210  1.00  0.00    -0.369 N 
HETATM   16  H   UNL     1       7.927   2.574   3.131  1.00  0.00     0.159 HD
HETATM   17  H   UNL     1       8.809   2.548   1.636  1.00  0.00     0.159 HD
ENDBRANCH  12  13
ENDBRANCH  11  12
ENDBRANCH   2  11
BRANCH   1  18
HETATM   18  C   UNL     1       4.377   0.029   1.189  1.00  0.00     0.157 C 
BRANCH  18  19
HETATM   19  C   UNL     1       4.368  -1.438   0.798  1.00  0.00     0.187 C 
BRANCH  19  20
HETATM   20  O   UNL     1       3.839  -1.694  -0.503  1.00  0.00    -0.394 OA
HETATM   21  C   UNL     1       3.872  -3.103  -0.746  1.00  0.00     0.201 C 
ENDBRANCH  19  20
ENDBRANCH  18  19
ENDBRANCH   1  18
TORSDOF 6
