REMARK  7 active torsions:
REMARK  status: ('A' for Active; 'I' for Inactive)
REMARK    1  A    between atoms: C_2  and  C_3 
REMARK       I    between atoms: C_2  and  N_17 
REMARK    2  A    between atoms: C_3  and  N_4 
REMARK    3  A    between atoms: C_6  and  C_11 
REMARK       I    between atoms: C_11  and  N_13 
REMARK    4  A    between atoms: N_13  and  C_14 
REMARK    5  A    between atoms: N_17  and  C_18 
REMARK    6  A    between atoms: C_18  and  C_19 
REMARK    7  A    between atoms: C_19  and  C_20 
ROOT
HETATM    1  C   UNL     1       0.405  -6.873  -0.281  1.00  0.00     0.216 C 
HETATM    2  C   UNL     1      -1.025  -6.570  -0.180  1.00  0.00    -0.098 C 
HETATM    3  C   UNL     1      -2.198  -6.327  -0.106  1.00  0.00     0.014 C 
ENDROOT
BRANCH   1   4
HETATM    4  N   UNL     1       1.176  -5.658  -0.179  1.00  0.00    -0.346 N 
HETATM    5  C   UNL     1       2.545  -5.708  -0.249  1.00  0.00     0.253 C 
HETATM    6  O   UNL     1       3.160  -6.764  -0.374  1.00  0.00    -0.268 OA
HETATM    7  H   UNL     1       0.680  -4.781  -0.236  1.00  0.00     0.163 HD
BRANCH   5   8
HETATM    8  C   UNL     1       3.279  -4.396  -0.211  1.00  0.00     0.047 A 
HETATM    9  C   UNL     1       2.753  -3.272   0.311  1.00  0.00     0.111 A 
HETATM   10  N   UNL     1       3.470  -2.082   0.358  1.00  0.00    -0.315 N 
HETATM   11  C   UNL     1       4.751  -1.959  -0.170  1.00  0.00     0.247 A 
HETATM   12  C   UNL     1       5.361  -3.212  -0.682  1.00  0.00     0.075 A 
HETATM   13  O   UNL     1       5.377  -0.902  -0.220  1.00  0.00    -0.268 OA
HETATM   14  C   UNL     1       4.651  -4.350  -0.688  1.00  0.00     0.024 A 
BRANCH  10  15
HETATM   15  C   UNL     1       2.874  -0.896   0.969  1.00  0.00     0.234 C 
BRANCH  15  16
HETATM   16  C   UNL     1       2.162  -0.043  -0.079  1.00  0.00     0.235 C 
HETATM   17  O   UNL     1       1.024  -0.303  -0.466  1.00  0.00    -0.272 OA
HETATM   18  N   UNL     1       2.928   0.992  -0.581  1.00  0.00    -0.359 N 
HETATM   19  H   UNL     1       3.937   0.888  -0.480  1.00  0.00     0.162 HD
BRANCH  18  20
HETATM   20  C   UNL     1       2.443   1.819  -1.672  1.00  0.00     0.127 C 
BRANCH  20  21
HETATM   21  C   UNL     1       3.171   3.164  -1.733  1.00  0.00     0.053 C 
BRANCH  21  22
HETATM   22  C   UNL     1       2.637   4.055  -2.835  1.00  0.00    -0.082 A 
HETATM   23  C   UNL     1       1.638   4.918  -2.598  1.00  0.00    -0.024 A 
HETATM   24  C   UNL     1       1.018   5.806  -3.619  1.00  0.00     0.027 A 
HETATM   25  C   UNL     1       1.594   5.751  -5.029  1.00  0.00     0.004 A 
HETATM   26  C   UNL     1       2.764   4.811  -5.307  1.00  0.00     0.005 A 
HETATM   27  C   UNL     1       3.282   3.917  -4.180  1.00  0.00     0.034 A 
ENDBRANCH  21  22
ENDBRANCH  20  21
ENDBRANCH  18  20
ENDBRANCH  15  16
ENDBRANCH  10  15
ENDBRANCH   5   8
ENDBRANCH   1   4
TORSDOF 7
