REMARK  5 active torsions:
REMARK  status: ('A' for Active; 'I' for Inactive)
REMARK    1  A    between atoms: C_2  and  N_3 
REMARK    2  A    between atoms: C_2  and  C_14 
REMARK    3  A    between atoms: N_3  and  C_4 
REMARK    4  A    between atoms: C_4  and  C_5 
REMARK       I    between atoms: C_5  and  N_7 
REMARK    5  A    between atoms: C_14  and  N_16 
ROOT
HETATM    1  N   UNL     1       2.864  -1.443  -0.611  1.00  0.00     0.098 N 
HETATM    2  H   UNL     1       3.865  -1.458  -0.825  1.00  0.00     0.317 HD
ENDROOT
BRANCH   1   3
HETATM    3  C   UNL     1       2.511  -0.156   0.041  1.00  0.00     0.241 C 
HETATM    4  C   UNL     1       3.327   0.036   1.330  1.00  0.00     0.045 C 
BRANCH   3   5
HETATM    5  C   UNL     1       0.973   0.063   0.251  1.00  0.00     0.136 C 
HETATM    6  C   UNL     1       0.632   1.402   0.917  1.00  0.00     0.036 C 
BRANCH   5   7
HETATM    7  N   UNL     1       0.174  -0.053  -0.975  1.00  0.00    -0.297 N 
HETATM    8  C   UNL     1       0.522   0.280  -2.252  1.00  0.00     0.118 A 
HETATM    9  C   UNL     1      -0.584   0.045  -3.046  1.00  0.00    -0.028 A 
HETATM   10  C   UNL     1      -0.703   0.167  -4.518  1.00  0.00     0.051 C 
HETATM   11  C   UNL     1      -1.569  -0.374  -2.126  1.00  0.00     0.115 A 
HETATM   12  N   UNL     1      -1.109  -0.459  -0.876  1.00  0.00    -0.309 N 
ATOM     13  HN  UNL     1      -1.610  -0.761  -0.041  1.00  0.00     0.186 HD
ENDBRANCH   5   7
ENDBRANCH   3   5
ENDBRANCH   1   3
BRANCH   1  14
HETATM   14  C   UNL     1       2.571  -2.628   0.215  1.00  0.00     0.372 C 
BRANCH  14  15
HETATM   15  C   UNL     1       2.900  -3.919  -0.545  1.00  0.00     0.248 C 
HETATM   16  O   UNL     1       4.041  -4.386  -0.497  1.00  0.00    -0.271 OA
HETATM   17  N   UNL     1       1.871  -4.550  -1.220  1.00  0.00    -0.346 N 
HETATM   18  C   UNL     1       2.033  -5.925  -1.688  1.00  0.00     0.152 C 
HETATM   19  C   UNL     1       0.632  -3.906  -1.675  1.00  0.00     0.157 C 
HETATM   20  C   UNL     1       1.828  -6.021  -3.199  1.00  0.00     0.188 C 
HETATM   21  O   UNL     1       0.561  -5.462  -3.578  1.00  0.00    -0.383 OA
HETATM   22  C   UNL     1       0.479  -4.077  -3.201  1.00  0.00     0.135 C 
HETATM   23  C   UNL     1      -0.864  -3.573  -3.689  1.00  0.00     0.041 C 
ENDBRANCH  14  15
ENDBRANCH   1  14
TORSDOF 5
