REMARK  6 active torsions:
REMARK  status: ('A' for Active; 'I' for Inactive)
REMARK    1  A    between atoms: C_2  and  C_4 
REMARK    2  A    between atoms: C_7  and  C_8 
REMARK    3  A    between atoms: C_8  and  C_9 
REMARK    4  A    between atoms: C_9  and  N_10 
REMARK       I    between atoms: N_10  and  C_11 
REMARK    5  A    between atoms: C_11  and  C_13 
REMARK    6  A    between atoms: C_13  and  C_14 
ROOT
HETATM    1  C   UNL     1       4.706  -5.003   2.730  1.00  0.00     0.128 C 
ENDROOT
BRANCH   1   2
HETATM    2  C   UNL     1       4.804  -3.477   2.729  1.00  0.00     0.077 C 
BRANCH   2   3
HETATM    3  C   UNL     1       6.138  -2.976   2.269  1.00  0.00     0.018 A 
HETATM    4  N   UNL     1       6.619  -3.367   1.027  1.00  0.00    -0.356 N 
HETATM    5  C   UNL     1       7.796  -2.819   0.798  1.00  0.00     0.054 A 
ATOM      6  HN  UNL     1       6.131  -3.990   0.383  1.00  0.00     0.166 HD
HETATM    7  S   UNL     1       8.387  -1.806   2.059  1.00  0.00    -0.086 SA
HETATM    8  C   UNL     1       6.969  -2.119   2.962  1.00  0.00     0.076 A 
BRANCH   5   9
HETATM    9  C   UNL     1       8.619  -3.031  -0.448  1.00  0.00     0.035 C 
HETATM   10  C   UNL     1       8.970  -4.510  -0.614  1.00  0.00     0.016 C 
HETATM   11  C   UNL     1       7.886  -2.509  -1.683  1.00  0.00     0.016 C 
ENDBRANCH   5   9
ENDBRANCH   2   3
ENDBRANCH   1   2
BRANCH   1  12
HETATM   12  N   UNL     1       5.556  -5.630   3.730  1.00  0.00    -0.361 N 
HETATM   13  C   UNL     1       5.110  -5.874   5.005  1.00  0.00     0.218 C 
HETATM   14  O   UNL     1       3.980  -5.582   5.387  1.00  0.00    -0.274 OA
HETATM   15  H   UNL     1       6.541  -5.729   3.517  1.00  0.00     0.162 HD
BRANCH  13  16
HETATM   16  C   UNL     1       6.111  -6.563   5.912  1.00  0.00     0.111 C 
BRANCH  16  17
HETATM   17  C   UNL     1       6.993  -5.628   6.738  1.00  0.00     0.017 A 
HETATM   18  C   UNL     1       6.223  -4.584   7.567  1.00  0.00     0.012 A 
HETATM   19  C   UNL     1       6.737  -3.204   7.149  1.00  0.00     0.027 A 
HETATM   20  C   UNL     1       7.850  -3.503   6.205  1.00  0.00    -0.030 A 
HETATM   21  C   UNL     1       7.973  -4.807   5.956  1.00  0.00    -0.026 A 
ENDBRANCH  16  17
ENDBRANCH  13  16
ENDBRANCH   1  12
TORSDOF 6
