REMARK  4 active torsions:
REMARK  status: ('A' for Active; 'I' for Inactive)
REMARK    1  A    between atoms: C_2  and  C_4 
REMARK    2  A    between atoms: C_10  and  N_11 
REMARK       I    between atoms: N_11  and  C_12 
REMARK    3  A    between atoms: C_12  and  C_14 
REMARK    4  A    between atoms: C_14  and  N_15 
ROOT
HETATM    1  N   UNL     1       1.471   0.570  -2.753  1.00  0.00    -0.355 N 
HETATM    2  C   UNL     1       2.171   0.019  -3.808  1.00  0.00     0.236 C 
HETATM    3  O   UNL     1       3.323   0.352  -4.078  1.00  0.00    -0.272 OA
HETATM    4  H   UNL     1       0.514   0.284  -2.585  1.00  0.00     0.162 HD
ENDROOT
BRANCH   1   5
HETATM    5  C   UNL     1       2.084   1.534  -1.851  1.00  0.00     0.089 C 
HETATM    6  C   UNL     1       3.067   0.913  -0.808  1.00  0.00     0.012 C 
HETATM    7  C   UNL     1       3.706   2.096  -0.034  1.00  0.00     0.007 C 
HETATM    8  C   UNL     1       2.662   2.988   0.644  1.00  0.00     0.005 C 
HETATM    9  C   UNL     1       1.647   3.563  -0.352  1.00  0.00    -0.017 C 
HETATM   10  C   UNL     1       2.283   4.662  -1.214  1.00  0.00     0.010 C 
HETATM   11  C   UNL     1       1.027   2.443  -1.206  1.00  0.00     0.029 C 
BRANCH   6  12
HETATM   12  C   UNL     1       2.499  -0.174   0.171  1.00  0.00    -0.017 C 
HETATM   13  C   UNL     1       1.854  -1.379  -0.523  1.00  0.00     0.010 C 
HETATM   14  C   UNL     1       3.609  -0.731   1.085  1.00  0.00     0.010 C 
ENDBRANCH   6  12
ENDBRANCH   1   5
BRANCH   2  15
HETATM   15  C   UNL     1       1.413  -1.030  -4.627  1.00  0.00     0.235 C 
BRANCH  15  16
HETATM   16  N   UNL     1       1.232  -0.640  -6.029  1.00  0.00    -0.301 N 
HETATM   17  C   UNL     1       2.339  -0.466  -6.838  1.00  0.00     0.102 A 
HETATM   18  C   UNL     1       2.236  -0.078  -8.110  1.00  0.00     0.092 A 
HETATM   19  C   UNL     1       0.898   0.146  -8.674  1.00  0.00     0.250 A 
HETATM   20  O   UNL     1       0.752   0.526  -9.830  1.00  0.00    -0.268 OA
HETATM   21  N   UNL     1      -0.149  -0.091  -7.832  1.00  0.00    -0.275 N 
HETATM   22  C   UNL     1      -0.056  -0.441  -6.509  1.00  0.00     0.329 A 
HETATM   23  H   UNL     1      -1.075   0.057  -8.200  1.00  0.00     0.173 HD
HETATM   24  O   UNL     1      -1.072  -0.566  -5.828  1.00  0.00    -0.246 OA
ENDBRANCH  15  16
ENDBRANCH   2  15
TORSDOF 4
