REMARK  3 active torsions:
REMARK  status: ('A' for Active; 'I' for Inactive)
REMARK    1  A    between atoms: O_2  and  C_3 
REMARK    2  A    between atoms: C_4  and  N_5 
REMARK       I    between atoms: N_5  and  C_6 
REMARK       I    between atoms: C_6  and  N_8 
REMARK    3  A    between atoms: N_8  and  C_9 
ROOT
HETATM    1  C   UNL     1       3.278  -0.414  -1.098  1.00  0.00     0.188 A 
HETATM    2  C   UNL     1       3.118  -1.766  -1.378  1.00  0.00     0.113 A 
HETATM    3  C   UNL     1       3.770  -1.962  -2.636  1.00  0.00     0.053 A 
HETATM    4  C   UNL     1       4.032  -3.215  -3.390  1.00  0.00     0.072 C 
HETATM    5  N   UNL     1       4.269  -0.817  -3.118  1.00  0.00    -0.299 N 
ATOM      6  HN  UNL     1       4.790  -0.673  -3.983  1.00  0.00     0.187 HD
HETATM    7  N   UNL     1       3.925   0.097  -2.199  1.00  0.00    -0.273 N 
HETATM    8  C   UNL     1       4.269   1.484  -2.411  1.00  0.00     0.180 C 
ENDROOT
BRANCH   2   9
HETATM    9  N   UNL     1       2.480  -2.702  -0.570  1.00  0.00    -0.303 N 
HETATM   10  C   UNL     1       1.628  -3.654  -1.093  1.00  0.00     0.321 C 
HETATM   11  O   UNL     1       1.293  -3.740  -2.269  1.00  0.00    -0.247 OA
HETATM   12  N   UNL     1       1.149  -4.505  -0.114  1.00  0.00    -0.338 N 
HETATM   13  H   UNL     1       1.534  -4.452   0.818  1.00  0.00     0.164 HD
HETATM   14  H   UNL     1       2.269  -2.424   0.370  1.00  0.00     0.171 HD
BRANCH  12  15
HETATM   15  C   UNL     1       0.233  -5.557  -0.423  1.00  0.00     0.090 A 
HETATM   16  C   UNL     1       0.290  -6.883   0.294  1.00  0.00     0.032 A 
HETATM   17  C   UNL     1       0.655  -6.802  -1.162  1.00  0.00     0.006 A 
HETATM   18  C   UNL     1       2.065  -7.029  -1.595  1.00  0.00     0.012 C 
ENDBRANCH  12  15
ENDBRANCH   2   9
BRANCH   1  19
HETATM   19  O   UNL     1       2.924   0.440  -0.128  1.00  0.00    -0.338 OA
HETATM   20  C   UNL     1       2.474  -0.092   1.103  1.00  0.00     0.211 C 
ENDBRANCH   1  19
TORSDOF 3
