REMARK  7 active torsions:
REMARK  status: ('A' for Active; 'I' for Inactive)
REMARK    1  A    between atoms: C_7  and  O_8 
REMARK    2  A    between atoms: O_8  and  C_9 
REMARK    3  A    between atoms: C_9  and  C_10 
REMARK    4  A    between atoms: C_10  and  O_11 
REMARK    5  A    between atoms: C_10  and  C_12 
REMARK    6  A    between atoms: C_12  and  N_13 
REMARK    7  A    between atoms: C_16  and  C_21 
ROOT
HETATM    1  C   UNL     1      -0.802  -4.107  -0.093  1.00  0.00     0.186 C 
ENDROOT
BRANCH   1   2
HETATM    2  C   UNL     1       0.733  -3.968  -0.093  1.00  0.00     0.162 C 
BRANCH   2   3
HETATM    3  C   UNL     1       1.137  -2.489  -0.070  1.00  0.00     0.209 C 
BRANCH   3   4
HETATM    4  O   UNL     1       2.541  -2.341  -0.216  1.00  0.00    -0.348 OA
BRANCH   4   5
HETATM    5  C   UNL     1       3.091  -1.086  -0.198  1.00  0.00     0.074 A 
HETATM    6  C   UNL     1       2.470   0.177  -0.136  1.00  0.00    -0.029 A 
HETATM    7  C   UNL     1       0.991   0.436  -0.040  1.00  0.00     0.051 C 
HETATM    8  C   UNL     1       3.289   1.327  -0.170  1.00  0.00     0.009 A 
HETATM    9  C   UNL     1       4.678   1.242  -0.252  1.00  0.00     0.001 A 
HETATM   10  C   UNL     1       5.285  -0.003  -0.296  1.00  0.00     0.003 A 
HETATM   11  C   UNL     1       4.495  -1.152  -0.268  1.00  0.00     0.037 A 
ENDBRANCH   4   5
ENDBRANCH   3   4
ENDBRANCH   2   3
BRANCH   2  12
HETATM   12  O   UNL     1       1.286  -4.668   1.031  1.00  0.00    -0.392 OA
HETATM   13  H   UNL     1       0.690  -4.478   1.784  1.00  0.00     0.210 HD
ENDBRANCH   2  12
ENDBRANCH   1   2
BRANCH   1  14
HETATM   14  N   UNL     1      -1.433  -3.470   1.075  1.00  0.00    -0.255 N 
HETATM   15  N   UNL     1      -1.138  -4.027   2.305  1.00  0.00    -0.291 N 
HETATM   16  C   UNL     1      -1.690  -3.514   3.369  1.00  0.00     0.132 A 
ATOM     17  HN  UNL     1      -0.503  -4.822   2.379  1.00  0.00     0.187 HD
HETATM   18  C   UNL     1      -2.637  -2.373   3.319  1.00  0.00     0.041 A 
HETATM   19  C   UNL     1      -2.868  -1.816   2.130  1.00  0.00     0.078 A 
HETATM   20  C   UNL     1      -2.218  -2.333   0.908  1.00  0.00     0.262 A 
HETATM   21  O   UNL     1      -2.400  -1.753  -0.155  1.00  0.00    -0.267 OA
BRANCH  16  22
HETATM   22  C   UNL     1      -1.355  -4.088   4.748  1.00  0.00     0.433 C 
HETATM   23  F   UNL     1      -2.056  -3.492   5.752  1.00  0.00    -0.165 F 
HETATM   24  F   UNL     1      -1.621  -5.418   4.832  1.00  0.00    -0.165 F 
HETATM   25  F   UNL     1      -0.039  -3.930   5.056  1.00  0.00    -0.165 F 
ENDBRANCH  16  22
ENDBRANCH   1  14
TORSDOF 7
