REMARK  5 active torsions:
REMARK  status: ('A' for Active; 'I' for Inactive)
REMARK    1  A    between atoms: C_2  and  C_3 
REMARK    2  A    between atoms: C_2  and  N_10 
REMARK    3  A    between atoms: C_3  and  N_4 
REMARK       I    between atoms: N_10  and  C_11 
REMARK    4  A    between atoms: C_11  and  C_13 
REMARK    5  A    between atoms: C_13  and  N_14 
ROOT
HETATM    1  N   UNL     1       3.065   0.045  -1.369  1.00  0.00    -0.353 N 
HETATM    2  C   UNL     1       4.430  -0.003  -1.551  1.00  0.00     0.256 C 
HETATM    3  O   UNL     1       5.219   0.066  -0.612  1.00  0.00    -0.271 OA
HETATM    4  H   UNL     1       2.511   0.009  -2.223  1.00  0.00     0.163 HD
ENDROOT
BRANCH   1   5
HETATM    5  C   UNL     1       2.446   0.070  -0.045  1.00  0.00     0.098 C 
HETATM    6  C   UNL     1       1.004   0.558  -0.164  1.00  0.00     0.034 C 
BRANCH   5   7
HETATM    7  C   UNL     1       2.536  -1.313   0.638  1.00  0.00     0.153 C 
BRANCH   7   8
HETATM    8  N   UNL     1       2.029  -1.347   1.995  1.00  0.00    -0.350 N 
HETATM    9  C   UNL     1       0.977  -2.092   2.451  1.00  0.00     0.108 A 
HETATM   10  C   UNL     1       0.890  -1.800   3.793  1.00  0.00     0.106 A 
HETATM   11  N   UNL     1       1.868  -0.913   4.161  1.00  0.00    -0.361 N 
HETATM   12  C   UNL     1       2.550  -0.672   3.064  1.00  0.00     0.182 A 
ATOM     13  HN  UNL     1       2.032  -0.523   5.089  1.00  0.00     0.166 HD
ENDBRANCH   7   8
ENDBRANCH   5   7
ENDBRANCH   1   5
BRANCH   2  14
HETATM   14  C   UNL     1       4.873  -0.169  -3.031  1.00  0.00     0.234 C 
HETATM   15  C   UNL     1       5.938  -1.279  -3.144  1.00  0.00     0.051 C 
HETATM   16  C   UNL     1       6.985  -0.796  -4.148  1.00  0.00     0.003 C 
HETATM   17  C   UNL     1       6.513   0.562  -4.647  1.00  0.00     0.003 C 
HETATM   18  C   UNL     1       5.603   1.081  -3.540  1.00  0.00     0.051 C 
BRANCH  14  19
HETATM   19  N   UNL     1       3.702  -0.482  -3.896  1.00  0.00     0.097 N 
HETATM   20  H   UNL     1       3.409  -1.442  -3.706  1.00  0.00     0.314 HD
HETATM   21  H   UNL     1       4.003  -0.485  -4.873  1.00  0.00     0.314 HD
ENDBRANCH  14  19
ENDBRANCH   2  14
TORSDOF 5
