REMARK  4 active torsions:
REMARK  status: ('A' for Active; 'I' for Inactive)
REMARK    1  A    between atoms: C_2  and  S_3 
REMARK    2  A    between atoms: S_3  and  C_4 
REMARK    3  A    between atoms: C_7  and  N_8 
REMARK       I    between atoms: N_8  and  C_9 
REMARK       I    between atoms: C_9  and  N_11 
REMARK    4  A    between atoms: N_11  and  C_12 
ROOT
HETATM    1  N   UNL     1       9.070  -0.508  -1.083  1.00  0.00    -0.308 N 
HETATM    2  C   UNL     1       9.798   0.078  -0.072  1.00  0.00     0.321 C 
HETATM    3  O   UNL     1       9.368   0.877   0.753  1.00  0.00    -0.247 OA
HETATM    4  N   UNL     1      11.105  -0.359  -0.041  1.00  0.00    -0.338 N 
HETATM    5  H   UNL     1       9.478  -1.332  -1.505  1.00  0.00     0.170 HD
HETATM    6  H   UNL     1      11.507  -0.630  -0.928  1.00  0.00     0.164 HD
ENDROOT
BRANCH   1   7
HETATM    7  C   UNL     1       7.718  -0.218  -1.384  1.00  0.00     0.051 A 
HETATM    8  C   UNL     1       7.055   0.907  -0.902  1.00  0.00     0.034 A 
HETATM    9  C   UNL     1       5.721   1.131  -1.236  1.00  0.00     0.039 A 
HETATM   10  C   UNL     1       5.070   0.221  -2.055  1.00  0.00     0.069 A 
HETATM   11  N   UNL     1       5.680  -0.879  -2.551  1.00  0.00    -0.358 N 
HETATM   12  C   UNL     1       6.984  -1.065  -2.208  1.00  0.00     0.118 A 
ATOM     13  HN  UNL     1       5.187  -1.538  -3.153  1.00  0.00     0.166 HD
BRANCH  10  14
HETATM   14  S   UNL     1       3.388   0.577  -2.524  1.00  0.00    -0.113 SA
BRANCH  14  15
HETATM   15  C   UNL     1       2.752  -1.103  -2.786  1.00  0.00     0.076 C 
HETATM   16  C   UNL     1       1.284  -1.022  -3.175  1.00  0.00     0.016 C 
ENDBRANCH  14  15
ENDBRANCH  10  14
ENDBRANCH   1   7
BRANCH   4  17
HETATM   17  C   UNL     1      12.016   0.191   0.969  1.00  0.00     0.089 C 
HETATM   18  C   UNL     1      12.650   1.510   0.512  1.00  0.00     0.055 C 
HETATM   19  C   UNL     1      13.772   1.285  -0.503  1.00  0.00     0.274 C 
HETATM   20  N   UNL     1      14.786   0.314  -0.074  1.00  0.00     0.084 N 
HETATM   21  C   UNL     1      15.669   0.857   0.958  1.00  0.00     0.309 C 
HETATM   22  C   UNL     1      14.180  -0.960   0.325  1.00  0.00     0.274 C 
HETATM   23  C   UNL     1      13.081  -0.825   1.376  1.00  0.00     0.055 C 
ENDBRANCH   4  17
TORSDOF 4
