REMARK  6 active torsions:
REMARK  status: ('A' for Active; 'I' for Inactive)
REMARK    1  A    between atoms: C_2  and  C_4 
REMARK    2  A    between atoms: C_4  and  N_5 
REMARK    3  A    between atoms: C_8  and  N_11 
REMARK    4  A    between atoms: N_11  and  C_12 
REMARK    5  A    between atoms: C_12  and  C_13 
REMARK    6  A    between atoms: C_13  and  C_14 
ROOT
HETATM    1  N   UNL     1       6.922   0.181  -1.566  1.00  0.00     0.088 N 
HETATM    2  H   UNL     1       7.327   0.373  -0.649  1.00  0.00     0.316 HD
ENDROOT
BRANCH   1   3
HETATM    3  C   UNL     1       5.450   0.212  -1.486  1.00  0.00     0.223 C 
HETATM    4  C   UNL     1       4.975   1.620  -1.088  1.00  0.00     0.066 C 
HETATM    5  C   UNL     1       4.994   1.869   0.422  1.00  0.00     0.274 C 
HETATM    6  N   UNL     1       4.314   0.820   1.205  1.00  0.00     0.088 N 
HETATM    7  C   UNL     1       4.940  -0.474   0.916  1.00  0.00     0.274 C 
HETATM    8  C   UNL     1       4.853  -0.857  -0.556  1.00  0.00     0.066 C 
BRANCH   6   9
HETATM    9  C   UNL     1       2.851   0.854   1.006  1.00  0.00     0.276 C 
BRANCH   9  10
HETATM   10  C   UNL     1       2.036  -0.221   1.762  1.00  0.00     0.006 C 
HETATM   11  C   UNL     1       2.271  -0.176   3.271  1.00  0.00     0.011 C 
HETATM   12  C   UNL     1       0.542  -0.049   1.466  1.00  0.00     0.011 C 
ENDBRANCH   9  10
ENDBRANCH   6   9
ENDBRANCH   1   3
BRANCH   1  13
HETATM   13  C   UNL     1       7.483  -1.077  -2.086  1.00  0.00     0.274 C 
BRANCH  13  14
HETATM   14  C   UNL     1       6.946  -1.483  -3.469  1.00  0.00     0.069 C 
BRANCH  14  15
HETATM   15  C   UNL     1       7.394  -2.860  -3.892  1.00  0.00    -0.048 A 
HETATM   16  C   UNL     1       8.639  -3.005  -4.510  1.00  0.00     0.024 A 
HETATM   17  C   UNL     1       9.044  -4.264  -4.922  1.00  0.00     0.088 A 
HETATM   18  N   UNL     1       8.303  -5.378  -4.757  1.00  0.00    -0.375 N 
HETATM   19  C   UNL     1       7.105  -5.222  -4.152  1.00  0.00     0.094 A 
ATOM     20  HN  UNL     1       8.630  -6.291  -5.073  1.00  0.00     0.164 HD
HETATM   21  C   UNL     1       6.600  -4.008  -3.697  1.00  0.00    -0.040 A 
HETATM   22  C   UNL     1       5.249  -3.972  -3.046  1.00  0.00     0.050 C 
ENDBRANCH  14  15
ENDBRANCH  13  14
ENDBRANCH   1  13
TORSDOF 6
