REMARK  5 active torsions:
REMARK  status: ('A' for Active; 'I' for Inactive)
REMARK    1  A    between atoms: C_2  and  C_3 
REMARK       I    between atoms: C_2  and  N_12 
REMARK    2  A    between atoms: C_3  and  N_4 
REMARK    3  A    between atoms: N_12  and  C_13 
REMARK    4  A    between atoms: N_16  and  C_17 
REMARK    5  A    between atoms: C_17  and  C_18 
ROOT
HETATM    1  C   UNL     1       4.082  -0.557   1.258  1.00  0.00     0.087 C 
HETATM    2  C   UNL     1       4.755   0.817   1.230  1.00  0.00     0.044 C 
HETATM    3  C   UNL     1       4.775   1.401  -0.193  1.00  0.00     0.119 C 
HETATM    4  N   UNL     1       5.291   0.515  -1.255  1.00  0.00    -0.412 N 
HETATM    5  C   UNL     1       4.936  -0.900  -1.104  1.00  0.00     0.119 C 
HETATM    6  C   UNL     1       4.903  -1.453   0.326  1.00  0.00     0.044 C 
ENDROOT
BRANCH   1   7
HETATM    7  N   UNL     1       2.687  -0.465   0.804  1.00  0.00    -0.355 N 
HETATM    8  C   UNL     1       1.489  -0.774   1.365  1.00  0.00     0.236 C 
HETATM    9  O   UNL     1       0.476  -0.490   0.708  1.00  0.00    -0.272 OA
HETATM   10  H   UNL     1       2.544  -0.073  -0.121  1.00  0.00     0.162 HD
BRANCH   8  11
HETATM   11  C   UNL     1       1.357  -1.352   2.763  1.00  0.00     0.235 C 
BRANCH  11  12
HETATM   12  N   UNL     1       1.215  -0.306   3.775  1.00  0.00    -0.301 N 
HETATM   13  C   UNL     1       0.135   0.553   3.728  1.00  0.00     0.097 A 
HETATM   14  C   UNL     1      -0.003   1.535   4.619  1.00  0.00     0.034 A 
HETATM   15  C   UNL     1       1.065   1.598   5.619  1.00  0.00     0.094 A 
HETATM   16  N   UNL     1       2.072   0.800   5.700  1.00  0.00    -0.319 N 
HETATM   17  C   UNL     1       2.190  -0.209   4.772  1.00  0.00     0.326 A 
ATOM     18  HN  UNL     1       2.768   0.913   6.437  1.00  0.00     0.170 HD
HETATM   19  O   UNL     1       3.131  -0.998   4.821  1.00  0.00    -0.246 OA
ENDBRANCH  11  12
ENDBRANCH   8  11
ENDBRANCH   1   7
BRANCH   4  20
HETATM   20  C   UNL     1       6.670   0.850  -1.638  1.00  0.00     0.121 C 
BRANCH  20  21
HETATM   21  C   UNL     1       7.399  -0.011  -2.712  1.00  0.00     0.003 C 
HETATM   22  C   UNL     1       8.839   0.504  -2.927  1.00  0.00     0.006 C 
HETATM   23  C   UNL     1       8.988   1.563  -4.014  1.00  0.00     0.000 C 
HETATM   24  C   UNL     1       8.415   1.073  -5.333  1.00  0.00     0.000 C 
HETATM   25  C   UNL     1       6.938   0.746  -5.182  1.00  0.00     0.000 C 
HETATM   26  C   UNL     1       6.650  -0.235  -4.044  1.00  0.00     0.006 C 
ENDBRANCH  20  21
ENDBRANCH   4  20
TORSDOF 5
