REMARK  4 active torsions:
REMARK  status: ('A' for Active; 'I' for Inactive)
REMARK       I    between atoms: C_2  and  N_3 
REMARK       I    between atoms: C_2  and  N_10 
REMARK    1  A    between atoms: N_3  and  C_4 
REMARK    2  A    between atoms: C_4  and  C_5 
REMARK    3  A    between atoms: N_10  and  C_11 
REMARK    4  A    between atoms: C_16  and  C_18 
ROOT
HETATM    1  O   UNL     1       1.306   0.179   0.099  1.00  0.00    -0.247 OA
HETATM    2  C   UNL     1       2.523   0.026   0.014  1.00  0.00     0.322 C 
HETATM    3  N   UNL     1       3.096  -0.972  -0.710  1.00  0.00    -0.340 N 
HETATM    4  N   UNL     1       3.348   0.846   0.721  1.00  0.00    -0.288 N 
HETATM    5  H   UNL     1       4.089  -0.897  -0.923  1.00  0.00     0.164 HD
HETATM    6  H   UNL     1       2.892   1.517   1.320  1.00  0.00     0.172 HD
ENDROOT
BRANCH   4   7
HETATM    7  C   UNL     1       4.710   0.807   0.698  1.00  0.00     0.169 A 
HETATM    8  N   UNL     1       5.499   0.077  -0.054  1.00  0.00    -0.279 N 
HETATM    9  N   UNL     1       6.828   0.304   0.232  1.00  0.00    -0.296 N 
ATOM     10  HN  UNL     1       5.169  -0.578  -0.763  1.00  0.00     0.189 HD
HETATM   11  C   UNL     1       6.974   1.182   1.203  1.00  0.00     0.074 A 
ATOM     12  HN  UNL     1       7.603  -0.152  -0.249  1.00  0.00     0.187 HD
HETATM   13  S   UNL     1       5.505   1.838   1.799  1.00  0.00    -0.037 SA
BRANCH  11  14
HETATM   14  C   UNL     1       8.342   1.564   1.763  1.00  0.00     0.044 A 
HETATM   15  C   UNL     1       9.526   1.622   0.819  1.00  0.00     0.012 A 
HETATM   16  C   UNL     1       9.416   0.492   1.785  1.00  0.00     0.012 A 
ENDBRANCH  11  14
ENDBRANCH   4   7
BRANCH   3  17
HETATM   17  C   UNL     1       2.338  -1.894  -1.533  1.00  0.00     0.156 C 
BRANCH  17  18
HETATM   18  C   UNL     1       3.058  -3.233  -1.706  1.00  0.00     0.139 C 
HETATM   19  C   UNL     1       3.316  -3.996  -0.412  1.00  0.00     0.035 C 
HETATM   20  C   UNL     1       4.689  -4.610  -0.593  1.00  0.00     0.029 C 
HETATM   21  C   UNL     1       5.125  -4.194  -1.981  1.00  0.00     0.168 C 
HETATM   22  O   UNL     1       4.348  -3.040  -2.312  1.00  0.00    -0.384 OA
ENDBRANCH  17  18
ENDBRANCH   3  17
TORSDOF 4
