REMARK  4 active torsions:
REMARK  status: ('A' for Active; 'I' for Inactive)
REMARK    1  A    between atoms: C_2  and  N_3 
REMARK    2  A    between atoms: C_5  and  N_6 
REMARK       I    between atoms: N_6  and  C_7 
REMARK       I    between atoms: C_7  and  N_9 
REMARK    3  A    between atoms: N_9  and  C_10 
REMARK    4  A    between atoms: N_13  and  C_16 
ROOT
HETATM    1  N   UNL     1       4.683   2.398   3.731  1.00  0.00    -0.306 N 
HETATM    2  C   UNL     1       4.097   3.643   3.731  1.00  0.00     0.321 C 
HETATM    3  O   UNL     1       3.312   4.056   2.881  1.00  0.00    -0.247 OA
HETATM    4  N   UNL     1       4.460   4.436   4.808  1.00  0.00    -0.338 N 
HETATM    5  H   UNL     1       5.397   2.186   4.411  1.00  0.00     0.171 HD
HETATM    6  H   UNL     1       4.794   3.958   5.638  1.00  0.00     0.164 HD
ENDROOT
BRANCH   1   7
HETATM    7  C   UNL     1       4.408   1.439   2.763  1.00  0.00     0.070 A 
HETATM    8  C   UNL     1       3.513   1.530   1.724  1.00  0.00     0.141 A 
HETATM    9  N   UNL     1       3.609   0.374   1.012  1.00  0.00    -0.302 N 
HETATM   10  N   UNL     1       4.486  -0.502   1.539  1.00  0.00    -0.308 N 
HETATM   11  C   UNL     1       4.971   0.151   2.605  1.00  0.00     0.138 A 
ATOM     12  HN  UNL     1       4.724  -1.437   1.207  1.00  0.00     0.186 HD
BRANCH   9  13
HETATM   13  C   UNL     1       2.882   0.069  -0.205  1.00  0.00     0.143 C 
HETATM   14  C   UNL     1       3.621   0.546  -1.444  1.00  0.00     0.028 C 
ENDBRANCH   9  13
ENDBRANCH   1   7
BRANCH   4  15
HETATM   15  C   UNL     1       3.681   5.666   5.003  1.00  0.00     0.089 C 
HETATM   16  C   UNL     1       4.442   6.795   5.701  1.00  0.00     0.055 C 
HETATM   17  C   UNL     1       4.345   6.792   7.225  1.00  0.00     0.275 C 
HETATM   18  N   UNL     1       3.009   6.516   7.763  1.00  0.00     0.093 N 
HETATM   19  C   UNL     1       2.466   5.279   7.192  1.00  0.00     0.275 C 
HETATM   20  C   UNL     1       2.339   5.344   5.672  1.00  0.00     0.055 C 
BRANCH  18  21
HETATM   21  C   UNL     1       2.057   7.641   7.679  1.00  0.00     0.223 A 
HETATM   22  C   UNL     1       2.198   8.857   8.549  1.00  0.00     0.038 A 
HETATM   23  C   UNL     1       1.128   7.850   8.849  1.00  0.00     0.038 A 
ENDBRANCH  18  21
ENDBRANCH   4  15
TORSDOF 4
