REMARK  7 active torsions:
REMARK  status: ('A' for Active; 'I' for Inactive)
REMARK    1  A    between atoms: C_2  and  N_3 
REMARK    2  A    between atoms: N_3  and  C_4 
REMARK    3  A    between atoms: N_3  and  S_6 
REMARK    4  A    between atoms: S_6  and  N_9 
REMARK    5  A    between atoms: N_9  and  C_10 
REMARK    6  A    between atoms: C_10  and  C_11 
REMARK    7  A    between atoms: C_17  and  N_18 
ROOT
HETATM    1  C   UNL     1       7.130  -1.608  -4.162  1.00  0.00    -0.000 A 
HETATM    2  C   UNL     1       6.206  -1.969  -5.165  1.00  0.00     0.013 A 
HETATM    3  C   UNL     1       6.640  -2.436  -6.396  1.00  0.00     0.018 A 
HETATM    4  C   UNL     1       7.996  -2.543  -6.588  1.00  0.00     0.089 A 
HETATM    5  N   UNL     1       8.910  -2.229  -5.646  1.00  0.00    -0.352 N 
ATOM      6  HN  UNL     1       9.905  -2.335  -5.845  1.00  0.00     0.166 HD
HETATM    7  C   UNL     1       8.505  -1.772  -4.432  1.00  0.00     0.110 A 
ENDROOT
BRANCH   1   8
HETATM    8  C   UNL     1       6.643  -0.980  -2.871  1.00  0.00     0.147 C 
BRANCH   8   9
HETATM    9  N   UNL     1       5.188  -0.740  -2.798  1.00  0.00    -0.202 NA
HETATM   10  H   UNL     1       4.887  -0.109  -3.541  1.00  0.00     0.141 HD
BRANCH   9  11
HETATM   11  S   UNL     1       4.638  -0.082  -1.367  1.00  0.00     0.281 S 
HETATM   12  O   UNL     1       3.218   0.112  -1.527  1.00  0.00    -0.194 OA
HETATM   13  O   UNL     1       5.498   1.030  -1.033  1.00  0.00    -0.194 OA
BRANCH  11  14
HETATM   14  N   UNL     1       4.892  -1.310  -0.220  1.00  0.00    -0.198 NA
BRANCH  14  15
HETATM   15  C   UNL     1       4.426  -0.859   1.136  1.00  0.00     0.104 C 
HETATM   16  C   UNL     1       4.763  -1.818   2.266  1.00  0.00     0.021 C 
ENDBRANCH  14  15
BRANCH  14  17
HETATM   17  C   UNL     1       4.499  -2.701  -0.585  1.00  0.00     0.104 C 
HETATM   18  C   UNL     1       3.025  -2.887  -0.879  1.00  0.00     0.021 C 
ENDBRANCH  14  17
ENDBRANCH  11  14
ENDBRANCH   9  11
ENDBRANCH   8   9
ENDBRANCH   1   8
BRANCH   7  19
HETATM   19  N   UNL     1       9.515  -1.470  -3.549  1.00  0.00    -0.363 N 
HETATM   20  C   UNL     1      10.787  -0.948  -4.077  1.00  0.00     0.150 C 
HETATM   21  C   UNL     1      11.977  -1.731  -3.507  1.00  0.00     0.187 C 
HETATM   22  O   UNL     1      11.953  -1.740  -2.071  1.00  0.00    -0.388 OA
HETATM   23  C   UNL     1      10.768  -2.402  -1.618  1.00  0.00     0.187 C 
HETATM   24  C   UNL     1       9.487  -1.710  -2.106  1.00  0.00     0.150 C 
ENDBRANCH   7  19
TORSDOF 7
