REMARK  4 active torsions:
REMARK  status: ('A' for Active; 'I' for Inactive)
REMARK    1  A    between atoms: C_2  and  C_3 
REMARK    2  A    between atoms: C_3  and  C_5 
REMARK       I    between atoms: C_5  and  N_7 
REMARK    3  A    between atoms: N_7  and  C_8 
REMARK    4  A    between atoms: C_11  and  N_15 
ROOT
HETATM    1  C   UNL     1       6.799   1.627   1.846  1.00  0.00     0.107 A 
HETATM    2  C   UNL     1       7.389   2.769   2.365  1.00  0.00     0.051 A 
HETATM    3  C   UNL     1       8.787   2.896   2.317  1.00  0.00     0.034 A 
HETATM    4  C   UNL     1       9.600   1.907   1.751  1.00  0.00     0.046 A 
HETATM    5  C   UNL     1       8.890   0.794   1.305  1.00  0.00     0.119 A 
HETATM    6  N   UNL     1       7.543   0.641   1.334  1.00  0.00    -0.350 N 
ATOM      7  HN  UNL     1       7.107  -0.208   0.973  1.00  0.00     0.166 HD
ENDROOT
BRANCH   1   8
HETATM    8  N   UNL     1       5.397   1.537   1.830  1.00  0.00    -0.313 N 
HETATM    9  C   UNL     1       4.697   0.440   1.356  1.00  0.00     0.227 C 
HETATM   10  O   UNL     1       5.190  -0.619   0.975  1.00  0.00    -0.273 OA
HETATM   11  H   UNL     1       4.882   2.338   2.160  1.00  0.00     0.170 HD
BRANCH   9  12
HETATM   12  C   UNL     1       3.172   0.644   1.319  1.00  0.00     0.074 C 
HETATM   13  C   UNL     1       2.618   0.839   2.729  1.00  0.00     0.020 C 
BRANCH  12  14
HETATM   14  C   UNL     1       2.525  -0.561   0.602  1.00  0.00     0.009 C 
HETATM   15  C   UNL     1       1.018  -0.471   0.416  1.00  0.00     0.006 C 
ENDBRANCH  12  14
ENDBRANCH   9  12
ENDBRANCH   1   8
BRANCH   4  16
HETATM   16  N   UNL     1      10.976   2.026   1.690  1.00  0.00    -0.376 N 
HETATM   17  C   UNL     1      11.631   3.333   1.477  1.00  0.00     0.149 C 
HETATM   18  C   UNL     1      12.293   3.390   0.087  1.00  0.00     0.187 C 
HETATM   19  O   UNL     1      13.187   2.288  -0.133  1.00  0.00    -0.388 OA
HETATM   20  C   UNL     1      12.476   1.043  -0.021  1.00  0.00     0.187 C 
HETATM   21  C   UNL     1      11.865   0.887   1.379  1.00  0.00     0.149 C 
ENDBRANCH   4  16
TORSDOF 4
