REMARK  4 active torsions:
REMARK  status: ('A' for Active; 'I' for Inactive)
REMARK    1  A    between atoms: C_2  and  C_3 
REMARK       I    between atoms: N_5  and  C_10 
REMARK       I    between atoms: C_10  and  N_12 
REMARK    2  A    between atoms: N_12  and  C_13 
REMARK    3  A    between atoms: C_13  and  C_14 
REMARK    4  A    between atoms: C_14  and  C_15 
ROOT
HETATM    1  C   UNL     1       5.591   2.312  -1.519  1.00  0.00     0.139 C 
HETATM    2  C   UNL     1       4.457   1.398  -2.022  1.00  0.00     0.159 C 
HETATM    3  N   UNL     1       3.165   2.081  -1.941  1.00  0.00    -0.329 N 
HETATM    4  C   UNL     1       2.872   2.591  -0.595  1.00  0.00     0.159 C 
HETATM    5  C   UNL     1       4.023   3.500  -0.128  1.00  0.00     0.136 C 
HETATM    6  C   UNL     1       3.816   3.985   1.298  1.00  0.00     0.041 C 
HETATM    7  O   UNL     1       5.284   2.804  -0.190  1.00  0.00    -0.378 OA
HETATM    8  C   UNL     1       2.370   2.148  -3.059  1.00  0.00     0.318 C 
HETATM    9  O   UNL     1       2.697   1.657  -4.135  1.00  0.00    -0.247 OA
HETATM   10  N   UNL     1       1.169   2.786  -2.894  1.00  0.00    -0.343 N 
HETATM   11  H   UNL     1       1.216   3.585  -2.281  1.00  0.00     0.164 HD
ENDROOT
BRANCH  10  12
HETATM   12  C   UNL     1       0.247   2.946  -4.006  1.00  0.00     0.129 C 
BRANCH  12  13
HETATM   13  C   UNL     1      -0.304   1.625  -4.557  1.00  0.00     0.063 C 
BRANCH  13  14
HETATM   14  C   UNL     1      -1.268   1.848  -5.671  1.00  0.00    -0.001 A 
HETATM   15  C   UNL     1      -0.994   2.002  -7.059  1.00  0.00     0.037 A 
HETATM   16  C   UNL     1       0.310   1.988  -7.764  1.00  0.00     0.071 C 
HETATM   17  N   UNL     1      -2.119   2.192  -7.759  1.00  0.00    -0.265 N 
HETATM   18  O   UNL     1      -3.147   2.165  -6.839  1.00  0.00    -0.242 OA
ATOM     19  HN  UNL     1      -2.200   2.329  -8.767  1.00  0.00     0.194 HD
HETATM   20  C   UNL     1      -2.639   1.965  -5.596  1.00  0.00     0.081 A 
HETATM   21  C   UNL     1      -3.612   1.927  -4.488  1.00  0.00     0.079 C 
ENDBRANCH  13  14
ENDBRANCH  12  13
ENDBRANCH  10  12
BRANCH   1  22
HETATM   22  C   UNL     1       5.926   3.492  -2.449  1.00  0.00     0.029 C 
HETATM   23  C   UNL     1       6.428   3.093  -3.825  1.00  0.00     0.007 C 
ENDBRANCH   1  22
TORSDOF 4
