REMARK  5 active torsions:
REMARK  status: ('A' for Active; 'I' for Inactive)
REMARK    1  A    between atoms: C_2  and  C_3 
REMARK       I    between atoms: C_2  and  N_21 
REMARK    2  A    between atoms: C_3  and  N_4 
REMARK       I    between atoms: N_4  and  C_5 
REMARK       I    between atoms: C_5  and  N_7 
REMARK    3  A    between atoms: N_7  and  C_8 
REMARK    4  A    between atoms: C_14  and  N_15 
REMARK    5  A    between atoms: N_21  and  C_22 
ROOT
HETATM    1  C   UNL     1      -0.571   3.436  -0.793  1.00  0.00     0.216 C 
HETATM    2  C   UNL     1      -1.259   4.752  -1.118  1.00  0.00    -0.098 C 
HETATM    3  C   UNL     1      -1.849   5.881  -1.396  1.00  0.00     0.014 C 
ENDROOT
BRANCH   1   4
HETATM    4  N   UNL     1      -0.399   2.621  -1.979  1.00  0.00    -0.349 N 
HETATM    5  C   UNL     1       0.197   1.377  -1.912  1.00  0.00     0.236 C 
HETATM    6  O   UNL     1       0.576   0.872  -0.855  1.00  0.00    -0.272 OA
HETATM    7  H   UNL     1      -0.702   2.997  -2.870  1.00  0.00     0.163 HD
BRANCH   5   8
HETATM    8  C   UNL     1       0.317   0.645  -3.256  1.00  0.00     0.227 C 
BRANCH   8   9
HETATM    9  N   UNL     1       1.045  -0.614  -3.160  1.00  0.00    -0.334 N 
HETATM   10  C   UNL     1       1.200  -1.398  -4.293  1.00  0.00     0.321 C 
HETATM   11  O   UNL     1       0.807  -1.015  -5.388  1.00  0.00    -0.247 OA
HETATM   12  N   UNL     1       1.767  -2.620  -4.024  1.00  0.00    -0.306 N 
HETATM   13  H   UNL     1       2.201  -2.782  -3.128  1.00  0.00     0.171 HD
HETATM   14  H   UNL     1       1.064  -1.060  -2.246  1.00  0.00     0.164 HD
BRANCH  12  15
HETATM   15  C   UNL     1       2.082  -3.563  -5.036  1.00  0.00     0.080 A 
HETATM   16  C   UNL     1       2.855  -3.104  -6.116  1.00  0.00     0.035 A 
HETATM   17  C   UNL     1       3.307  -3.985  -7.086  1.00  0.00     0.019 A 
HETATM   18  C   UNL     1       2.967  -5.309  -6.946  1.00  0.00     0.090 A 
HETATM   19  N   UNL     1       2.245  -5.790  -5.915  1.00  0.00    -0.351 N 
HETATM   20  C   UNL     1       1.790  -4.947  -4.946  1.00  0.00     0.130 A 
ATOM     21  HN  UNL     1       2.039  -6.787  -5.860  1.00  0.00     0.166 HD
BRANCH  20  22
HETATM   22  N   UNL     1       1.005  -5.543  -3.972  1.00  0.00    -0.365 N 
HETATM   23  C   UNL     1       1.266  -6.951  -3.651  1.00  0.00     0.124 C 
HETATM   24  C   UNL     1      -0.040  -7.737  -3.534  1.00  0.00     0.020 C 
HETATM   25  C   UNL     1      -0.989  -7.072  -2.550  1.00  0.00     0.003 C 
HETATM   26  C   UNL     1      -1.241  -5.627  -2.962  1.00  0.00     0.020 C 
HETATM   27  C   UNL     1       0.058  -4.831  -3.124  1.00  0.00     0.124 C 
ENDBRANCH  20  22
ENDBRANCH  12  15
ENDBRANCH   8   9
ENDBRANCH   5   8
ENDBRANCH   1   4
TORSDOF 5
