REMARK  5 active torsions:
REMARK  status: ('A' for Active; 'I' for Inactive)
REMARK    1  A    between atoms: O_2  and  C_3 
REMARK    2  A    between atoms: C_9  and  N_10 
REMARK       I    between atoms: N_10  and  C_11 
REMARK       I    between atoms: C_11  and  N_13 
REMARK    3  A    between atoms: N_13  and  C_14 
REMARK    4  A    between atoms: C_14  and  C_16 
REMARK    5  A    between atoms: C_16  and  N_17 
ROOT
HETATM    1  N   UNL     1       4.815  -1.510  -1.521  1.00  0.00    -0.305 N 
HETATM    2  C   UNL     1       3.981  -2.183  -0.658  1.00  0.00     0.321 C 
HETATM    3  O   UNL     1       3.415  -1.682   0.305  1.00  0.00    -0.247 OA
HETATM    4  N   UNL     1       3.804  -3.508  -1.000  1.00  0.00    -0.337 N 
HETATM    5  H   UNL     1       5.588  -2.036  -1.914  1.00  0.00     0.171 HD
HETATM    6  H   UNL     1       4.053  -3.783  -1.937  1.00  0.00     0.164 HD
ENDROOT
BRANCH   1   7
HETATM    7  C   UNL     1       4.978  -0.099  -1.509  1.00  0.00     0.087 A 
HETATM    8  C   UNL     1       6.168   0.492  -1.950  1.00  0.00     0.169 A 
HETATM    9  N   UNL     1       6.405   1.827  -1.938  1.00  0.00    -0.345 N 
HETATM   10  C   UNL     1       5.415   2.617  -1.470  1.00  0.00     0.090 A 
ATOM     11  HN  UNL     1       7.289   2.216  -2.267  1.00  0.00     0.167 HD
HETATM   12  C   UNL     1       4.194   2.140  -1.040  1.00  0.00     0.019 A 
HETATM   13  C   UNL     1       3.972   0.765  -1.069  1.00  0.00     0.035 A 
BRANCH   8  14
HETATM   14  O   UNL     1       7.159  -0.353  -2.425  1.00  0.00    -0.339 OA
HETATM   15  C   UNL     1       8.437   0.278  -2.438  1.00  0.00     0.211 C 
ENDBRANCH   8  14
ENDBRANCH   1   7
BRANCH   4  16
HETATM   16  C   UNL     1       2.768  -4.281  -0.312  1.00  0.00     0.110 C 
HETATM   17  C   UNL     1       1.369  -3.787  -0.711  1.00  0.00     0.034 C 
BRANCH  16  18
HETATM   18  C   UNL     1       2.847  -5.812  -0.579  1.00  0.00     0.297 C 
BRANCH  18  19
HETATM   19  N   UNL     1       4.093  -6.511  -0.201  1.00  0.00     0.094 N 
HETATM   20  C   UNL     1       3.993  -7.963  -0.506  1.00  0.00     0.298 C 
HETATM   21  C   UNL     1       3.086  -8.760   0.455  1.00  0.00     0.198 C 
HETATM   22  O   UNL     1       3.457  -8.567   1.825  1.00  0.00    -0.388 OA
HETATM   23  C   UNL     1       3.472  -7.174   2.162  1.00  0.00     0.198 C 
HETATM   24  C   UNL     1       4.423  -6.393   1.239  1.00  0.00     0.298 C 
ENDBRANCH  18  19
ENDBRANCH  16  18
ENDBRANCH   4  16
TORSDOF 5
