REMARK  6 active torsions:
REMARK  status: ('A' for Active; 'I' for Inactive)
REMARK    1  A    between atoms: C_2  and  C_3 
REMARK    2  A    between atoms: C_2  and  N_11 
REMARK    3  A    between atoms: C_3  and  N_4 
REMARK    4  A    between atoms: N_11  and  C_12 
REMARK    5  A    between atoms: C_12  and  C_13 
REMARK    6  A    between atoms: C_13  and  N_14 
ROOT
HETATM    1  N   UNL     1       3.101   0.934  -0.880  1.00  0.00     0.090 N 
HETATM    2  H   UNL     1       2.766   1.884  -0.707  1.00  0.00     0.316 HD
ENDROOT
BRANCH   1   3
HETATM    3  C   UNL     1       2.547   0.024   0.148  1.00  0.00     0.236 C 
HETATM    4  C   UNL     1       2.947   0.456   1.567  1.00  0.00     0.044 C 
BRANCH   3   5
HETATM    5  C   UNL     1       1.012  -0.029  -0.011  1.00  0.00     0.183 C 
BRANCH   5   6
HETATM    6  N   UNL     1       0.361  -0.960   0.892  1.00  0.00    -0.301 N 
HETATM    7  C   UNL     1      -0.538  -0.652   1.873  1.00  0.00     0.118 A 
HETATM    8  C   UNL     1      -0.923  -1.849   2.439  1.00  0.00    -0.028 A 
HETATM    9  C   UNL     1      -1.898  -2.078   3.528  1.00  0.00     0.051 C 
HETATM   10  C   UNL     1      -0.177  -2.817   1.731  1.00  0.00     0.115 A 
HETATM   11  N   UNL     1       0.602  -2.280   0.790  1.00  0.00    -0.310 N 
ATOM     12  HN  UNL     1       1.232  -2.758   0.145  1.00  0.00     0.186 HD
ENDBRANCH   5   6
ENDBRANCH   3   5
ENDBRANCH   1   3
BRANCH   1  13
HETATM   13  C   UNL     1       4.567   0.964  -0.947  1.00  0.00     0.290 C 
BRANCH  13  14
HETATM   14  C   UNL     1       5.266  -0.382  -1.247  1.00  0.00     0.166 C 
BRANCH  14  15
HETATM   15  N   UNL     1       6.704  -0.221  -1.152  1.00  0.00    -0.266 N 
HETATM   16  C   UNL     1       7.529   0.084  -2.193  1.00  0.00     0.326 C 
HETATM   17  O   UNL     1       7.244   0.178  -3.374  1.00  0.00    -0.247 OA
HETATM   18  N   UNL     1       8.790   0.327  -1.683  1.00  0.00    -0.325 N 
HETATM   19  C   UNL     1       8.736   0.525  -0.253  1.00  0.00     0.108 C 
HETATM   20  H   UNL     1       9.501   0.706  -2.297  1.00  0.00     0.165 HD
HETATM   21  C   UNL     1       9.892  -0.118   0.486  1.00  0.00     0.049 C 
HETATM   22  C   UNL     1       8.596   2.015   0.074  1.00  0.00     0.049 C 
HETATM   23  C   UNL     1       7.375  -0.117   0.037  1.00  0.00     0.255 C 
HETATM   24  O   UNL     1       6.916  -0.334   1.151  1.00  0.00    -0.270 OA
ENDBRANCH  14  15
ENDBRANCH  13  14
ENDBRANCH   1  13
TORSDOF 6
