REMARK  5 active torsions:
REMARK  status: ('A' for Active; 'I' for Inactive)
REMARK    1  A    between atoms: N_7  and  C_8 
REMARK    2  A    between atoms: C_8  and  C_9 
REMARK       I    between atoms: C_9  and  N_11 
REMARK    3  A    between atoms: N_11  and  C_12 
REMARK    4  A    between atoms: C_12  and  C_13 
REMARK    5  A    between atoms: C_13  and  C_14 
ROOT
HETATM    1  C   UNL     1       4.120  -3.914   0.014  1.00  0.00     0.235 C 
HETATM    2  O   UNL     1       2.903  -3.804  -0.137  1.00  0.00    -0.272 OA
HETATM    3  N   UNL     1       4.767  -5.120  -0.188  1.00  0.00    -0.359 N 
HETATM    4  H   UNL     1       5.778  -5.181  -0.162  1.00  0.00     0.162 HD
ENDROOT
BRANCH   1   5
HETATM    5  C   UNL     1       4.999  -2.716   0.396  1.00  0.00     0.235 C 
BRANCH   5   6
HETATM    6  N   UNL     1       4.568  -2.017   1.616  1.00  0.00    -0.301 N 
HETATM    7  C   UNL     1       3.293  -1.498   1.694  1.00  0.00     0.102 C 
HETATM    8  C   UNL     1       2.850  -0.868   2.780  1.00  0.00     0.092 C 
HETATM    9  C   UNL     1       3.758  -0.662   3.917  1.00  0.00     0.252 C 
HETATM   10  N   UNL     1       5.055  -1.106   3.741  1.00  0.00    -0.271 N 
HETATM   11  O   UNL     1       3.327  -0.108   4.925  1.00  0.00    -0.268 OA
HETATM   12  C   UNL     1       6.030  -0.817   4.773  1.00  0.00     0.164 C 
HETATM   13  C   UNL     1       5.488  -1.860   2.652  1.00  0.00     0.331 C 
HETATM   14  O   UNL     1       6.623  -2.340   2.598  1.00  0.00    -0.246 OA
ENDBRANCH   5   6
ENDBRANCH   1   5
BRANCH   3  15
HETATM   15  C   UNL     1       3.970  -6.240  -0.655  1.00  0.00     0.127 C 
BRANCH  15  16
HETATM   16  C   UNL     1       4.714  -7.563  -0.821  1.00  0.00     0.053 C 
BRANCH  16  17
HETATM   17  C   UNL     1       3.767  -8.691  -1.217  1.00  0.00    -0.082 A 
HETATM   18  C   UNL     1       3.591  -9.762  -0.429  1.00  0.00    -0.024 A 
HETATM   19  C   UNL     1       2.677 -10.903  -0.724  1.00  0.00     0.027 A 
HETATM   20  C   UNL     1       1.882 -10.848  -2.024  1.00  0.00     0.004 A 
HETATM   21  C   UNL     1       2.048  -9.631  -2.927  1.00  0.00     0.005 A 
HETATM   22  C   UNL     1       3.036  -8.538  -2.522  1.00  0.00     0.034 A 
ENDBRANCH  16  17
ENDBRANCH  15  16
ENDBRANCH   3  15
TORSDOF 5
