REMARK  2 active torsions:
REMARK  status: ('A' for Active; 'I' for Inactive)
REMARK    1  A    between atoms: C_9  and  N_10 
REMARK    2  A    between atoms: N_10  and  C_11 
ROOT
HETATM    1  C   UNL     1       1.024   0.338   0.613  1.00  0.00     0.068 C 
HETATM    2  C   UNL     1       2.516   0.207   0.459  1.00  0.00     0.007 C 
HETATM    3  C   UNL     1       3.037  -1.042   0.164  1.00  0.00     0.033 C 
HETATM    4  C   UNL     1       4.300  -1.096  -0.421  1.00  0.00    -0.036 C 
HETATM    5  C   UNL     1       4.965  -2.416  -0.682  1.00  0.00     0.050 C 
HETATM    6  C   UNL     1       4.938   0.119  -0.725  1.00  0.00     0.094 C 
HETATM    7  C   UNL     1       5.774   0.176  -1.880  1.00  0.00     0.104 C 
HETATM    8  N   UNL     1       6.369   0.207  -2.879  1.00  0.00    -0.191 NA
HETATM    9  C   UNL     1       4.517   1.287  -0.087  1.00  0.00     0.123 C 
HETATM   10  N   UNL     1       3.277   1.338   0.457  1.00  0.00    -0.345 N 
ATOM     11  HN  UNL     1       2.920   2.206   0.857  1.00  0.00     0.167 HD
ENDROOT
BRANCH   9  12
HETATM   12  N   UNL     1       5.290   2.450   0.004  1.00  0.00    -0.368 N 
HETATM   13  H   UNL     1       4.831   3.092   0.646  1.00  0.00     0.161 HD
BRANCH  12  14
HETATM   14  C   UNL     1       6.759   2.388   0.036  1.00  0.00     0.114 C 
HETATM   15  C   UNL     1       7.368   1.724   1.279  1.00  0.00     0.059 C 
HETATM   16  C   UNL     1       8.419   2.749   1.715  1.00  0.00     0.124 C 
HETATM   17  C   UNL     1       7.770   3.970   2.358  1.00  0.00     0.034 C 
HETATM   18  O   UNL     1       8.834   3.300   0.442  1.00  0.00    -0.378 OA
HETATM   19  C   UNL     1       7.163   4.683   1.149  1.00  0.00     0.036 C 
HETATM   20  C   UNL     1       7.509   3.735   0.006  1.00  0.00     0.144 C 
ENDBRANCH  12  14
ENDBRANCH   9  12
TORSDOF 2
