REMARK  4 active torsions:
REMARK  status: ('A' for Active; 'I' for Inactive)
REMARK    1  A    between atoms: C_2  and  C_3 
REMARK       I    between atoms: C_2  and  N_16 
REMARK    2  A    between atoms: C_3  and  N_4 
REMARK    3  A    between atoms: C_8  and  C_12 
REMARK    4  A    between atoms: N_16  and  C_17 
ROOT
HETATM    1  N   UNL     1       1.930  -2.455  -0.421  1.00  0.00    -0.302 N 
HETATM    2  C   UNL     1       1.546  -3.260   0.625  1.00  0.00     0.186 A 
HETATM    3  N   UNL     1       0.849  -4.341   0.510  1.00  0.00    -0.355 N 
ATOM      4  HN  UNL     1       0.585  -4.894   1.325  1.00  0.00     0.166 HD
HETATM    5  C   UNL     1       0.479  -4.712  -0.757  1.00  0.00     0.019 A 
HETATM    6  C   UNL     1       0.800  -4.020  -1.857  1.00  0.00     0.100 A 
HETATM    7  C   UNL     1       1.614  -2.803  -1.712  1.00  0.00     0.250 A 
HETATM    8  O   UNL     1       1.973  -2.192  -2.713  1.00  0.00    -0.268 OA
ENDROOT
BRANCH   1   9
HETATM    9  C   UNL     1       2.839  -1.339  -0.178  1.00  0.00     0.235 C 
BRANCH   9  10
HETATM   10  C   UNL     1       2.174  -0.037   0.277  1.00  0.00     0.236 C 
HETATM   11  O   UNL     1       2.816   0.810   0.896  1.00  0.00    -0.272 OA
HETATM   12  N   UNL     1       0.887   0.186  -0.160  1.00  0.00    -0.355 N 
HETATM   13  H   UNL     1       0.374  -0.585  -0.567  1.00  0.00     0.162 HD
BRANCH  12  14
HETATM   14  C   UNL     1       0.169   1.405   0.168  1.00  0.00     0.084 C 
HETATM   15  C   UNL     1      -0.613   1.297   1.480  1.00  0.00     0.025 C 
HETATM   16  C   UNL     1      -1.898   2.104   1.279  1.00  0.00     0.002 C 
HETATM   17  C   UNL     1      -1.814   2.699  -0.120  1.00  0.00     0.002 C 
HETATM   18  C   UNL     1      -0.887   1.759  -0.873  1.00  0.00     0.025 C 
ENDBRANCH  12  14
ENDBRANCH   9  10
ENDBRANCH   1   9
BRANCH   5  19
HETATM   19  C   UNL     1      -0.261  -5.995  -0.947  1.00  0.00     0.036 C 
HETATM   20  C   UNL     1      -1.724  -5.863  -1.456  1.00  0.00     0.011 C 
HETATM   21  C   UNL     1      -2.049  -7.109  -0.608  1.00  0.00     0.001 C 
HETATM   22  C   UNL     1      -0.864  -6.704   0.295  1.00  0.00     0.011 C 
ENDBRANCH   5  19
TORSDOF 4
