REMARK  4 active torsions:
REMARK  status: ('A' for Active; 'I' for Inactive)
REMARK    1  A    between atoms: O_2  and  C_3 
REMARK    2  A    between atoms: C_9  and  N_10 
REMARK       I    between atoms: N_10  and  C_11 
REMARK       I    between atoms: C_11  and  N_13 
REMARK    3  A    between atoms: N_13  and  C_14 
REMARK       I    between atoms: N_17  and  C_20 
REMARK    4  A    between atoms: C_20  and  C_22 
ROOT
HETATM    1  N   UNL     1       0.962  -3.129  -2.634  1.00  0.00    -0.305 N 
HETATM    2  C   UNL     1       0.123  -2.236  -3.261  1.00  0.00     0.321 C 
HETATM    3  O   UNL     1      -0.717  -2.525  -4.107  1.00  0.00    -0.247 OA
HETATM    4  N   UNL     1       0.316  -0.928  -2.862  1.00  0.00    -0.338 N 
HETATM    5  H   UNL     1       1.392  -2.856  -1.761  1.00  0.00     0.171 HD
HETATM    6  H   UNL     1       0.899  -0.756  -2.060  1.00  0.00     0.164 HD
ENDROOT
BRANCH   1   7
HETATM    7  C   UNL     1       1.141  -4.493  -2.996  1.00  0.00     0.087 A 
HETATM    8  C   UNL     1       1.763  -5.394  -2.121  1.00  0.00     0.169 A 
HETATM    9  N   UNL     1       2.075  -6.678  -2.434  1.00  0.00    -0.345 N 
HETATM   10  C   UNL     1       1.691  -7.118  -3.643  1.00  0.00     0.090 A 
ATOM     11  HN  UNL     1       2.577  -7.280  -1.781  1.00  0.00     0.167 HD
HETATM   12  C   UNL     1       1.010  -6.341  -4.557  1.00  0.00     0.019 A 
HETATM   13  C   UNL     1       0.744  -5.010  -4.231  1.00  0.00     0.035 A 
BRANCH   8  14
HETATM   14  O   UNL     1       2.036  -4.972  -0.830  1.00  0.00    -0.339 OA
HETATM   15  C   UNL     1       1.915  -6.074   0.078  1.00  0.00     0.211 C 
ENDBRANCH   8  14
ENDBRANCH   1   7
BRANCH   4  16
HETATM   16  C   UNL     1      -0.573   0.131  -3.353  1.00  0.00     0.089 C 
HETATM   17  C   UNL     1       0.103   1.502  -3.424  1.00  0.00     0.045 C 
HETATM   18  C   UNL     1       0.284   2.166  -2.064  1.00  0.00     0.127 C 
HETATM   19  N   UNL     1      -0.915   2.121  -1.233  1.00  0.00    -0.352 N 
HETATM   20  C   UNL     1      -1.612   0.839  -1.162  1.00  0.00     0.127 C 
HETATM   21  C   UNL     1      -1.170   3.031  -0.198  1.00  0.00     0.224 C 
HETATM   22  C   UNL     1      -1.860   0.224  -2.532  1.00  0.00     0.045 C 
HETATM   23  O   UNL     1      -2.158   2.944   0.529  1.00  0.00    -0.273 OA
BRANCH  21  24
HETATM   24  C   UNL     1      -0.194   4.141   0.035  1.00  0.00     0.078 A 
HETATM   25  C   UNL     1      -0.225   4.918   1.334  1.00  0.00     0.015 A 
HETATM   26  C   UNL     1      -0.661   5.579   0.060  1.00  0.00     0.015 A 
ENDBRANCH  21  24
ENDBRANCH   4  16
TORSDOF 4
