REMARK  3 active torsions:
REMARK  status: ('A' for Active; 'I' for Inactive)
REMARK    1  A    between atoms: C_2  and  C_5 
REMARK    2  A    between atoms: C_8  and  N_9 
REMARK       I    between atoms: N_9  and  C_10 
REMARK       I    between atoms: C_10  and  N_12 
REMARK    3  A    between atoms: N_12  and  C_13 
ROOT
HETATM    1  N   UNL     1       4.391  -3.090  -4.468  1.00  0.00    -0.294 N 
HETATM    2  C   UNL     1       4.233  -4.440  -4.643  1.00  0.00     0.322 C 
HETATM    3  O   UNL     1       4.616  -4.961  -5.688  1.00  0.00    -0.247 OA
HETATM    4  N   UNL     1       3.650  -5.122  -3.622  1.00  0.00    -0.334 N 
HETATM    5  H   UNL     1       4.849  -2.639  -5.246  1.00  0.00     0.172 HD
HETATM    6  H   UNL     1       3.308  -4.527  -2.874  1.00  0.00     0.165 HD
ENDROOT
BRANCH   1   7
HETATM    7  C   UNL     1       3.950  -2.295  -3.400  1.00  0.00     0.123 A 
HETATM    8  C   UNL     1       4.205  -0.936  -3.399  1.00  0.00     0.052 A 
HETATM    9  C   UNL     1       3.773  -0.166  -2.312  1.00  0.00     0.031 A 
HETATM   10  C   UNL     1       3.104  -0.782  -1.257  1.00  0.00     0.033 A 
HETATM   11  N   UNL     1       2.841  -2.104  -1.323  1.00  0.00    -0.303 N 
HETATM   12  N   UNL     1       3.271  -2.854  -2.381  1.00  0.00    -0.285 N 
ATOM     13  HN  UNL     1       2.314  -2.550  -0.572  1.00  0.00     0.186 HD
ATOM     14  HN  UNL     1       3.074  -3.855  -2.399  1.00  0.00     0.188 HD
BRANCH  10  15
HETATM   15  C   UNL     1       2.595  -0.052  -0.016  1.00  0.00    -0.007 C 
HETATM   16  C   UNL     1       1.167   0.456  -0.280  1.00  0.00     0.021 C 
HETATM   17  C   UNL     1       3.487   1.137   0.392  1.00  0.00     0.021 C 
HETATM   18  C   UNL     1       2.555  -1.024   1.188  1.00  0.00     0.021 C 
ENDBRANCH  10  15
ENDBRANCH   1   7
BRANCH   4  19
HETATM   19  C   UNL     1       3.159  -6.510  -3.615  1.00  0.00     0.035 C 
HETATM   20  C   UNL     1       2.118  -6.687  -4.735  1.00  0.00     0.039 C 
HETATM   21  C   UNL     1       2.478  -6.756  -2.248  1.00  0.00     0.057 C 
HETATM   22  C   UNL     1       3.514  -6.814  -1.131  1.00  0.00     0.170 C 
HETATM   23  O   UNL     1       4.429  -7.878  -1.380  1.00  0.00    -0.391 OA
HETATM   24  C   UNL     1       5.185  -7.660  -2.571  1.00  0.00     0.170 C 
HETATM   25  C   UNL     1       4.283  -7.550  -3.794  1.00  0.00     0.057 C 
ENDBRANCH   4  19
TORSDOF 3
