REMARK  3 active torsions:
REMARK  status: ('A' for Active; 'I' for Inactive)
REMARK       I    between atoms: N_1  and  C_2 
REMARK    1  A    between atoms: C_2  and  C_4 
REMARK    2  A    between atoms: C_10  and  N_11 
REMARK       I    between atoms: N_11  and  C_12 
REMARK       I    between atoms: C_12  and  N_14 
REMARK    3  A    between atoms: N_14  and  C_15 
ROOT
HETATM    1  C   UNL     1       3.244   0.967   0.877  1.00  0.00     0.100 C 
HETATM    2  C   UNL     1       2.930   2.400   0.416  1.00  0.00     0.016 C 
HETATM    3  C   UNL     1       3.226   3.425   1.509  1.00  0.00     0.001 C 
HETATM    4  C   UNL     1       4.673   3.892   1.635  1.00  0.00     0.000 C 
HETATM    5  C   UNL     1       5.799   2.894   1.386  1.00  0.00     0.002 C 
HETATM    6  C   UNL     1       5.547   1.455   1.827  1.00  0.00     0.026 C 
HETATM    7  C   UNL     1       4.738   0.604   0.825  1.00  0.00     0.099 C 
ENDROOT
BRANCH   7   8
HETATM    8  N   UNL     1       5.291   0.649  -0.533  1.00  0.00    -0.337 N 
HETATM    9  C   UNL     1       6.544   0.133  -0.813  1.00  0.00     0.322 C 
HETATM   10  O   UNL     1       7.218  -0.430   0.041  1.00  0.00    -0.247 OA
HETATM   11  N   UNL     1       6.868   0.307  -2.135  1.00  0.00    -0.289 N 
HETATM   12  H   UNL     1       6.121   0.372  -2.806  1.00  0.00     0.172 HD
HETATM   13  H   UNL     1       4.993   1.399  -1.141  1.00  0.00     0.164 HD
BRANCH  11  14
HETATM   14  C   UNL     1       8.096  -0.068  -2.610  1.00  0.00     0.152 A 
HETATM   15  N   UNL     1       9.218  -0.237  -1.958  1.00  0.00    -0.346 N 
HETATM   16  C   UNL     1      10.185  -0.700  -2.825  1.00  0.00     0.097 A 
ATOM     17  HN  UNL     1       9.356  -0.055  -0.964  1.00  0.00     0.167 HD
HETATM   18  C   UNL     1       9.782  -0.853  -4.135  1.00  0.00     0.070 A 
HETATM   19  S   UNL     1       8.149  -0.343  -4.295  1.00  0.00    -0.064 SA
ENDBRANCH  11  14
ENDBRANCH   7   8
BRANCH   1  20
HETATM   20  C   UNL     1       2.404  -0.059   0.131  1.00  0.00     0.221 C 
HETATM   21  N   UNL     1       2.174  -1.222   0.809  1.00  0.00    -0.370 N 
HETATM   22  H   UNL     1       1.618  -1.934   0.352  1.00  0.00     0.159 HD
HETATM   23  H   UNL     1       2.647  -1.468   1.668  1.00  0.00     0.159 HD
HETATM   24  O   UNL     1       1.943   0.121  -0.992  1.00  0.00    -0.273 OA
ENDBRANCH   1  20
TORSDOF 3
