REMARK  8 active torsions:
REMARK  status: ('A' for Active; 'I' for Inactive)
REMARK    1  A    between atoms: O_1  and  C_2 
REMARK    2  A    between atoms: C_2  and  C_3 
REMARK    3  A    between atoms: C_3  and  C_4 
REMARK    4  A    between atoms: C_4  and  C_5 
REMARK    5  A    between atoms: N_14  and  C_15 
REMARK    6  A    between atoms: C_15  and  C_16 
REMARK    7  A    between atoms: C_16  and  O_17 
REMARK    8  A    between atoms: C_16  and  C_18 
ROOT
HETATM    1  C   UNL     1       4.848   1.340   2.581  1.00  0.00     0.084 A 
HETATM    2  N   UNL     1       4.701   2.624   2.841  1.00  0.00    -0.344 N 
ATOM      3  HN  UNL     1       4.309   3.334   2.222  1.00  0.00     0.167 HD
HETATM    4  C   UNL     1       5.180   2.811   4.108  1.00  0.00     0.060 A 
HETATM    5  C   UNL     1       5.243   3.992   4.861  1.00  0.00     0.032 A 
HETATM    6  C   UNL     1       5.760   3.936   6.159  1.00  0.00     0.002 A 
HETATM    7  C   UNL     1       6.210   2.727   6.691  1.00  0.00     0.002 A 
HETATM    8  C   UNL     1       6.158   1.538   5.949  1.00  0.00     0.032 A 
HETATM    9  C   UNL     1       5.632   1.613   4.652  1.00  0.00     0.062 A 
HETATM   10  N   UNL     1       5.409   0.683   3.658  1.00  0.00    -0.332 N 
ENDROOT
BRANCH  10  11
HETATM   11  C   UNL     1       5.602  -0.755   3.784  1.00  0.00     0.167 C 
BRANCH  11  12
HETATM   12  C   UNL     1       6.972  -1.251   3.281  1.00  0.00     0.172 C 
BRANCH  12  13
HETATM   13  O   UNL     1       8.041  -0.754   4.087  1.00  0.00    -0.389 OA
HETATM   14  H   UNL     1       7.895  -1.055   5.001  1.00  0.00     0.210 HD
ENDBRANCH  12  13
BRANCH  12  15
HETATM   15  C   UNL     1       7.072  -2.763   3.266  1.00  0.00     0.013 A 
HETATM   16  C   UNL     1       7.344  -3.457   2.077  1.00  0.00     0.055 A 
HETATM   17  C   UNL     1       7.455  -4.848   2.085  1.00  0.00     0.117 A 
HETATM   18  F   UNL     1       7.719  -5.494   0.943  1.00  0.00    -0.206 F 
HETATM   19  C   UNL     1       7.300  -5.578   3.260  1.00  0.00     0.045 A 
HETATM   20  C   UNL     1       7.034  -4.905   4.450  1.00  0.00     0.046 A 
HETATM   21  C   UNL     1       6.927  -3.515   4.443  1.00  0.00     0.125 A 
HETATM   22  F   UNL     1       6.697  -2.884   5.604  1.00  0.00    -0.205 F 
ENDBRANCH  12  15
ENDBRANCH  11  12
ENDBRANCH  10  11
BRANCH   1  23
HETATM   23  C   UNL     1       4.448   0.686   1.296  1.00  0.00     0.079 C 
BRANCH  23  24
HETATM   24  C   UNL     1       4.551   1.646   0.106  1.00  0.00     0.033 C 
BRANCH  24  25
HETATM   25  C   UNL     1       5.978   2.111  -0.160  1.00  0.00     0.164 C 
BRANCH  25  26
HETATM   26  O   UNL     1       6.803   0.985  -0.440  1.00  0.00    -0.401 OA
HETATM   27  H   UNL     1       7.704   1.333  -0.564  1.00  0.00     0.209 HD
ENDBRANCH  25  26
ENDBRANCH  24  25
ENDBRANCH  23  24
ENDBRANCH   1  23
TORSDOF 8
