REMARK  3 active torsions:
REMARK  status: ('A' for Active; 'I' for Inactive)
REMARK    1  A    between atoms: C_2  and  N_3 
REMARK    2  A    between atoms: C_5  and  N_6 
REMARK       I    between atoms: N_6  and  C_7 
REMARK       I    between atoms: C_7  and  N_9 
REMARK    3  A    between atoms: N_9  and  C_10 
ROOT
HETATM    1  N   UNL     1       3.463  -0.584   6.868  1.00  0.00    -0.306 N 
HETATM    2  C   UNL     1       3.978   0.616   7.311  1.00  0.00     0.321 C 
HETATM    3  O   UNL     1       3.863   1.077   8.440  1.00  0.00    -0.247 OA
HETATM    4  N   UNL     1       4.700   1.276   6.341  1.00  0.00    -0.336 N 
HETATM    5  H   UNL     1       3.681  -0.895   5.934  1.00  0.00     0.171 HD
HETATM    6  H   UNL     1       4.454   1.093   5.381  1.00  0.00     0.164 HD
ENDROOT
BRANCH   1   7
HETATM    7  C   UNL     1       2.766  -1.461   7.685  1.00  0.00     0.070 A 
HETATM    8  C   UNL     1       2.449  -1.291   9.010  1.00  0.00     0.141 A 
HETATM    9  N   UNL     1       1.814  -2.425   9.411  1.00  0.00    -0.302 N 
HETATM   10  N   UNL     1       1.651  -3.325   8.421  1.00  0.00    -0.308 N 
HETATM   11  C   UNL     1       2.237  -2.734   7.371  1.00  0.00     0.138 A 
ATOM     12  HN  UNL     1       1.193  -4.235   8.461  1.00  0.00     0.186 HD
BRANCH   9  13
HETATM   13  C   UNL     1       1.381  -2.710  10.765  1.00  0.00     0.143 C 
HETATM   14  C   UNL     1       2.461  -3.419  11.562  1.00  0.00     0.028 C 
ENDBRANCH   9  13
ENDBRANCH   1   7
BRANCH   4  15
HETATM   15  C   UNL     1       5.272   2.583   6.655  1.00  0.00     0.121 C 
HETATM   16  C   UNL     1       6.521   2.874   5.812  1.00  0.00     0.057 C 
HETATM   17  C   UNL     1       6.231   4.183   5.081  1.00  0.00     0.275 C 
HETATM   18  N   UNL     1       5.234   4.819   5.928  1.00  0.00     0.095 N 
HETATM   19  C   UNL     1       4.513   5.926   5.311  1.00  0.00     0.273 C 
HETATM   20  C   UNL     1       4.317   3.740   6.323  1.00  0.00     0.245 C 
HETATM   21  C   UNL     1       3.516   6.512   6.321  1.00  0.00     0.030 C 
HETATM   22  C   UNL     1       2.608   5.442   6.939  1.00  0.00     0.004 C 
HETATM   23  C   UNL     1       3.420   4.246   7.450  1.00  0.00     0.038 C 
ENDBRANCH   4  15
TORSDOF 3
