REMARK  4 active torsions:
REMARK  status: ('A' for Active; 'I' for Inactive)
REMARK    1  A    between atoms: N_1  and  C_2 
REMARK    2  A    between atoms: C_4  and  C_11 
REMARK    3  A    between atoms: C_11  and  O_20 
REMARK    4  A    between atoms: C_18  and  O_21 
ROOT
HETATM    1  C   UNL     1      -1.589  -1.973  -1.022  1.00  0.00     0.136 A 
HETATM    2  C   UNL     1      -2.798  -1.778  -1.702  1.00  0.00     0.122 A 
HETATM    3  C   UNL     1      -3.597  -2.838  -1.986  1.00  0.00     0.138 A 
HETATM    4  N   UNL     1      -4.683  -2.443  -2.672  1.00  0.00    -0.337 N 
ATOM      5  HN  UNL     1      -5.458  -3.012  -3.013  1.00  0.00     0.168 HD
HETATM    6  N   UNL     1      -1.258  -3.262  -0.706  1.00  0.00    -0.337 N 
ATOM      7  HN  UNL     1      -0.368  -3.446  -0.242  1.00  0.00     0.168 HD
HETATM    8  N   UNL     1      -3.354  -0.673  -2.223  1.00  0.00    -0.346 N 
HETATM    9  N   UNL     1      -3.274  -4.106  -1.641  1.00  0.00    -0.337 N 
ATOM     10  HN  UNL     1      -3.898  -4.884  -1.857  1.00  0.00     0.168 HD
HETATM   11  C   UNL     1      -4.499  -1.105  -2.802  1.00  0.00     0.182 A 
HETATM   12  C   UNL     1      -2.088  -4.314  -0.995  1.00  0.00     0.183 A 
HETATM   13  H   UNL     1      -3.002   0.308  -2.229  1.00  0.00     0.167 HD
ENDROOT
BRANCH   1  14
HETATM   14  N   UNL     1      -0.693  -0.902  -0.731  1.00  0.00    -0.348 N 
HETATM   15  C   UNL     1       0.727  -1.059  -0.504  1.00  0.00     0.186 C 
HETATM   16  C   UNL     1       1.260   0.397  -0.478  1.00  0.00     0.069 C 
HETATM   17  C   UNL     1      -0.001   1.283  -0.582  1.00  0.00     0.138 C 
HETATM   18  C   UNL     1      -1.100   0.345  -0.127  1.00  0.00     0.157 C 
BRANCH  15  19
HETATM   19  C   UNL     1       1.405  -1.929  -1.539  1.00  0.00     0.163 C 
HETATM   20  O   UNL     1       2.027  -2.914  -1.175  1.00  0.00    -0.648 OA
BRANCH  19  21
HETATM   21  O   UNL     1       1.324  -1.656  -2.857  1.00  0.00    -0.775 OA
HETATM   22  H   UNL     1       0.811  -0.914  -3.199  1.00  0.00     0.167 HD
ENDBRANCH  19  21
ENDBRANCH  15  19
BRANCH  17  23
HETATM   23  O   UNL     1      -0.233   1.684  -1.913  1.00  0.00    -0.394 OA
HETATM   24  H   UNL     1      -0.324   0.883  -2.488  1.00  0.00     0.210 HD
ENDBRANCH  17  23
ENDBRANCH   1  14
TORSDOF 4
