REMARK  4 active torsions:
REMARK  status: ('A' for Active; 'I' for Inactive)
REMARK    1  A    between atoms: C_4  and  C_8 
REMARK    2  A    between atoms: C_8  and  O_10 
REMARK    3  A    between atoms: C_8  and  C_11 
REMARK    4  A    between atoms: C_11  and  N_12 
ROOT
HETATM    1  C   UNL     1       5.846   1.472  -0.025  1.00  0.00     0.110 C 
HETATM    2  C   UNL     1       6.726   1.128   1.187  1.00  0.00     0.053 C 
ENDROOT
BRANCH   1   3
HETATM    3  C   UNL     1       4.563   0.677  -0.046  1.00  0.00     0.011 A 
HETATM    4  C   UNL     1       3.837   0.249  -1.144  1.00  0.00     0.121 A 
HETATM    5  N   UNL     1       2.748  -0.413  -0.658  1.00  0.00    -0.307 N 
HETATM    6  C   UNL     1       1.694  -1.037  -1.418  1.00  0.00     0.177 C 
HETATM    7  N   UNL     1       2.703  -0.448   0.684  1.00  0.00    -0.310 N 
HETATM    8  C   UNL     1       3.800   0.214   1.055  1.00  0.00     0.119 A 
ATOM      9  HN  UNL     1       1.996  -0.879   1.279  1.00  0.00     0.186 HD
ENDBRANCH   1   3
BRANCH   1  10
HETATM   10  O   UNL     1       6.627   1.155  -1.193  1.00  0.00    -0.383 OA
HETATM   11  H   UNL     1       6.748   0.190  -1.185  1.00  0.00     0.211 HD
ENDBRANCH   1  10
BRANCH   1  12
HETATM   12  C   UNL     1       5.564   3.006  -0.078  1.00  0.00     0.309 C 
BRANCH  12  13
HETATM   13  N   UNL     1       4.798   3.558   1.050  1.00  0.00     0.081 N 
HETATM   14  H   UNL     1       3.863   3.147   1.041  1.00  0.00     0.312 HD
HETATM   15  H   UNL     1       4.659   4.556   0.891  1.00  0.00     0.312 HD
ENDBRANCH  12  13
ENDBRANCH   1  12
TORSDOF 4
