REMARK  7 active torsions:
REMARK  status: ('A' for Active; 'I' for Inactive)
REMARK    1  A    between atoms: S_2  and  N_5 
REMARK    2  A    between atoms: N_5  and  C_6 
REMARK    3  A    between atoms: C_6  and  C_7 
REMARK    4  A    between atoms: C_7  and  C_8 
REMARK       I    between atoms: C_8  and  N_10 
REMARK    5  A    between atoms: N_10  and  C_11 
REMARK    6  A    between atoms: C_11  and  C_12 
REMARK    7  A    between atoms: C_15  and  N_19 
ROOT
HETATM    1  C   UNL     1       9.581   1.663   5.680  1.00  0.00    -0.025 A 
HETATM    2  C   UNL     1       9.468   2.988   6.078  1.00  0.00     0.014 A 
HETATM    3  C   UNL     1      10.007   3.398   7.302  1.00  0.00     0.049 A 
HETATM    4  C   UNL     1      10.658   2.490   8.140  1.00  0.00     0.103 A 
HETATM    5  N   UNL     1      10.736   1.194   7.757  1.00  0.00    -0.352 N 
ATOM      6  HN  UNL     1      11.190   0.509   8.362  1.00  0.00     0.166 HD
HETATM    7  C   UNL     1      10.210   0.808   6.568  1.00  0.00     0.098 A 
ENDROOT
BRANCH   1   8
HETATM    8  C   UNL     1       9.075   1.195   4.352  1.00  0.00     0.162 C 
BRANCH   8   9
HETATM    9  N   UNL     1       7.680   0.818   4.378  1.00  0.00    -0.357 N 
HETATM   10  C   UNL     1       7.071   0.391   3.222  1.00  0.00     0.218 C 
HETATM   11  O   UNL     1       7.657   0.335   2.144  1.00  0.00    -0.274 OA
HETATM   12  H   UNL     1       7.166   0.881   5.248  1.00  0.00     0.162 HD
BRANCH  10  13
HETATM   13  C   UNL     1       5.631  -0.046   3.366  1.00  0.00     0.118 C 
BRANCH  13  14
HETATM   14  C   UNL     1       5.544  -1.508   2.949  1.00  0.00     0.113 C 
BRANCH  14  15
HETATM   15  N   UNL     1       4.142  -1.978   2.976  1.00  0.00    -0.220 NA
HETATM   16  H   UNL     1       3.633  -1.786   3.842  1.00  0.00     0.139 HD
BRANCH  15  17
HETATM   17  S   UNL     1       3.890  -3.598   2.557  1.00  0.00     0.205 S 
HETATM   18  C   UNL     1       4.221  -3.606   0.805  1.00  0.00     0.179 C 
HETATM   19  O   UNL     1       2.482  -3.844   2.767  1.00  0.00    -0.212 OA
HETATM   20  O   UNL     1       4.899  -4.379   3.236  1.00  0.00    -0.212 OA
ENDBRANCH  15  17
ENDBRANCH  14  15
ENDBRANCH  13  14
ENDBRANCH  10  13
ENDBRANCH   8   9
ENDBRANCH   1   8
BRANCH   4  21
HETATM   21  N   UNL     1      11.220   2.851   9.341  1.00  0.00    -0.363 N 
HETATM   22  C   UNL     1      11.275   4.207   9.897  1.00  0.00     0.150 C 
HETATM   23  C   UNL     1      12.741   4.629  10.090  1.00  0.00     0.187 C 
HETATM   24  O   UNL     1      13.447   3.699  10.926  1.00  0.00    -0.388 OA
HETATM   25  C   UNL     1      13.430   2.387  10.336  1.00  0.00     0.187 C 
HETATM   26  C   UNL     1      11.994   1.870  10.121  1.00  0.00     0.150 C 
ENDBRANCH   4  21
TORSDOF 7
