REMARK  5 active torsions:
REMARK  status: ('A' for Active; 'I' for Inactive)
REMARK    1  A    between atoms: C_2  and  C_4 
REMARK    2  A    between atoms: C_4  and  N_5 
REMARK    3  A    between atoms: C_9  and  C_10 
REMARK    4  A    between atoms: C_10  and  N_11 
REMARK    5  A    between atoms: N_11  and  C_12 
ROOT
HETATM    1  C   UNL     1       5.634  -3.081  -3.949  1.00  0.00     0.101 A 
HETATM    2  N   UNL     1       6.191  -3.951  -3.076  1.00  0.00    -0.356 N 
ATOM      3  HN  UNL     1       6.379  -3.671  -2.113  1.00  0.00     0.166 HD
HETATM    4  C   UNL     1       6.494  -5.196  -3.501  1.00  0.00     0.089 A 
HETATM    5  C   UNL     1       6.263  -5.643  -4.786  1.00  0.00     0.019 A 
HETATM    6  C   UNL     1       5.708  -4.749  -5.692  1.00  0.00     0.027 A 
HETATM    7  C   UNL     1       5.401  -3.444  -5.280  1.00  0.00     0.082 A 
HETATM    8  C   UNL     1       4.845  -2.530  -6.232  1.00  0.00     0.102 C 
HETATM    9  N   UNL     1       4.370  -1.824  -7.020  1.00  0.00    -0.191 NA
ENDROOT
BRANCH   1  10
HETATM   10  N   UNL     1       5.348  -1.784  -3.497  1.00  0.00    -0.275 NA
HETATM   11  H   UNL     1       4.432  -1.471  -3.799  1.00  0.00     0.129 HD
BRANCH  10  12
HETATM   12  C   UNL     1       5.587  -1.551  -2.062  1.00  0.00     0.127 C 
BRANCH  12  13
HETATM   13  C   UNL     1       4.981  -0.205  -1.633  1.00  0.00     0.163 C 
HETATM   14  O   UNL     1       5.651   0.880  -2.302  1.00  0.00    -0.381 OA
HETATM   15  C   UNL     1       5.018   2.123  -1.975  1.00  0.00     0.198 C 
HETATM   16  C   UNL     1       4.989   2.370  -0.452  1.00  0.00     0.298 C 
HETATM   17  N   UNL     1       4.435   1.248   0.353  1.00  0.00     0.093 N 
HETATM   18  C   UNL     1       5.090   0.000  -0.107  1.00  0.00     0.305 C 
BRANCH  17  19
HETATM   19  C   UNL     1       2.962   1.222   0.277  1.00  0.00     0.276 C 
BRANCH  19  20
HETATM   20  C   UNL     1       2.249   0.119   1.099  1.00  0.00     0.006 C 
HETATM   21  C   UNL     1       2.579   0.195   2.590  1.00  0.00     0.011 C 
HETATM   22  C   UNL     1       0.730   0.225   0.904  1.00  0.00     0.011 C 
ENDBRANCH  19  20
ENDBRANCH  17  19
ENDBRANCH  12  13
ENDBRANCH  10  12
ENDBRANCH   1  10
TORSDOF 5
