REMARK  6 active torsions:
REMARK  status: ('A' for Active; 'I' for Inactive)
REMARK    1  A    between atoms: C_2  and  C_3 
REMARK    2  A    between atoms: C_3  and  C_4 
REMARK    3  A    between atoms: C_4  and  N_5 
REMARK    4  A    between atoms: C_6  and  N_7 
REMARK    5  A    between atoms: C_8  and  N_9 
REMARK       I    between atoms: N_9  and  C_11 
REMARK    6  A    between atoms: C_11  and  C_13 
ROOT
HETATM    1  N   UNL     1       4.934  -2.839  -0.091  1.00  0.00    -0.288 N 
HETATM    2  C   UNL     1       4.068  -3.920   0.182  1.00  0.00     0.117 C 
HETATM    3  C   UNL     1       4.437  -5.231  -0.044  1.00  0.00     0.144 C 
HETATM    4  C   UNL     1       5.918  -5.383  -0.410  1.00  0.00     0.279 C 
HETATM    5  O   UNL     1       6.464  -6.421  -0.765  1.00  0.00    -0.265 OA
HETATM    6  N   UNL     1       6.714  -4.288  -0.347  1.00  0.00    -0.273 N 
HETATM    7  C   UNL     1       6.283  -3.013  -0.308  1.00  0.00     0.330 C 
HETATM    8  O   UNL     1       7.104  -2.106  -0.456  1.00  0.00    -0.246 OA
HETATM    9  H   UNL     1       7.681  -4.420  -0.593  1.00  0.00     0.173 HD
ENDROOT
BRANCH   3  10
HETATM   10  N   UNL     1       3.584  -6.411   0.041  1.00  0.00    -0.313 N 
HETATM   11  C   UNL     1       4.143  -7.763  -0.065  1.00  0.00     0.159 C 
HETATM   12  C   UNL     1       2.169  -6.376   0.111  1.00  0.00     0.253 C 
HETATM   13  O   UNL     1       1.503  -5.346  -0.055  1.00  0.00    -0.270 OA
BRANCH  12  14
HETATM   14  C   UNL     1       1.342  -7.699   0.304  1.00  0.00     0.213 C 
HETATM   15  C   UNL     1       0.053  -7.400   1.081  1.00  0.00     0.044 C 
HETATM   16  C   UNL     1      -0.375  -8.730   1.666  1.00  0.00     0.029 C 
HETATM   17  C   UNL     1       0.713  -9.685   1.237  1.00  0.00     0.168 C 
HETATM   18  O   UNL     1       1.848  -8.857   0.955  1.00  0.00    -0.376 OA
ENDBRANCH  12  14
ENDBRANCH   3  10
BRANCH   2  19
HETATM   19  N   UNL     1       2.848  -3.546   0.735  1.00  0.00    -0.286 NA
HETATM   20  H   UNL     1       2.238  -3.252  -0.030  1.00  0.00     0.125 HD
HETATM   21  H   UNL     1       2.340  -4.356   1.089  1.00  0.00     0.125 HD
ENDBRANCH   2  19
BRANCH   1  22
HETATM   22  C   UNL     1       4.476  -1.442   0.065  1.00  0.00     0.135 C 
BRANCH  22  23
HETATM   23  C   UNL     1       4.664  -0.527  -1.160  1.00  0.00     0.020 C 
BRANCH  23  24
HETATM   24  C   UNL     1       3.868  -0.933  -2.400  1.00  0.00    -0.003 C 
HETATM   25  C   UNL     1       4.095   0.074  -3.525  1.00  0.00     0.005 C 
ENDBRANCH  23  24
ENDBRANCH  22  23
ENDBRANCH   1  22
TORSDOF 6
