REMARK  3 active torsions:
REMARK  status: ('A' for Active; 'I' for Inactive)
REMARK    1  A    between atoms: C_2  and  C_4 
REMARK       I    between atoms: C_4  and  N_6 
REMARK    2  A    between atoms: N_6  and  C_7 
REMARK    3  A    between atoms: C_10  and  N_14 
ROOT
HETATM    1  C   UNL     1       4.837  -2.263  -2.262  1.00  0.00     0.107 A 
HETATM    2  C   UNL     1       5.378  -1.821  -3.458  1.00  0.00     0.051 A 
HETATM    3  C   UNL     1       5.538  -2.737  -4.509  1.00  0.00     0.034 A 
HETATM    4  C   UNL     1       5.190  -4.076  -4.345  1.00  0.00     0.046 A 
HETATM    5  C   UNL     1       4.674  -4.393  -3.082  1.00  0.00     0.119 A 
HETATM    6  N   UNL     1       4.448  -3.531  -2.061  1.00  0.00    -0.350 N 
ATOM      7  HN  UNL     1       4.008  -3.829  -1.190  1.00  0.00     0.166 HD
ENDROOT
BRANCH   1   8
HETATM    8  N   UNL     1       4.622  -1.419  -1.175  1.00  0.00    -0.313 N 
HETATM    9  C   UNL     1       5.461  -0.385  -0.821  1.00  0.00     0.226 C 
HETATM   10  O   UNL     1       6.505  -0.102  -1.398  1.00  0.00    -0.273 OA
HETATM   11  H   UNL     1       4.042  -1.838  -0.463  1.00  0.00     0.170 HD
BRANCH   9  12
HETATM   12  C   UNL     1       4.946   0.415   0.369  1.00  0.00     0.070 C 
HETATM   13  C   UNL     1       6.085   1.206   1.011  1.00  0.00     0.019 C 
HETATM   14  C   UNL     1       3.838   1.349  -0.112  1.00  0.00     0.019 C 
ENDBRANCH   9  12
ENDBRANCH   1   8
BRANCH   4  15
HETATM   15  N   UNL     1       5.349  -5.014  -5.337  1.00  0.00    -0.376 N 
HETATM   16  C   UNL     1       4.446  -6.165  -5.478  1.00  0.00     0.149 C 
HETATM   17  C   UNL     1       5.283  -7.448  -5.589  1.00  0.00     0.187 C 
HETATM   18  O   UNL     1       6.215  -7.367  -6.681  1.00  0.00    -0.388 OA
HETATM   19  C   UNL     1       7.110  -6.255  -6.499  1.00  0.00     0.187 C 
HETATM   20  C   UNL     1       6.353  -4.915  -6.404  1.00  0.00     0.149 C 
ENDBRANCH   4  15
TORSDOF 3
