REMARK  6 active torsions:
REMARK  status: ('A' for Active; 'I' for Inactive)
REMARK    1  A    between atoms: N_5  and  C_6 
REMARK    2  A    between atoms: C_6  and  C_7 
REMARK    3  A    between atoms: C_7  and  O_8 
REMARK    4  A    between atoms: C_7  and  C_9 
REMARK    5  A    between atoms: C_9  and  N_10 
REMARK       I    between atoms: N_10  and  C_11 
REMARK       I    between atoms: C_11  and  N_13 
REMARK    6  A    between atoms: N_13  and  C_14 
ROOT
HETATM    1  N   UNL     1       7.333   0.940  -4.883  1.00  0.00    -0.340 N 
HETATM    2  C   UNL     1       8.493   0.576  -5.520  1.00  0.00     0.322 C 
HETATM    3  O   UNL     1       8.999  -0.531  -5.349  1.00  0.00    -0.247 OA
HETATM    4  N   UNL     1       8.974   1.575  -6.329  1.00  0.00    -0.287 N 
HETATM    5  H   UNL     1       7.030   1.902  -4.881  1.00  0.00     0.164 HD
HETATM    6  H   UNL     1       8.556   2.487  -6.284  1.00  0.00     0.172 HD
ENDROOT
BRANCH   1   7
HETATM    7  C   UNL     1       6.744   0.083  -3.870  1.00  0.00     0.157 C 
BRANCH   7   8
HETATM    8  C   UNL     1       5.224   0.259  -3.832  1.00  0.00     0.164 C 
BRANCH   8   9
HETATM    9  C   UNL     1       4.610  -0.722  -2.802  1.00  0.00     0.305 C 
BRANCH   9  10
HETATM   10  N   UNL     1       3.144  -0.638  -2.648  1.00  0.00     0.091 N 
HETATM   11  C   UNL     1       2.664  -1.539  -1.584  1.00  0.00     0.273 C 
HETATM   12  C   UNL     1       2.736  -3.031  -1.945  1.00  0.00     0.034 C 
HETATM   13  C   UNL     1       2.043  -3.353  -3.277  1.00  0.00    -0.015 C 
HETATM   14  C   UNL     1       0.520  -3.379  -3.121  1.00  0.00     0.010 C 
HETATM   15  C   UNL     1       2.480  -2.359  -4.363  1.00  0.00     0.034 C 
HETATM   16  C   UNL     1       2.399  -0.903  -3.890  1.00  0.00     0.273 C 
ENDBRANCH   9  10
ENDBRANCH   8   9
BRANCH   8  17
HETATM   17  O   UNL     1       4.945   1.631  -3.512  1.00  0.00    -0.392 OA
HETATM   18  H   UNL     1       4.708   1.661  -2.567  1.00  0.00     0.210 HD
ENDBRANCH   8  17
ENDBRANCH   7   8
ENDBRANCH   1   7
BRANCH   4  19
HETATM   19  C   UNL     1      10.137   1.419  -7.046  1.00  0.00     0.176 A 
HETATM   20  C   UNL     1      10.900   2.340  -7.715  1.00  0.00     0.085 A 
HETATM   21  C   UNL     1      12.005   1.598  -8.192  1.00  0.00     0.033 A 
HETATM   22  C   UNL     1      13.208   2.077  -8.904  1.00  0.00     0.070 C 
HETATM   23  N   UNL     1      11.882   0.298  -7.900  1.00  0.00    -0.264 N 
HETATM   24  O   UNL     1      10.711   0.193  -7.171  1.00  0.00    -0.220 OA
ATOM     25  HN  UNL     1      12.517  -0.456  -8.160  1.00  0.00     0.194 HD
ENDBRANCH   4  19
TORSDOF 6
