REMARK  7 active torsions:
REMARK  status: ('A' for Active; 'I' for Inactive)
REMARK    1  A    between atoms: N_2  and  C_3 
REMARK    2  A    between atoms: N_2  and  C_19 
REMARK    3  A    between atoms: C_3  and  C_4 
REMARK    4  A    between atoms: C_4  and  O_5 
REMARK    5  A    between atoms: C_4  and  C_6 
REMARK    6  A    between atoms: C_6  and  N_7 
REMARK    7  A    between atoms: C_19  and  C_20 
ROOT
HETATM    1  C   UNL     1       2.323   1.352   2.043  1.00  0.00     0.164 C 
ENDROOT
BRANCH   1   2
HETATM    2  C   UNL     1       2.918   0.069   1.408  1.00  0.00     0.305 C 
BRANCH   2   3
HETATM    3  N   UNL     1       2.398  -0.295   0.070  1.00  0.00     0.091 N 
HETATM    4  C   UNL     1       2.961  -1.595  -0.324  1.00  0.00     0.310 C 
BRANCH   3   5
HETATM    5  C   UNL     1       2.692   0.751  -0.929  1.00  0.00     0.315 C 
BRANCH   5   6
HETATM    6  C   UNL     1       2.078   0.432  -2.250  1.00  0.00     0.025 A 
HETATM    7  C   UNL     1       0.705   0.243  -2.572  1.00  0.00     0.039 A 
HETATM    8  C   UNL     1      -0.479   0.294  -1.684  1.00  0.00     0.071 C 
HETATM    9  N   UNL     1       0.541  -0.026  -3.875  1.00  0.00    -0.265 N 
HETATM   10  O   UNL     1       1.805  -0.009  -4.427  1.00  0.00    -0.242 OA
ATOM     11  HN  UNL     1      -0.338  -0.206  -4.359  1.00  0.00     0.194 HD
HETATM   12  C   UNL     1       2.718   0.270  -3.462  1.00  0.00     0.082 A 
HETATM   13  C   UNL     1       4.126   0.325  -3.894  1.00  0.00     0.079 C 
ENDBRANCH   5   6
ENDBRANCH   3   5
ENDBRANCH   2   3
ENDBRANCH   1   2
BRANCH   1  14
HETATM   14  O   UNL     1       0.896   1.264   2.119  1.00  0.00    -0.392 OA
HETATM   15  H   UNL     1       0.650   0.355   2.360  1.00  0.00     0.210 HD
ENDBRANCH   1  14
BRANCH   1  16
HETATM   16  C   UNL     1       2.904   1.555   3.449  1.00  0.00     0.163 C 
BRANCH  16  17
HETATM   17  N   UNL     1       2.484   2.812   4.040  1.00  0.00    -0.339 N 
HETATM   18  C   UNL     1       1.413   2.967   4.871  1.00  0.00     0.184 A 
HETATM   19  N   UNL     1       1.270   4.218   5.249  1.00  0.00    -0.350 N 
HETATM   20  C   UNL     1       2.277   4.900   4.611  1.00  0.00     0.060 A 
ATOM     21  HN  UNL     1       0.564   4.599   5.879  1.00  0.00     0.166 HD
HETATM   22  C   UNL     1       2.576   6.268   4.628  1.00  0.00     0.039 A 
HETATM   23  C   UNL     1       3.064   4.041   3.852  1.00  0.00     0.062 A 
HETATM   24  C   UNL     1       3.667   6.754   3.880  1.00  0.00    -0.054 A 
HETATM   25  C   UNL     1       3.952   8.231   3.920  1.00  0.00     0.049 C 
HETATM   26  C   UNL     1       4.455   5.862   3.120  1.00  0.00    -0.054 A 
HETATM   27  C   UNL     1       5.628   6.314   2.287  1.00  0.00     0.049 C 
HETATM   28  C   UNL     1       4.158   4.484   3.103  1.00  0.00     0.039 A 
ENDBRANCH  16  17
ENDBRANCH   1  16
TORSDOF 7
