REMARK  4 active torsions:
REMARK  status: ('A' for Active; 'I' for Inactive)
REMARK       I    between atoms: C_2  and  N_3 
REMARK       I    between atoms: C_2  and  N_13 
REMARK    1  A    between atoms: N_3  and  C_4 
REMARK    2  A    between atoms: C_4  and  C_5 
REMARK    3  A    between atoms: C_5  and  C_6 
REMARK    4  A    between atoms: N_16  and  C_19 
ROOT
HETATM    1  O   UNL     1       1.084   0.249  -0.328  1.00  0.00    -0.247 OA
HETATM    2  C   UNL     1       2.246  -0.037  -0.056  1.00  0.00     0.318 C 
HETATM    3  N   UNL     1       2.870  -1.161  -0.540  1.00  0.00    -0.343 N 
HETATM    4  N   UNL     1       3.071   0.757   0.719  1.00  0.00    -0.331 N 
HETATM    5  C   UNL     1       2.577   2.064   1.153  1.00  0.00     0.158 C 
HETATM    6  C   UNL     1       3.723   3.067   1.410  1.00  0.00     0.293 C 
HETATM    7  N   UNL     1       4.862   2.566   2.216  1.00  0.00     0.096 N 
HETATM    8  C   UNL     1       5.300   1.269   1.655  1.00  0.00     0.293 C 
HETATM    9  C   UNL     1       4.177   0.231   1.523  1.00  0.00     0.158 C 
HETATM   10  H   UNL     1       3.835  -0.974  -0.766  1.00  0.00     0.164 HD
ENDROOT
BRANCH   3  11
HETATM   11  C   UNL     1       2.190  -2.040  -1.478  1.00  0.00     0.130 C 
BRANCH  11  12
HETATM   12  C   UNL     1       3.060  -3.250  -1.797  1.00  0.00     0.076 C 
BRANCH  12  13
HETATM   13  C   UNL     1       2.421  -4.170  -2.797  1.00  0.00     0.010 A 
HETATM   14  C   UNL     1       1.595  -5.210  -2.381  1.00  0.00     0.025 A 
HETATM   15  C   UNL     1       1.060  -6.067  -3.338  1.00  0.00     0.003 A 
HETATM   16  C   UNL     1       1.354  -5.860  -4.679  1.00  0.00     0.017 A 
HETATM   17  C   UNL     1       2.170  -4.793  -5.010  1.00  0.00     0.088 A 
HETATM   18  N   UNL     1       2.706  -3.947  -4.104  1.00  0.00    -0.369 N 
ATOM     19  HN  UNL     1       3.302  -3.171  -4.391  1.00  0.00     0.165 HD
ENDBRANCH  12  13
ENDBRANCH  11  12
ENDBRANCH   3  11
BRANCH   7  20
HETATM   20  C   UNL     1       4.603   2.509   3.664  1.00  0.00     0.227 C 
HETATM   21  C   UNL     1       4.317   3.890   4.318  1.00  0.00     0.041 C 
HETATM   22  C   UNL     1       5.427   4.030   5.375  1.00  0.00    -0.012 C 
HETATM   23  C   UNL     1       6.774   4.227   4.654  1.00  0.00     0.005 C 
HETATM   24  C   UNL     1       5.530   2.599   5.894  1.00  0.00     0.011 C 
HETATM   25  C   UNL     1       7.099   2.819   4.142  1.00  0.00     0.007 C 
HETATM   26  C   UNL     1       5.829   2.025   4.507  1.00  0.00     0.019 C 
ENDBRANCH   7  20
TORSDOF 4
