REMARK  6 active torsions:
REMARK  status: ('A' for Active; 'I' for Inactive)
REMARK    1  A    between atoms: C_2  and  C_3 
REMARK    2  A    between atoms: C_6  and  C_7 
REMARK    3  A    between atoms: C_7  and  C_8 
REMARK       I    between atoms: C_8  and  N_10 
REMARK    4  A    between atoms: N_10  and  C_11 
REMARK    5  A    between atoms: C_14  and  C_16 
REMARK    6  A    between atoms: C_16  and  O_18 
ROOT
HETATM    1  C   UNL     1       3.904  -4.013   4.230  1.00  0.00     0.223 C 
HETATM    2  O   UNL     1       2.797  -4.456   3.932  1.00  0.00    -0.273 OA
HETATM    3  N   UNL     1       4.884  -4.771   4.848  1.00  0.00    -0.356 N 
HETATM    4  H   UNL     1       5.568  -4.223   5.371  1.00  0.00     0.162 HD
ENDROOT
BRANCH   1   5
HETATM    5  C   UNL     1       4.336  -2.616   3.834  1.00  0.00     0.160 C 
BRANCH   5   6
HETATM    6  C   UNL     1       4.650  -1.751   5.005  1.00  0.00     0.025 A 
HETATM    7  N   UNL     1       5.708  -2.098   5.837  1.00  0.00    -0.356 N 
HETATM    8  C   UNL     1       5.841  -1.199   6.792  1.00  0.00     0.050 A 
ATOM      9  HN  UNL     1       6.294  -2.925   5.725  1.00  0.00     0.166 HD
HETATM   10  S   UNL     1       4.740   0.120   6.726  1.00  0.00    -0.087 SA
HETATM   11  C   UNL     1       4.009  -0.575   5.345  1.00  0.00     0.077 A 
BRANCH   8  12
HETATM   12  C   UNL     1       6.849  -1.282   7.895  1.00  0.00     0.060 C 
HETATM   13  C   UNL     1       6.293  -2.052   9.082  1.00  0.00     0.012 C 
ENDBRANCH   8  12
ENDBRANCH   5   6
ENDBRANCH   1   5
BRANCH   3  14
HETATM   14  C   UNL     1       4.627  -6.137   5.259  1.00  0.00     0.085 C 
HETATM   15  C   UNL     1       5.837  -6.797   5.928  1.00  0.00     0.026 C 
HETATM   16  C   UNL     1       5.870  -8.250   5.439  1.00  0.00     0.017 C 
HETATM   17  C   UNL     1       4.613  -8.450   4.588  1.00  0.00     0.085 C 
HETATM   18  C   UNL     1       4.320  -7.051   4.068  1.00  0.00     0.040 C 
BRANCH  17  19
HETATM   19  C   UNL     1       3.444  -9.008   5.385  1.00  0.00     0.143 C 
HETATM   20  O   UNL     1       3.474  -9.271   6.576  1.00  0.00    -0.650 OA
BRANCH  19  21
HETATM   21  O   UNL     1       2.344  -9.229   4.628  1.00  0.00    -0.776 OA
HETATM   22  H   UNL     1       2.438  -8.965   3.693  1.00  0.00     0.167 HD
ENDBRANCH  19  21
ENDBRANCH  17  19
ENDBRANCH   3  14
TORSDOF 6
