REMARK  4 active torsions:
REMARK  status: ('A' for Active; 'I' for Inactive)
REMARK    1  A    between atoms: C_5  and  C_9 
REMARK       I    between atoms: C_9  and  N_11 
REMARK    2  A    between atoms: N_11  and  C_12 
REMARK    3  A    between atoms: C_12  and  C_13 
REMARK    4  A    between atoms: C_13  and  N_14 
ROOT
HETATM    1  C   UNL     1       6.076  -0.072   0.279  1.00  0.00     0.222 C 
HETATM    2  O   UNL     1       6.119   0.875   1.058  1.00  0.00    -0.273 OA
HETATM    3  N   UNL     1       6.869  -1.188   0.440  1.00  0.00    -0.359 N 
HETATM    4  H   UNL     1       6.764  -1.977  -0.183  1.00  0.00     0.162 HD
ENDROOT
BRANCH   1   5
HETATM    5  C   UNL     1       5.205  -0.069  -0.976  1.00  0.00     0.088 C 
HETATM    6  C   UNL     1       4.375   1.211  -1.087  1.00  0.00     0.034 C 
HETATM    7  C   UNL     1       3.238   1.208  -0.074  1.00  0.00     0.126 C 
HETATM    8  N   UNL     1       2.417   0.015  -0.204  1.00  0.00    -0.356 N 
HETATM    9  C   UNL     1       1.073   0.062   0.341  1.00  0.00     0.152 C 
HETATM   10  C   UNL     1       3.036  -1.227  -0.251  1.00  0.00     0.220 C 
HETATM   11  C   UNL     1       4.302  -1.293  -1.078  1.00  0.00     0.117 C 
HETATM   12  O   UNL     1       2.535  -2.254   0.202  1.00  0.00    -0.273 OA
ENDBRANCH   1   5
BRANCH   3  13
HETATM   13  C   UNL     1       7.696  -1.321   1.627  1.00  0.00     0.143 C 
BRANCH  13  14
HETATM   14  C   UNL     1       8.509  -2.608   1.643  1.00  0.00     0.148 C 
BRANCH  14  15
HETATM   15  N   UNL     1       9.322  -2.716   2.830  1.00  0.00    -0.350 N 
HETATM   16  C   UNL     1       8.951  -3.281   4.017  1.00  0.00     0.108 A 
HETATM   17  C   UNL     1      10.045  -3.136   4.838  1.00  0.00     0.106 A 
HETATM   18  N   UNL     1      11.071  -2.510   4.175  1.00  0.00    -0.361 N 
HETATM   19  C   UNL     1      10.607  -2.270   2.967  1.00  0.00     0.182 A 
ATOM     20  HN  UNL     1      11.995  -2.280   4.540  1.00  0.00     0.166 HD
ENDBRANCH  14  15
ENDBRANCH  13  14
ENDBRANCH   3  13
TORSDOF 4
