REMARK  2 active torsions:
REMARK  status: ('A' for Active; 'I' for Inactive)
REMARK    1  A    between atoms: C_6  and  C_7 
REMARK       I    between atoms: C_7  and  N_9 
REMARK    2  A    between atoms: N_9  and  C_10 
ROOT
HETATM    1  C   UNL     1       1.981   1.420   2.172  1.00  0.00     0.252 C 
HETATM    2  O   UNL     1       0.776   1.638   2.081  1.00  0.00    -0.270 OA
HETATM    3  N   UNL     1       2.690   1.460   3.357  1.00  0.00    -0.310 N 
HETATM    4  H   UNL     1       3.595   0.997   3.359  1.00  0.00     0.170 HD
ENDROOT
BRANCH   3   5
HETATM    5  C   UNL     1       2.116   1.659   4.609  1.00  0.00     0.123 A 
HETATM    6  C   UNL     1       1.027   2.506   4.819  1.00  0.00     0.136 A 
HETATM    7  N   UNL     1       0.436   2.650   6.036  1.00  0.00    -0.371 N 
HETATM    8  C   UNL     1       0.960   1.904   7.026  1.00  0.00     0.104 A 
ATOM      9  HN  UNL     1      -0.351   3.281   6.188  1.00  0.00     0.164 HD
HETATM   10  C   UNL     1       2.059   1.082   6.820  1.00  0.00     0.106 A 
HETATM   11  N   UNL     1       2.678   0.966   5.621  1.00  0.00    -0.350 N 
ATOM     12  HN  UNL     1       3.512   0.394   5.492  1.00  0.00     0.166 HD
ENDBRANCH   3   5
BRANCH   1  13
HETATM   13  C   UNL     1       2.867   1.090   0.954  1.00  0.00     0.217 C 
HETATM   14  C   UNL     1       2.373  -0.005   0.013  1.00  0.00     0.022 C 
HETATM   15  C   UNL     1       0.884  -0.098  -0.270  1.00  0.00     0.013 C 
HETATM   16  C   UNL     1       2.941  -1.263   0.639  1.00  0.00     0.033 C 
HETATM   17  C   UNL     1       4.223  -0.788   1.293  1.00  0.00     0.169 C 
HETATM   18  O   UNL     1       4.169   0.643   1.387  1.00  0.00    -0.376 OA
ENDBRANCH   1  13
TORSDOF 2
