REMARK  5 active torsions:
REMARK  status: ('A' for Active; 'I' for Inactive)
REMARK    1  A    between atoms: C_2  and  N_3 
REMARK       I    between atoms: N_3  and  C_4 
REMARK    2  A    between atoms: C_4  and  C_6 
REMARK    3  A    between atoms: C_6  and  N_7 
REMARK    4  A    between atoms: C_10  and  N_11 
REMARK       I    between atoms: N_11  and  C_12 
REMARK    5  A    between atoms: C_12  and  C_14 
ROOT
HETATM    1  N   UNL     1       6.420  -2.875  -0.360  1.00  0.00    -0.293 N 
HETATM    2  C   UNL     1       7.247  -2.736  -1.435  1.00  0.00     0.114 A 
HETATM    3  C   UNL     1       8.524  -2.798  -0.927  1.00  0.00     0.068 A 
HETATM    4  C   UNL     1       8.373  -2.986   0.471  1.00  0.00     0.123 A 
HETATM    5  N   UNL     1       7.084  -3.009   0.805  1.00  0.00    -0.283 N 
ATOM      6  HN  UNL     1       6.686  -3.107   1.739  1.00  0.00     0.189 HD
ENDROOT
BRANCH   4   7
HETATM    7  N   UNL     1       9.431  -3.117   1.345  1.00  0.00    -0.312 N 
HETATM    8  C   UNL     1       9.336  -3.421   2.688  1.00  0.00     0.229 C 
HETATM    9  O   UNL     1       8.317  -3.655   3.322  1.00  0.00    -0.273 OA
HETATM   10  H   UNL     1      10.347  -3.009   0.937  1.00  0.00     0.170 HD
BRANCH   8  11
HETATM   11  C   UNL     1      10.689  -3.473   3.344  1.00  0.00     0.095 A 
HETATM   12  C   UNL     1      10.995  -4.048   4.728  1.00  0.00    -0.027 A 
HETATM   13  C   UNL     1       9.923  -4.581   5.654  1.00  0.00     0.016 C 
HETATM   14  C   UNL     1      12.276  -4.857   4.856  1.00  0.00     0.016 C 
HETATM   15  C   UNL     1      11.086  -2.530   4.477  1.00  0.00    -0.027 A 
HETATM   16  C   UNL     1      12.449  -1.872   4.399  1.00  0.00     0.016 C 
HETATM   17  C   UNL     1      10.057  -1.593   5.073  1.00  0.00     0.016 C 
ENDBRANCH   8  11
ENDBRANCH   4   7
BRANCH   1  18
HETATM   18  C   UNL     1       4.966  -2.872  -0.360  1.00  0.00     0.250 C 
BRANCH  18  19
HETATM   19  C   UNL     1       4.356  -4.200   0.046  1.00  0.00     0.237 C 
HETATM   20  N   UNL     1       5.038  -4.918   1.000  1.00  0.00    -0.360 N 
HETATM   21  H   UNL     1       5.875  -4.492   1.413  1.00  0.00     0.162 HD
HETATM   22  O   UNL     1       3.279  -4.569  -0.423  1.00  0.00    -0.272 OA
BRANCH  20  23
HETATM   23  C   UNL     1       4.593  -6.193   1.510  1.00  0.00     0.118 C 
HETATM   24  C   UNL     1       3.747  -6.029   2.758  1.00  0.00     0.026 C 
ENDBRANCH  20  23
ENDBRANCH  18  19
ENDBRANCH   1  18
TORSDOF 5
