REMARK  2 active torsions:
REMARK  status: ('A' for Active; 'I' for Inactive)
REMARK    1  A    between atoms: N_1  and  C_2 
REMARK    2  A    between atoms: C_9  and  C_10 
REMARK       I    between atoms: C_10  and  N_12 
ROOT
HETATM    1  C   UNL     1       4.301  -1.076   0.185  1.00  0.00     0.110 A 
HETATM    2  N   UNL     1       5.011   0.078   0.230  1.00  0.00    -0.354 N 
ATOM      3  HN  UNL     1       5.927   0.127   0.675  1.00  0.00     0.166 HD
HETATM    4  C   UNL     1       4.442   1.160  -0.345  1.00  0.00     0.106 A 
HETATM    5  C   UNL     1       3.210   1.108  -0.964  1.00  0.00     0.105 A 
HETATM    6  N   UNL     1       2.479  -0.022  -1.015  1.00  0.00    -0.357 N 
ATOM      7  HN  UNL     1       1.570  -0.056  -1.476  1.00  0.00     0.165 HD
HETATM    8  C   UNL     1       3.025  -1.122  -0.413  1.00  0.00     0.141 A 
ENDROOT
BRANCH   8   9
HETATM    9  C   UNL     1       2.218  -2.398  -0.394  1.00  0.00     0.297 C 
HETATM   10  O   UNL     1       2.647  -3.391   0.201  1.00  0.00    -0.264 OA
HETATM   11  N   UNL     1       1.031  -2.453  -1.124  1.00  0.00    -0.221 N 
HETATM   12  C   UNL     1       0.190  -3.639  -1.114  1.00  0.00     0.160 C 
HETATM   13  O   UNL     1       0.193  -1.308  -1.006  1.00  0.00    -0.275 OA
HETATM   14  C   UNL     1      -0.678  -3.627  -2.371  1.00  0.00     0.024 C 
HETATM   15  C   UNL     1      -1.414  -2.291  -2.509  1.00  0.00     0.030 C 
HETATM   16  C   UNL     1      -0.463  -1.120  -2.265  1.00  0.00     0.201 C 
ENDBRANCH   8   9
BRANCH   1  17
HETATM   17  N   UNL     1       5.006  -2.186   0.636  1.00  0.00    -0.287 NA
HETATM   18  H   UNL     1       5.837  -1.895   1.138  1.00  0.00     0.125 HD
HETATM   19  H   UNL     1       4.418  -2.871   1.108  1.00  0.00     0.125 HD
ENDBRANCH   1  17
TORSDOF 2
