REMARK  3 active torsions:
REMARK  status: ('A' for Active; 'I' for Inactive)
REMARK    1  A    between atoms: C_7  and  C_8 
REMARK    2  A    between atoms: C_8  and  C_9 
REMARK    3  A    between atoms: C_9  and  O_11 
ROOT
HETATM    1  C   UNL     1       1.044   0.036  -0.027  1.00  0.00     0.089 C 
HETATM    2  C   UNL     1       2.537  -0.097  -0.042  1.00  0.00     0.080 C 
HETATM    3  N   UNL     1       3.091  -1.262  -0.076  1.00  0.00    -0.349 N 
ATOM      4  HN  UNL     1       2.526  -2.110  -0.122  1.00  0.00     0.167 HD
HETATM    5  C   UNL     1       4.465  -1.330  -0.048  1.00  0.00     0.018 C 
HETATM    6  C   UNL     1       5.012  -2.733  -0.017  1.00  0.00     0.069 C 
HETATM    7  C   UNL     1       5.267  -0.249  -0.049  1.00  0.00     0.042 C 
HETATM    8  C   UNL     1       4.600   1.067  -0.141  1.00  0.00     0.255 C 
HETATM    9  O   UNL     1       5.258   2.081  -0.366  1.00  0.00    -0.268 OA
HETATM   10  N   UNL     1       3.246   1.067  -0.017  1.00  0.00    -0.313 N 
HETATM   11  H   UNL     1       2.778   1.960  -0.077  1.00  0.00     0.170 HD
ENDROOT
BRANCH   7  12
HETATM   12  C   UNL     1       6.763  -0.220   0.072  1.00  0.00     0.156 C 
BRANCH  12  13
HETATM   13  C   UNL     1       7.453  -0.127  -1.271  1.00  0.00     0.143 C 
HETATM   14  O   UNL     1       8.203  -0.993  -1.699  1.00  0.00    -0.650 OA
BRANCH  13  15
HETATM   15  O   UNL     1       7.208   1.016  -1.955  1.00  0.00    -0.776 OA
HETATM   16  H   UNL     1       6.617   1.650  -1.481  1.00  0.00     0.167 HD
ENDBRANCH  13  15
ENDBRANCH  12  13
ENDBRANCH   7  12
TORSDOF 3
