REMARK  3 active torsions:
REMARK  status: ('A' for Active; 'I' for Inactive)
REMARK    1  A    between atoms: C_2  and  N_3 
REMARK    2  A    between atoms: C_8  and  N_9 
REMARK       I    between atoms: N_9  and  C_10 
REMARK       I    between atoms: C_10  and  N_12 
REMARK    3  A    between atoms: N_12  and  C_13 
ROOT
HETATM    1  N   UNL     1       1.889  -4.283  -1.602  1.00  0.00    -0.304 N 
HETATM    2  C   UNL     1       1.915  -5.020  -0.444  1.00  0.00     0.321 C 
HETATM    3  O   UNL     1       1.931  -4.575   0.698  1.00  0.00    -0.247 OA
HETATM    4  N   UNL     1       1.903  -6.371  -0.670  1.00  0.00    -0.337 N 
HETATM    5  H   UNL     1       1.809  -4.758  -2.492  1.00  0.00     0.171 HD
HETATM    6  H   UNL     1       2.210  -6.665  -1.586  1.00  0.00     0.164 HD
ENDROOT
BRANCH   1   7
HETATM    7  C   UNL     1       1.820  -2.906  -1.675  1.00  0.00     0.102 A 
HETATM    8  C   UNL     1       1.670  -2.275  -3.026  1.00  0.00     0.201 A 
HETATM    9  C   UNL     1       1.511  -0.797  -3.083  1.00  0.00     0.074 A 
HETATM   10  O   UNL     1       1.661  -2.957  -4.050  1.00  0.00    -0.286 OA
HETATM   11  C   UNL     1       1.488  -0.117  -1.932  1.00  0.00     0.094 A 
HETATM   12  N   UNL     1       1.633  -0.696  -0.684  1.00  0.00    -0.364 N 
HETATM   13  C   UNL     1       1.820  -2.071  -0.632  1.00  0.00     0.124 A 
BRANCH  12  14
HETATM   14  C   UNL     1       1.330   0.019   0.567  1.00  0.00     0.123 C 
HETATM   15  C   UNL     1      -0.114  -0.251   0.979  1.00  0.00     0.027 C 
ENDBRANCH  12  14
ENDBRANCH   1   7
BRANCH   4  16
HETATM   16  C   UNL     1       2.078  -7.285   0.473  1.00  0.00     0.103 C 
HETATM   17  C   UNL     1       0.962  -7.293   1.568  1.00  0.00     0.041 C 
HETATM   18  C   UNL     1       0.538  -7.236   3.028  1.00  0.00     0.035 C 
HETATM   19  C   UNL     1       1.460  -8.803   1.710  1.00  0.00     0.138 C 
HETATM   20  C   UNL     1      -0.317  -8.522   3.143  1.00  0.00     0.168 C 
HETATM   21  O   UNL     1       0.448  -9.518   2.439  1.00  0.00    -0.385 OA
HETATM   22  C   UNL     1       1.591  -8.783   0.171  1.00  0.00     0.007 C 
HETATM   23  C   UNL     1       2.671  -9.510  -0.635  1.00  0.00     0.014 C 
HETATM   24  C   UNL     1       0.254  -9.166  -0.480  1.00  0.00     0.014 C 
HETATM   25  C   UNL     1       1.951 -10.041  -1.884  1.00  0.00     0.001 C 
HETATM   26  C   UNL     1       0.604  -9.338  -1.937  1.00  0.00     0.001 C 
ENDBRANCH   4  16
TORSDOF 3
