REMARK  6 active torsions:
REMARK  status: ('A' for Active; 'I' for Inactive)
REMARK    1  A    between atoms: C_4  and  N_5 
REMARK       I    between atoms: N_5  and  C_6 
REMARK       I    between atoms: C_6  and  N_8 
REMARK    2  A    between atoms: N_8  and  C_9 
REMARK    3  A    between atoms: C_9  and  C_10 
REMARK    4  A    between atoms: C_9  and  C_13 
REMARK    5  A    between atoms: C_10  and  C_11 
REMARK    6  A    between atoms: C_11  and  O_12 
ROOT
HETATM    1  N   UNL     1       5.872   1.620  -0.152  1.00  0.00    -0.293 N 
HETATM    2  C   UNL     1       5.872   2.990  -0.542  1.00  0.00     0.322 C 
HETATM    3  O   UNL     1       5.438   3.379  -1.607  1.00  0.00    -0.247 OA
HETATM    4  N   UNL     1       6.486   3.732   0.414  1.00  0.00    -0.338 N 
HETATM    5  H   UNL     1       6.427   1.345   0.640  1.00  0.00     0.172 HD
HETATM    6  H   UNL     1       6.610   3.343   1.333  1.00  0.00     0.164 HD
ENDROOT
BRANCH   4   7
HETATM    7  C   UNL     1       6.772   5.154   0.243  1.00  0.00     0.092 C 
BRANCH   7   8
HETATM    8  C   UNL     1       6.082   5.901   1.399  1.00  0.00     0.051 C 
BRANCH   8   9
HETATM    9  C   UNL     1       6.186   7.417   1.329  1.00  0.00     0.166 C 
BRANCH   9  10
HETATM   10  O   UNL     1       5.519   7.977   2.453  1.00  0.00    -0.401 OA
HETATM   11  H   UNL     1       4.561   7.907   2.302  1.00  0.00     0.209 HD
ENDBRANCH   9  10
ENDBRANCH   8   9
ENDBRANCH   7   8
BRANCH   7  12
HETATM   12  C   UNL     1       8.299   5.458   0.103  1.00  0.00     0.008 C 
HETATM   13  C   UNL     1       8.965   4.824  -1.134  1.00  0.00     0.007 C 
HETATM   14  C   UNL     1       9.287   3.340  -0.994  1.00  0.00     0.000 C 
HETATM   15  C   UNL     1       9.992   2.988   0.313  1.00  0.00     0.000 C 
HETATM   16  C   UNL     1       9.411   3.660   1.553  1.00  0.00     0.000 C 
HETATM   17  C   UNL     1       9.151   5.147   1.345  1.00  0.00     0.007 C 
ENDBRANCH   7  12
ENDBRANCH   4   7
BRANCH   1  18
HETATM   18  C   UNL     1       5.208   0.629  -0.869  1.00  0.00     0.127 A 
HETATM   19  C   UNL     1       4.259   0.809  -1.848  1.00  0.00     0.076 A 
HETATM   20  C   UNL     1       3.861  -0.484  -2.241  1.00  0.00     0.025 A 
HETATM   21  C   UNL     1       2.851  -0.839  -3.265  1.00  0.00     0.070 C 
HETATM   22  N   UNL     1       4.515  -1.429  -1.557  1.00  0.00    -0.302 N 
HETATM   23  N   UNL     1       5.332  -0.737  -0.737  1.00  0.00    -0.281 N 
ATOM     24  HN  UNL     1       4.418  -2.441  -1.637  1.00  0.00     0.186 HD
HETATM   25  C   UNL     1       6.241  -1.482   0.099  1.00  0.00     0.179 C 
ENDBRANCH   1  18
TORSDOF 6
