REMARK  6 active torsions:
REMARK  status: ('A' for Active; 'I' for Inactive)
REMARK    1  A    between atoms: N_2  and  C_4 
REMARK    2  A    between atoms: N_9  and  C_10 
REMARK    3  A    between atoms: C_10  and  C_11 
REMARK    4  A    between atoms: C_11  and  N_12 
REMARK    5  A    between atoms: N_12  and  C_13 
REMARK    6  A    between atoms: C_18  and  C_19 
ROOT
HETATM    1  C   UNL     1       2.414  -4.861  -0.678  1.00  0.00     0.290 C 
ENDROOT
BRANCH   1   2
HETATM    2  C   UNL     1       3.233  -4.674  -1.976  1.00  0.00     0.161 C 
BRANCH   2   3
HETATM    3  N   UNL     1       2.569  -4.889  -3.271  1.00  0.00    -0.321 N 
HETATM    4  C   UNL     1       3.278  -4.478  -4.409  1.00  0.00     0.247 A 
HETATM    5  C   UNL     1       2.658  -4.802  -5.727  1.00  0.00     0.077 A 
HETATM    6  O   UNL     1       4.359  -3.898  -4.386  1.00  0.00    -0.268 OA
HETATM    7  C   UNL     1       1.500  -5.476  -5.788  1.00  0.00     0.043 A 
HETATM    8  C   UNL     1       0.833  -5.869  -4.576  1.00  0.00     0.118 A 
HETATM    9  C   UNL     1       1.359  -5.569  -3.382  1.00  0.00     0.130 A 
BRANCH   8  10
HETATM   10  N   UNL     1      -0.406  -6.643  -4.599  1.00  0.00    -0.114 N 
HETATM   11  O   UNL     1      -1.184  -6.521  -3.645  1.00  0.00    -0.532 OA
HETATM   12  O   UNL     1      -0.593  -7.374  -5.580  1.00  0.00    -0.532 OA
ENDBRANCH   8  10
ENDBRANCH   2   3
ENDBRANCH   1   2
BRANCH   1  13
HETATM   13  N   UNL     1       1.923  -6.225  -0.456  1.00  0.00     0.090 N 
HETATM   14  H   UNL     1       2.715  -6.872  -0.484  1.00  0.00     0.316 HD
BRANCH  13  15
HETATM   15  C   UNL     1       1.165  -6.440   0.790  1.00  0.00     0.233 C 
HETATM   16  C   UNL     1       0.771  -7.943   0.812  1.00  0.00     0.036 C 
HETATM   17  C   UNL     1      -0.300  -8.295  -0.229  1.00  0.00     0.002 C 
HETATM   18  C   UNL     1      -1.540  -7.414  -0.104  1.00  0.00     0.001 C 
HETATM   19  C   UNL     1      -1.200  -5.927  -0.041  1.00  0.00     0.015 C 
HETATM   20  C   UNL     1      -0.141  -5.640   1.036  1.00  0.00     0.126 C 
BRANCH  20  21
HETATM   21  C   UNL     1       0.010  -4.147   1.287  1.00  0.00     0.393 C 
HETATM   22  F   UNL     1       1.258  -3.812   1.680  1.00  0.00    -0.171 F 
HETATM   23  F   UNL     1      -0.300  -3.400   0.205  1.00  0.00    -0.171 F 
HETATM   24  F   UNL     1      -0.825  -3.759   2.282  1.00  0.00    -0.171 F 
ENDBRANCH  20  21
ENDBRANCH  13  15
ENDBRANCH   1  13
TORSDOF 6
