REMARK  5 active torsions:
REMARK  status: ('A' for Active; 'I' for Inactive)
REMARK    1  A    between atoms: O_2  and  C_3 
REMARK    2  A    between atoms: C_9  and  N_10 
REMARK       I    between atoms: N_10  and  C_11 
REMARK       I    between atoms: C_11  and  N_13 
REMARK    3  A    between atoms: N_13  and  C_14 
REMARK    4  A    between atoms: C_14  and  C_15 
REMARK    5  A    between atoms: C_15  and  N_16 
ROOT
HETATM    1  N   UNL     1       4.314  -1.267   1.553  1.00  0.00    -0.305 N 
HETATM    2  C   UNL     1       4.043  -2.023   0.441  1.00  0.00     0.320 C 
HETATM    3  O   UNL     1       3.668  -1.584  -0.644  1.00  0.00    -0.247 OA
HETATM    4  N   UNL     1       4.204  -3.383   0.626  1.00  0.00    -0.341 N 
HETATM    5  H   UNL     1       4.791  -1.696   2.336  1.00  0.00     0.171 HD
HETATM    6  H   UNL     1       4.917  -3.674   1.277  1.00  0.00     0.164 HD
ENDROOT
BRANCH   1   7
HETATM    7  C   UNL     1       4.104   0.136   1.652  1.00  0.00     0.087 A 
HETATM    8  C   UNL     1       4.671   0.876   2.693  1.00  0.00     0.169 A 
HETATM    9  N   UNL     1       4.490   2.210   2.872  1.00  0.00    -0.345 N 
HETATM   10  C   UNL     1       3.744   2.857   1.953  1.00  0.00     0.090 A 
ATOM     11  HN  UNL     1       4.900   2.701   3.666  1.00  0.00     0.167 HD
HETATM   12  C   UNL     1       3.166   2.230   0.868  1.00  0.00     0.019 A 
HETATM   13  C   UNL     1       3.339   0.855   0.728  1.00  0.00     0.035 A 
BRANCH   8  14
HETATM   14  O   UNL     1       5.506   0.211   3.577  1.00  0.00    -0.339 OA
HETATM   15  C   UNL     1       6.428   1.118   4.187  1.00  0.00     0.211 C 
ENDBRANCH   8  14
ENDBRANCH   1   7
BRANCH   4  16
HETATM   16  C   UNL     1       3.977  -4.200  -0.560  1.00  0.00     0.154 C 
BRANCH  16  17
HETATM   17  C   UNL     1       4.006  -5.719  -0.343  1.00  0.00     0.292 C 
BRANCH  17  18
HETATM   18  N   UNL     1       3.784  -6.473  -1.598  1.00  0.00     0.094 N 
HETATM   19  C   UNL     1       2.449  -6.246  -2.204  1.00  0.00     0.298 C 
HETATM   20  C   UNL     1       1.301  -6.861  -1.392  1.00  0.00     0.198 C 
HETATM   21  O   UNL     1       1.486  -8.274  -1.243  1.00  0.00    -0.388 OA
HETATM   22  C   UNL     1       2.749  -8.572  -0.633  1.00  0.00     0.198 C 
HETATM   23  C   UNL     1       3.925  -7.932  -1.393  1.00  0.00     0.298 C 
ENDBRANCH  17  18
ENDBRANCH  16  17
ENDBRANCH   4  16
TORSDOF 5
