REMARK  4 active torsions:
REMARK  status: ('A' for Active; 'I' for Inactive)
REMARK    1  A    between atoms: C_2  and  C_3 
REMARK    2  A    between atoms: C_2  and  N_10 
REMARK    3  A    between atoms: C_3  and  N_4 
REMARK       I    between atoms: N_10  and  C_11 
REMARK    4  A    between atoms: C_11  and  C_13 
ROOT
HETATM    1  C   UNL     1       0.967   0.135   0.024  1.00  0.00     0.034 C 
HETATM    2  C   UNL     1       2.491   0.112  -0.090  1.00  0.00     0.100 C 
ENDROOT
BRANCH   2   3
HETATM    3  C   UNL     1       2.989   0.365  -1.523  1.00  0.00     0.172 C 
BRANCH   3   4
HETATM    4  N   UNL     1       2.543  -0.636  -2.473  1.00  0.00    -0.302 N 
HETATM    5  C   UNL     1       3.169  -1.808  -2.786  1.00  0.00     0.111 A 
HETATM    6  C   UNL     1       2.377  -2.424  -3.727  1.00  0.00     0.037 A 
HETATM    7  C   UNL     1       1.303  -1.538  -3.925  1.00  0.00     0.108 A 
HETATM    8  N   UNL     1       1.404  -0.441  -3.168  1.00  0.00    -0.310 N 
ATOM      9  HN  UNL     1       0.769   0.356  -3.126  1.00  0.00     0.186 HD
ENDBRANCH   3   4
ENDBRANCH   2   3
BRANCH   2  10
HETATM   10  N   UNL     1       3.051   1.094   0.848  1.00  0.00    -0.355 N 
HETATM   11  C   UNL     1       4.329   0.973   1.357  1.00  0.00     0.222 C 
HETATM   12  O   UNL     1       5.053   0.028   1.037  1.00  0.00    -0.273 OA
HETATM   13  H   UNL     1       2.513   1.925   1.060  1.00  0.00     0.162 HD
BRANCH  11  14
HETATM   14  C   UNL     1       4.753   2.097   2.340  1.00  0.00     0.078 C 
HETATM   15  C   UNL     1       4.293   3.560   2.093  1.00  0.00     0.014 C 
HETATM   16  C   UNL     1       5.673   4.020   2.600  1.00  0.00     0.002 C 
HETATM   17  C   UNL     1       6.205   2.634   2.196  1.00  0.00     0.014 C 
ENDBRANCH  11  14
ENDBRANCH   2  10
TORSDOF 4
