REMARK  4 active torsions:
REMARK  status: ('A' for Active; 'I' for Inactive)
REMARK    1  A    between atoms: O_2  and  C_3 
REMARK    2  A    between atoms: C_5  and  N_6 
REMARK       I    between atoms: N_6  and  C_7 
REMARK       I    between atoms: C_7  and  N_9 
REMARK    3  A    between atoms: N_9  and  C_10 
REMARK    4  A    between atoms: C_10  and  C_11 
ROOT
HETATM    1  N   UNL     1       3.571   4.166   2.010  1.00  0.00    -0.295 N 
HETATM    2  C   UNL     1       2.566   4.860   1.393  1.00  0.00     0.321 C 
HETATM    3  O   UNL     1       1.737   4.264   0.712  1.00  0.00    -0.247 OA
HETATM    4  N   UNL     1       2.601   6.215   1.523  1.00  0.00    -0.342 N 
HETATM    5  H   UNL     1       3.582   3.187   1.767  1.00  0.00     0.172 HD
HETATM    6  H   UNL     1       3.153   6.532   2.315  1.00  0.00     0.164 HD
ENDROOT
BRANCH   1   7
HETATM    7  C   UNL     1       4.592   4.676   2.825  1.00  0.00     0.114 A 
HETATM    8  C   UNL     1       5.686   3.883   3.085  1.00  0.00     0.104 A 
HETATM    9  C   UNL     1       6.684   4.480   3.825  1.00  0.00     0.146 A 
HETATM   10  N   UNL     1       6.613   5.721   4.326  1.00  0.00    -0.333 N 
HETATM   11  C   UNL     1       5.493   6.388   4.046  1.00  0.00     0.183 A 
ATOM     12  HN  UNL     1       7.364   6.127   4.883  1.00  0.00     0.168 HD
HETATM   13  N   UNL     1       4.476   5.930   3.307  1.00  0.00    -0.338 N 
ATOM     14  HN  UNL     1       3.653   6.502   3.117  1.00  0.00     0.168 HD
BRANCH   9  15
HETATM   15  O   UNL     1       7.829   3.735   4.036  1.00  0.00    -0.341 OA
HETATM   16  C   UNL     1       8.841   4.475   4.717  1.00  0.00     0.211 C 
ENDBRANCH   9  15
ENDBRANCH   1   7
BRANCH   4  17
HETATM   17  C   UNL     1       1.621   7.094   0.935  1.00  0.00     0.133 C 
BRANCH  17  18
HETATM   18  C   UNL     1       2.019   8.546   1.226  1.00  0.00    -0.028 C 
HETATM   19  C   UNL     1       2.038   8.881   2.724  1.00  0.00     0.016 C 
HETATM   20  C   UNL     1       1.162   9.567   0.414  1.00  0.00     0.011 C 
HETATM   21  C   UNL     1       2.446  10.389   0.184  1.00  0.00     0.002 C 
HETATM   22  C   UNL     1       3.244   9.090   0.419  1.00  0.00     0.011 C 
ENDBRANCH  17  18
ENDBRANCH   4  17
TORSDOF 4
