REMARK  6 active torsions:
REMARK  status: ('A' for Active; 'I' for Inactive)
REMARK    1  A    between atoms: N_6  and  C_7 
REMARK    2  A    between atoms: C_7  and  C_8 
REMARK    3  A    between atoms: C_8  and  O_9 
REMARK    4  A    between atoms: C_8  and  C_10 
REMARK    5  A    between atoms: C_10  and  O_11 
REMARK    6  A    between atoms: O_11  and  C_12 
ROOT
HETATM    1  C   UNL     1       7.276  -1.265  -0.103  1.00  0.00     0.161 C 
ENDROOT
BRANCH   1   2
HETATM    2  C   UNL     1       6.654   0.141  -0.055  1.00  0.00     0.166 C 
BRANCH   2   3
HETATM    3  N   UNL     1       5.196   0.120   0.018  1.00  0.00    -0.307 N 
HETATM    4  C   UNL     1       4.445   0.119  -1.125  1.00  0.00     0.186 A 
HETATM    5  N   UNL     1       3.156   0.139  -1.165  1.00  0.00    -0.355 N 
HETATM    6  C   UNL     1       2.489   0.147   0.035  1.00  0.00     0.017 A 
ATOM      7  HN  UNL     1       2.653   0.148  -2.052  1.00  0.00     0.166 HD
HETATM    8  C   UNL     1       0.988   0.218  -0.089  1.00  0.00     0.069 C 
HETATM    9  C   UNL     1       3.097   0.097   1.235  1.00  0.00     0.028 A 
HETATM   10  C   UNL     1       4.584   0.050   1.249  1.00  0.00     0.256 A 
HETATM   11  C   UNL     1       2.380   0.093   2.549  1.00  0.00     0.056 C 
HETATM   12  O   UNL     1       5.210  -0.027   2.303  1.00  0.00    -0.267 OA
ENDBRANCH   2   3
ENDBRANCH   1   2
BRANCH   1  13
HETATM   13  O   UNL     1       6.845  -1.920  -1.308  1.00  0.00    -0.392 OA
HETATM   14  H   UNL     1       7.405  -1.627  -2.046  1.00  0.00     0.210 HD
ENDBRANCH   1  13
BRANCH   1  15
HETATM   15  C   UNL     1       8.814  -1.152  -0.057  1.00  0.00     0.209 C 
BRANCH  15  16
HETATM   16  O   UNL     1       9.401  -2.456  -0.062  1.00  0.00    -0.349 OA
BRANCH  16  17
HETATM   17  C   UNL     1      10.768  -2.525  -0.072  1.00  0.00     0.069 A 
HETATM   18  C   UNL     1      11.647  -1.437  -0.035  1.00  0.00     0.040 A 
HETATM   19  C   UNL     1      13.030  -1.651  -0.054  1.00  0.00     0.045 A 
HETATM   20  C   UNL     1      13.527  -2.947  -0.111  1.00  0.00     0.116 A 
HETATM   21  F   UNL     1      14.852  -3.145  -0.132  1.00  0.00    -0.206 F 
HETATM   22  C   UNL     1      12.667  -4.036  -0.143  1.00  0.00     0.045 A 
HETATM   23  C   UNL     1      11.287  -3.823  -0.122  1.00  0.00     0.040 A 
ENDBRANCH  16  17
ENDBRANCH  15  16
ENDBRANCH   1  15
TORSDOF 6
