REMARK  2 active torsions:
REMARK  status: ('A' for Active; 'I' for Inactive)
REMARK    1  A    between atoms: C_6  and  N_7 
REMARK       I    between atoms: N_7  and  C_8 
REMARK    2  A    between atoms: C_8  and  C_10 
ROOT
HETATM    1  N   UNL     1       5.111  -2.605   0.047  1.00  0.00    -0.307 N 
HETATM    2  C   UNL     1       4.453  -3.805  -0.129  1.00  0.00     0.282 C 
HETATM    3  O   UNL     1       3.253  -3.981  -0.304  1.00  0.00    -0.265 OA
HETATM    4  H   UNL     1       6.115  -2.646   0.155  1.00  0.00     0.170 HD
ENDROOT
BRANCH   1   5
HETATM    5  C   UNL     1       4.484  -1.354   0.087  1.00  0.00     0.108 A 
HETATM    6  C   UNL     1       5.273  -0.220   0.242  1.00  0.00     0.049 A 
HETATM    7  C   UNL     1       4.660   1.031   0.272  1.00  0.00     0.006 A 
HETATM    8  C   UNL     1       3.275   1.119   0.163  1.00  0.00     0.025 A 
HETATM    9  C   UNL     1       2.555  -0.059   0.021  1.00  0.00     0.007 A 
HETATM   10  C   UNL     1       1.059  -0.057  -0.054  1.00  0.00     0.068 C 
HETATM   11  N   UNL     1       3.149  -1.269  -0.017  1.00  0.00    -0.346 N 
ATOM     12  HN  UNL     1       2.587  -2.114  -0.124  1.00  0.00     0.167 HD
ENDBRANCH   1   5
BRANCH   2  13
HETATM   13  C   UNL     1       5.394  -4.982  -0.072  1.00  0.00     0.159 C 
HETATM   14  C   UNL     1       4.851  -6.200  -0.181  1.00  0.00     0.177 C 
HETATM   15  O   UNL     1       5.509  -7.388  -0.125  1.00  0.00    -0.358 OA
HETATM   16  C   UNL     1       6.905  -7.300   0.118  1.00  0.00     0.201 C 
HETATM   17  C   UNL     1       7.512  -5.917   0.383  1.00  0.00     0.202 C 
HETATM   18  O   UNL     1       6.740  -4.754   0.090  1.00  0.00    -0.342 OA
ENDBRANCH   2  13
TORSDOF 2
