REMARK  7 active torsions:
REMARK  status: ('A' for Active; 'I' for Inactive)
REMARK    1  A    between atoms: N_8  and  C_9 
REMARK    2  A    between atoms: C_9  and  C_10 
REMARK    3  A    between atoms: C_10  and  O_11 
REMARK    4  A    between atoms: C_10  and  C_12 
REMARK    5  A    between atoms: C_12  and  S_13 
REMARK    6  A    between atoms: S_13  and  C_14 
REMARK    7  A    between atoms: N_19  and  O_20 
ROOT
HETATM    1  C   UNL     1       7.536   0.776   0.115  1.00  0.00     0.162 C 
ENDROOT
BRANCH   1   2
HETATM    2  N   UNL     1       6.401  -0.126   0.053  1.00  0.00    -0.339 N 
HETATM    3  C   UNL     1       5.835  -0.744   1.134  1.00  0.00     0.184 A 
HETATM    4  N   UNL     1       4.827  -1.508   0.784  1.00  0.00    -0.350 N 
HETATM    5  C   UNL     1       4.733  -1.370  -0.580  1.00  0.00     0.060 A 
ATOM      6  HN  UNL     1       4.241  -2.080   1.392  1.00  0.00     0.166 HD
HETATM    7  C   UNL     1       3.813  -1.944  -1.468  1.00  0.00     0.039 A 
HETATM    8  C   UNL     1       5.721  -0.524  -1.074  1.00  0.00     0.062 A 
HETATM    9  C   UNL     1       3.898  -1.656  -2.843  1.00  0.00    -0.054 A 
HETATM   10  C   UNL     1       2.877  -2.262  -3.770  1.00  0.00     0.049 C 
HETATM   11  C   UNL     1       4.917  -0.807  -3.325  1.00  0.00    -0.054 A 
HETATM   12  C   UNL     1       5.853  -0.233  -2.435  1.00  0.00     0.039 A 
HETATM   13  C   UNL     1       5.026  -0.485  -4.793  1.00  0.00     0.049 C 
ENDBRANCH   1   2
BRANCH   1  14
HETATM   14  C   UNL     1       7.110   2.253   0.182  1.00  0.00     0.146 C 
BRANCH  14  15
HETATM   15  O   UNL     1       6.390   2.499   1.402  1.00  0.00    -0.393 OA
HETATM   16  H   UNL     1       6.987   2.352   2.157  1.00  0.00     0.210 HD
ENDBRANCH  14  15
BRANCH  14  17
HETATM   17  C   UNL     1       8.312   3.216   0.133  1.00  0.00     0.114 C 
BRANCH  17  18
HETATM   18  S   UNL     1       9.214   3.077  -1.449  1.00  0.00    -0.107 SA
BRANCH  18  19
HETATM   19  C   UNL     1      10.500   4.331  -1.334  1.00  0.00     0.098 A 
HETATM   20  C   UNL     1      10.936   4.858  -2.567  1.00  0.00     0.039 A 
HETATM   21  C   UNL     1      11.986   5.769  -2.630  1.00  0.00     0.004 A 
HETATM   22  C   UNL     1      12.620   6.169  -1.465  1.00  0.00     0.020 A 
HETATM   23  C   UNL     1      12.188   5.651  -0.247  1.00  0.00     0.124 A 
HETATM   24  N   UNL     1      11.143   4.733  -0.155  1.00  0.00    -0.230 N 
BRANCH  24  25
HETATM   25  O   UNL     1      10.835   4.288   0.997  1.00  0.00    -0.282 OA
ATOM     26  HO  UNL     1      11.271   4.560   1.796  1.00  0.00     0.245 HD
ENDBRANCH  24  25
ENDBRANCH  18  19
ENDBRANCH  17  18
ENDBRANCH  14  17
ENDBRANCH   1  14
TORSDOF 7
