REMARK  3 active torsions:
REMARK  status: ('A' for Active; 'I' for Inactive)
REMARK       I    between atoms: C_2  and  N_3 
REMARK       I    between atoms: C_2  and  N_11 
REMARK    1  A    between atoms: N_3  and  C_4 
REMARK    2  A    between atoms: N_11  and  C_12 
REMARK    3  A    between atoms: C_15  and  N_19 
ROOT
HETATM    1  C   UNL     1       4.486  -1.011  -0.608  1.00  0.00     0.051 A 
HETATM    2  C   UNL     1       5.227  -1.553   0.431  1.00  0.00     0.035 A 
HETATM    3  C   UNL     1       6.611  -1.451   0.422  1.00  0.00     0.051 A 
HETATM    4  C   UNL     1       7.266  -0.831  -0.637  1.00  0.00     0.103 A 
HETATM    5  N   UNL     1       6.565  -0.376  -1.699  1.00  0.00    -0.350 N 
ATOM      6  HN  UNL     1       7.041   0.027  -2.506  1.00  0.00     0.166 HD
HETATM    7  C   UNL     1       5.209  -0.470  -1.663  1.00  0.00     0.119 A 
ENDROOT
BRANCH   1   8
HETATM    8  N   UNL     1       3.072  -0.986  -0.611  1.00  0.00    -0.308 N 
HETATM    9  C   UNL     1       2.315  -1.120   0.527  1.00  0.00     0.321 C 
HETATM   10  O   UNL     1       2.748  -1.240   1.668  1.00  0.00    -0.247 OA
HETATM   11  N   UNL     1       0.961  -1.078   0.288  1.00  0.00    -0.337 N 
HETATM   12  H   UNL     1       0.638  -1.252  -0.654  1.00  0.00     0.164 HD
HETATM   13  H   UNL     1       2.616  -0.593  -1.421  1.00  0.00     0.170 HD
BRANCH  11  14
HETATM   14  C   UNL     1       0.011  -1.235   1.390  1.00  0.00     0.101 C 
HETATM   15  C   UNL     1       0.116  -0.096   2.429  1.00  0.00     0.041 C 
HETATM   16  C   UNL     1      -0.340  -0.591   3.799  1.00  0.00     0.142 C 
HETATM   17  S   UNL     1      -0.747  -2.309   3.631  1.00  0.00     0.146 S 
HETATM   18  O   UNL     1      -0.124  -3.067   4.695  1.00  0.00    -0.228 OA
HETATM   19  O   UNL     1      -2.162  -2.414   3.342  1.00  0.00    -0.228 OA
HETATM   20  C   UNL     1       0.135  -2.574   2.120  1.00  0.00     0.165 C 
ENDBRANCH  11  14
ENDBRANCH   1   8
BRANCH   4  21
HETATM   21  N   UNL     1       8.642  -0.749  -0.625  1.00  0.00    -0.367 N 
HETATM   22  C   UNL     1       9.368  -0.555  -1.871  1.00  0.00     0.124 C 
HETATM   23  C   UNL     1      10.610  -1.453  -1.817  1.00  0.00     0.020 C 
HETATM   24  C   UNL     1      11.435  -1.217  -0.546  1.00  0.00     0.003 C 
HETATM   25  C   UNL     1      10.569  -1.297   0.713  1.00  0.00     0.020 C 
HETATM   26  C   UNL     1       9.359  -0.374   0.590  1.00  0.00     0.124 C 
ENDBRANCH   4  21
TORSDOF 3
