REMARK  4 active torsions:
REMARK  status: ('A' for Active; 'I' for Inactive)
REMARK    1  A    between atoms: N_1  and  C_7 
REMARK    2  A    between atoms: N_2  and  C_12 
REMARK    3  A    between atoms: C_7  and  C_9 
REMARK       I    between atoms: C_8  and  N_10 
REMARK    4  A    between atoms: C_8  and  C_13 
REMARK       I    between atoms: C_9  and  N_11 
ROOT
HETATM    1  C   UNL     1      -1.347   2.120   0.121  1.00  0.00     0.240 C 
ENDROOT
BRANCH   1   2
HETATM    2  N   UNL     1      -0.551   2.163  -1.109  1.00  0.00    -0.255 N 
HETATM    3  C   UNL     1       0.044   0.984  -1.551  1.00  0.00     0.334 C 
HETATM    4  N   UNL     1       0.646   1.031  -2.808  1.00  0.00    -0.279 N 
HETATM    5  O   UNL     1       0.066  -0.048  -0.880  1.00  0.00    -0.246 OA
HETATM    6  C   UNL     1       1.030   2.233  -3.361  1.00  0.00     0.146 C 
HETATM    7  C   UNL     1       0.705   3.388  -2.786  1.00  0.00     0.200 C 
HETATM    8  C   UNL     1      -0.160   3.409  -1.585  1.00  0.00     0.292 C 
HETATM    9  F   UNL     1       1.146   4.569  -3.257  1.00  0.00    -0.199 F 
HETATM   10  O   UNL     1      -0.440   4.477  -1.046  1.00  0.00    -0.264 OA
BRANCH   4  11
HETATM   11  C   UNL     1       1.027  -0.249  -3.403  1.00  0.00     0.232 C 
HETATM   12  O   UNL     1       1.640  -0.085  -4.695  1.00  0.00    -0.366 OA
HETATM   13  C   UNL     1       1.219  -1.168  -5.542  1.00  0.00     0.170 C 
HETATM   14  C   UNL     1       0.372  -2.098  -4.703  1.00  0.00     0.031 C 
HETATM   15  C   UNL     1      -0.169  -1.167  -3.651  1.00  0.00     0.056 C 
ENDBRANCH   4  11
ENDBRANCH   1   2
BRANCH   1  16
HETATM   16  C   UNL     1      -2.888   2.195  -0.040  1.00  0.00     0.238 C 
HETATM   17  N   UNL     1      -3.619   1.009  -0.003  1.00  0.00    -0.348 N 
HETATM   18  C   UNL     1      -5.081   1.043   0.174  1.00  0.00     0.145 C 
HETATM   19  C   UNL     1      -3.132  -0.255  -0.544  1.00  0.00     0.145 C 
HETATM   20  C   UNL     1      -5.593  -0.188   0.962  1.00  0.00     0.146 C 
HETATM   21  N   UNL     1      -5.029  -1.450   0.464  1.00  0.00    -0.343 N 
HETATM   22  C   UNL     1      -5.724  -2.645   0.708  1.00  0.00     0.277 C 
HETATM   23  C   UNL     1      -3.573  -1.433   0.314  1.00  0.00     0.146 C 
HETATM   24  O   UNL     1      -6.730  -2.648   1.418  1.00  0.00    -0.265 OA
HETATM   25  O   UNL     1      -3.458   3.286  -0.118  1.00  0.00    -0.272 OA
BRANCH  22  26
HETATM   26  C   UNL     1      -5.222  -3.859   0.084  1.00  0.00     0.142 A 
HETATM   27  O   UNL     1      -4.600  -3.797  -1.140  1.00  0.00    -0.317 OA
HETATM   28  C   UNL     1      -4.261  -5.064  -1.490  1.00  0.00     0.143 A 
HETATM   29  C   UNL     1      -4.668  -5.954  -0.527  1.00  0.00     0.027 A 
HETATM   30  C   UNL     1      -5.308  -5.184   0.476  1.00  0.00     0.045 A 
ENDBRANCH  22  26
ENDBRANCH   1  16
TORSDOF 4
