REMARK  6 active torsions:
REMARK  status: ('A' for Active; 'I' for Inactive)
REMARK    1  A    between atoms: O_2  and  C_3 
REMARK    2  A    between atoms: C_3  and  C_4 
REMARK    3  A    between atoms: C_4  and  N_5 
REMARK    4  A    between atoms: N_5  and  C_6 
REMARK    5  A    between atoms: C_9  and  S_13 
REMARK    6  A    between atoms: S_13  and  N_16 
ROOT
HETATM    1  C   UNL     1       6.324  -1.168  -2.823  1.00  0.00     0.079 A 
HETATM    2  C   UNL     1       7.046   0.015  -2.953  1.00  0.00     0.044 A 
HETATM    3  C   UNL     1       8.349  -0.022  -3.443  1.00  0.00     0.030 A 
HETATM    4  C   UNL     1       8.863  -1.240  -3.866  1.00  0.00     0.095 A 
HETATM    5  C   UNL     1       8.117  -2.382  -3.657  1.00  0.00     0.114 A 
HETATM    6  N   UNL     1       6.860  -2.366  -3.135  1.00  0.00    -0.355 N 
ATOM      7  HN  UNL     1       6.341  -3.231  -2.985  1.00  0.00     0.166 HD
ENDROOT
BRANCH   4   8
HETATM    8  S   UNL     1      10.441  -1.330  -4.637  1.00  0.00     0.262 S 
HETATM    9  O   UNL     1      11.312  -0.429  -3.915  1.00  0.00    -0.200 OA
HETATM   10  O   UNL     1      10.774  -2.732  -4.781  1.00  0.00    -0.200 OA
BRANCH   8  11
HETATM   11  N   UNL     1      10.196  -0.695  -6.188  1.00  0.00    -0.303 N 
HETATM   12  C   UNL     1      10.005   0.768  -6.387  1.00  0.00     0.165 C 
HETATM   13  C   UNL     1       8.546   1.165  -6.727  1.00  0.00     0.292 C 
HETATM   14  N   UNL     1       7.795   0.287  -7.647  1.00  0.00     0.087 N 
HETATM   15  C   UNL     1       8.108   0.567  -9.045  1.00  0.00     0.310 C 
HETATM   16  C   UNL     1       8.022  -1.129  -7.308  1.00  0.00     0.292 C 
HETATM   17  C   UNL     1       9.504  -1.516  -7.205  1.00  0.00     0.165 C 
ENDBRANCH   8  11
ENDBRANCH   4   8
BRANCH   1  18
HETATM   18  N   UNL     1       4.974  -1.052  -2.458  1.00  0.00    -0.277 NA
HETATM   19  H   UNL     1       4.465  -0.755  -3.293  1.00  0.00     0.129 HD
BRANCH  18  20
HETATM   20  C   UNL     1       4.358  -2.265  -1.922  1.00  0.00     0.120 C 
BRANCH  20  21
HETATM   21  C   UNL     1       2.851  -2.026  -1.749  1.00  0.00     0.181 C 
BRANCH  21  22
HETATM   22  O   UNL     1       2.245  -1.887  -3.042  1.00  0.00    -0.395 OA
HETATM   23  C   UNL     1       0.842  -1.677  -2.941  1.00  0.00     0.201 C 
ENDBRANCH  21  22
ENDBRANCH  20  21
ENDBRANCH  18  20
ENDBRANCH   1  18
TORSDOF 6
