REMARK  7 active torsions:
REMARK  status: ('A' for Active; 'I' for Inactive)
REMARK    1  A    between atoms: N_2  and  C_14 
REMARK    2  A    between atoms: C_6  and  N_9 
REMARK       I    between atoms: N_8  and  C_15 
REMARK    3  A    between atoms: N_9  and  C_20 
REMARK    4  A    between atoms: C_14  and  C_16 
REMARK    5  A    between atoms: C_16  and  C_23 
REMARK    6  A    between atoms: C_16  and  O_26 
REMARK    7  A    between atoms: C_19  and  C_20 
ROOT
HETATM    1  C   UNL     1       0.089  -0.387   0.588  1.00  0.00     0.122 C 
HETATM    2  N   UNL     1       1.092   1.562   0.726  1.00  0.00    -0.325 N 
HETATM    3  C   UNL     1      -0.115   0.975   0.427  1.00  0.00     0.140 C 
HETATM    4  N   UNL     1       1.308  -0.599   1.198  1.00  0.00    -0.346 N 
ATOM      5  HN  UNL     1       1.675  -1.481   1.554  1.00  0.00     0.167 HD
HETATM    6  C   UNL     1      -0.907  -1.261   0.057  1.00  0.00     0.135 C 
HETATM    7  C   UNL     1       1.896   0.575   1.223  1.00  0.00     0.185 C 
HETATM    8  N   UNL     1      -1.222   1.593  -0.008  1.00  0.00    -0.336 N 
ATOM      9  HN  UNL     1      -1.311   2.600  -0.146  1.00  0.00     0.168 HD
HETATM   10  N   UNL     1      -2.095  -0.640  -0.258  1.00  0.00    -0.337 N 
ATOM     11  HN  UNL     1      -2.908  -1.202  -0.511  1.00  0.00     0.168 HD
HETATM   12  C   UNL     1      -2.192   0.703  -0.235  1.00  0.00     0.183 C 
ENDROOT
BRANCH   6  13
HETATM   13  N   UNL     1      -0.756  -2.614  -0.327  1.00  0.00    -0.369 N 
HETATM   14  C   UNL     1      -1.930  -3.147  -1.027  1.00  0.00     0.151 C 
BRANCH  13  15
HETATM   15  C   UNL     1      -0.019  -3.574   0.511  1.00  0.00     0.130 C 
BRANCH  15  16
HETATM   16  C   UNL     1       1.325  -4.109  -0.046  1.00  0.00     0.023 C 
HETATM   17  C   UNL     1       2.499  -3.139   0.065  1.00  0.00     0.132 C 
HETATM   18  N   UNL     1       2.691  -2.654  -1.281  1.00  0.00    -0.352 N 
HETATM   19  C   UNL     1       3.301  -1.455  -1.564  1.00  0.00     0.215 C 
HETATM   20  C   UNL     1       2.454  -3.750  -2.189  1.00  0.00     0.126 C 
HETATM   21  O   UNL     1       3.835  -0.746  -0.710  1.00  0.00    -0.274 OA
HETATM   22  C   UNL     1       3.232  -0.979  -2.994  1.00  0.00     0.117 C 
HETATM   23  C   UNL     1       1.342  -4.555  -1.526  1.00  0.00     0.028 C 
ENDBRANCH  15  16
ENDBRANCH  13  15
ENDBRANCH   6  13
BRANCH   2  24
HETATM   24  C   UNL     1       1.509   2.905   0.346  1.00  0.00     0.165 C 
BRANCH  24  25
HETATM   25  C   UNL     1       0.990   4.004   1.284  1.00  0.00     0.165 C 
BRANCH  25  26
HETATM   26  C   UNL     1       1.508   5.410   0.953  1.00  0.00     0.151 C 
HETATM   27  O   UNL     1       1.286   5.753  -0.436  1.00  0.00    -0.383 OA
HETATM   28  C   UNL     1       2.273   6.738  -0.803  1.00  0.00     0.168 C 
HETATM   29  C   UNL     1       3.143   6.983   0.416  1.00  0.00     0.029 C 
HETATM   30  C   UNL     1       2.984   5.685   1.180  1.00  0.00     0.036 C 
ENDBRANCH  25  26
BRANCH  25  31
HETATM   31  O   UNL     1      -0.439   4.099   1.219  1.00  0.00    -0.391 OA
HETATM   32  H   UNL     1      -0.672   4.248   0.282  1.00  0.00     0.210 HD
ENDBRANCH  25  31
ENDBRANCH  24  25
ENDBRANCH   2  24
TORSDOF 7
