REMARK  5 active torsions:
REMARK  status: ('A' for Active; 'I' for Inactive)
REMARK       I    between atoms: C_2  and  N_4 
REMARK    1  A    between atoms: N_7  and  C_8 
REMARK    2  A    between atoms: C_8  and  C_9 
REMARK    3  A    between atoms: C_9  and  O_10 
REMARK    4  A    between atoms: C_9  and  C_11 
REMARK    5  A    between atoms: C_11  and  N_12 
ROOT
HETATM    1  C   UNL     1       6.335  -2.697   3.883  1.00  0.00     0.164 C 
ENDROOT
BRANCH   1   2
HETATM    2  C   UNL     1       4.970  -2.976   3.208  1.00  0.00     0.305 C 
BRANCH   2   3
HETATM    3  N   UNL     1       5.003  -3.003   1.732  1.00  0.00     0.094 N 
HETATM    4  C   UNL     1       3.642  -3.177   1.165  1.00  0.00     0.292 C 
HETATM    5  C   UNL     1       3.037  -4.580   1.378  1.00  0.00     0.156 C 
HETATM    6  N   UNL     1       3.954  -5.638   0.946  1.00  0.00    -0.349 N 
HETATM    7  C   UNL     1       3.448  -6.721   0.249  1.00  0.00     0.215 C 
HETATM    8  C   UNL     1       5.337  -5.502   1.418  1.00  0.00     0.156 C 
HETATM    9  C   UNL     1       4.406  -7.834  -0.090  1.00  0.00     0.117 C 
HETATM   10  O   UNL     1       2.267  -6.800  -0.088  1.00  0.00    -0.274 OA
HETATM   11  C   UNL     1       5.867  -4.073   1.181  1.00  0.00     0.292 C 
ENDBRANCH   2   3
ENDBRANCH   1   2
BRANCH   1  12
HETATM   12  O   UNL     1       6.867  -1.440   3.451  1.00  0.00    -0.392 OA
HETATM   13  H   UNL     1       6.146  -0.791   3.404  1.00  0.00     0.210 HD
ENDBRANCH   1  12
BRANCH   1  14
HETATM   14  C   UNL     1       6.177  -2.695   5.408  1.00  0.00     0.163 C 
BRANCH  14  15
HETATM   15  N   UNL     1       7.456  -2.537   6.076  1.00  0.00    -0.339 N 
HETATM   16  C   UNL     1       7.994  -1.340   6.458  1.00  0.00     0.184 A 
HETATM   17  N   UNL     1       9.187  -1.492   6.984  1.00  0.00    -0.350 N 
HETATM   18  C   UNL     1       9.439  -2.839   6.913  1.00  0.00     0.060 A 
ATOM     19  HN  UNL     1       9.795  -0.766   7.363  1.00  0.00     0.166 HD
HETATM   20  C   UNL     1      10.584  -3.550   7.296  1.00  0.00     0.039 A 
HETATM   21  C   UNL     1       8.361  -3.526   6.364  1.00  0.00     0.062 A 
HETATM   22  C   UNL     1      10.629  -4.949   7.133  1.00  0.00    -0.054 A 
HETATM   23  C   UNL     1      11.880  -5.670   7.552  1.00  0.00     0.049 C 
HETATM   24  C   UNL     1       9.518  -5.629   6.588  1.00  0.00    -0.054 A 
HETATM   25  C   UNL     1       9.496  -7.124   6.395  1.00  0.00     0.049 C 
HETATM   26  C   UNL     1       8.365  -4.916   6.195  1.00  0.00     0.039 A 
ENDBRANCH  14  15
ENDBRANCH   1  14
TORSDOF 5
