REMARK  2 active torsions:
REMARK  status: ('A' for Active; 'I' for Inactive)
REMARK       I    between atoms: C_2  and  N_3 
REMARK       I    between atoms: C_2  and  N_12 
REMARK    1  A    between atoms: N_3  and  C_4 
REMARK    2  A    between atoms: N_12  and  C_13 
ROOT
HETATM    1  O   UNL     1       1.403  -0.592  -0.891  1.00  0.00    -0.247 OA
HETATM    2  C   UNL     1       2.479  -0.174  -0.465  1.00  0.00     0.322 C 
HETATM    3  N   UNL     1       2.931   1.081  -0.701  1.00  0.00    -0.330 N 
HETATM    4  N   UNL     1       3.287  -1.016   0.231  1.00  0.00    -0.295 N 
HETATM    5  H   UNL     1       3.751   1.378  -0.174  1.00  0.00     0.165 HD
HETATM    6  H   UNL     1       2.888  -1.937   0.327  1.00  0.00     0.172 HD
ENDROOT
BRANCH   3   7
HETATM    7  C   UNL     1       2.209   2.047  -1.520  1.00  0.00     0.172 C 
HETATM    8  C   UNL     1       2.578   1.836  -2.991  1.00  0.00     0.034 C 
HETATM    9  C   UNL     1       1.625   2.561  -3.933  1.00  0.00     0.004 C 
HETATM   10  C   UNL     1       1.975   4.023  -4.179  1.00  0.00     0.015 C 
HETATM   11  C   UNL     1       2.657   4.757  -3.035  1.00  0.00     0.095 C 
HETATM   12  N   UNL     1       2.077   4.550  -1.727  1.00  0.00    -0.261 NA
HETATM   13  C   UNL     1       2.447   3.467  -0.964  1.00  0.00     0.220 C 
HETATM   14  H   UNL     1       2.146   5.374  -1.139  1.00  0.00     0.130 HD
HETATM   15  O   UNL     1       2.826   3.682   0.189  1.00  0.00    -0.278 OA
ENDBRANCH   3   7
BRANCH   4  16
HETATM   16  C   UNL     1       4.562  -0.791   0.757  1.00  0.00     0.108 A 
HETATM   17  C   UNL     1       5.211  -1.874   1.343  1.00  0.00     0.049 A 
HETATM   18  C   UNL     1       6.488  -1.691   1.872  1.00  0.00     0.005 A 
HETATM   19  C   UNL     1       7.076  -0.435   1.810  1.00  0.00     0.017 A 
HETATM   20  C   UNL     1       6.359   0.586   1.211  1.00  0.00     0.089 A 
HETATM   21  N   UNL     1       5.126   0.432   0.681  1.00  0.00    -0.352 N 
ATOM     22  HN  UNL     1       4.639   1.212   0.239  1.00  0.00     0.166 HD
ENDBRANCH   4  16
TORSDOF 2
