REMARK  5 active torsions:
REMARK  status: ('A' for Active; 'I' for Inactive)
REMARK    1  A    between atoms: N_2  and  C_4 
REMARK    2  A    between atoms: C_7  and  N_8 
REMARK       I    between atoms: N_8  and  C_9 
REMARK       I    between atoms: C_9  and  N_11 
REMARK    3  A    between atoms: N_11  and  C_12 
REMARK    4  A    between atoms: N_15  and  C_16 
REMARK    5  A    between atoms: C_16  and  C_17 
ROOT
HETATM    1  N   UNL     1       4.117  -0.274  -6.908  1.00  0.00    -0.308 N 
HETATM    2  C   UNL     1       4.443  -1.357  -7.701  1.00  0.00     0.321 C 
HETATM    3  O   UNL     1       4.172  -1.457  -8.891  1.00  0.00    -0.247 OA
HETATM    4  N   UNL     1       5.077  -2.355  -6.988  1.00  0.00    -0.338 N 
HETATM    5  H   UNL     1       3.956  -0.485  -5.937  1.00  0.00     0.170 HD
HETATM    6  H   UNL     1       5.321  -2.185  -6.023  1.00  0.00     0.164 HD
ENDROOT
BRANCH   1   7
HETATM    7  C   UNL     1       3.479   0.882  -7.419  1.00  0.00     0.051 A 
HETATM    8  C   UNL     1       2.473   1.481  -6.672  1.00  0.00     0.034 A 
HETATM    9  C   UNL     1       1.841   2.628  -7.161  1.00  0.00     0.044 A 
HETATM   10  C   UNL     1       2.276   3.220  -8.347  1.00  0.00     0.081 A 
HETATM   11  N   UNL     1       3.265   2.654  -9.075  1.00  0.00    -0.354 N 
HETATM   12  C   UNL     1       3.816   1.491  -8.621  1.00  0.00     0.119 A 
ATOM     13  HN  UNL     1       3.590   3.085  -9.940  1.00  0.00     0.166 HD
BRANCH  10  14
HETATM   14  N   UNL     1       1.714   4.459  -8.725  1.00  0.00    -0.278 NA
HETATM   15  C   UNL     1       2.600   5.254  -9.570  1.00  0.00     0.118 C 
HETATM   16  C   UNL     1       0.342   4.332  -9.210  1.00  0.00     0.118 C 
ENDBRANCH  10  14
ENDBRANCH   1   7
BRANCH   4  17
HETATM   17  C   UNL     1       5.353  -3.675  -7.567  1.00  0.00     0.089 C 
HETATM   18  C   UNL     1       4.318  -4.717  -7.142  1.00  0.00     0.055 C 
HETATM   19  C   UNL     1       4.505  -5.165  -5.691  1.00  0.00     0.275 C 
HETATM   20  N   UNL     1       5.863  -5.596  -5.332  1.00  0.00     0.092 N 
HETATM   21  C   UNL     1       6.895  -4.664  -5.797  1.00  0.00     0.275 C 
HETATM   22  C   UNL     1       6.755  -4.190  -7.244  1.00  0.00     0.055 C 
BRANCH  20  23
HETATM   23  C   UNL     1       6.165  -6.995  -5.650  1.00  0.00     0.305 C 
BRANCH  23  24
HETATM   24  C   UNL     1       5.339  -7.981  -4.843  1.00  0.00    -0.065 C 
HETATM   25  C   UNL     1       4.568  -8.914  -5.426  1.00  0.00     0.015 C 
HETATM   26  C   UNL     1       5.418  -7.898  -3.341  1.00  0.00     0.044 C 
ENDBRANCH  23  24
ENDBRANCH  20  23
ENDBRANCH   4  17
TORSDOF 5
