REMARK  5 active torsions:
REMARK  status: ('A' for Active; 'I' for Inactive)
REMARK    1  A    between atoms: C_2  and  N_3 
REMARK    2  A    between atoms: C_6  and  C_7 
REMARK    3  A    between atoms: C_7  and  N_8 
REMARK       I    between atoms: N_8  and  C_9 
REMARK    4  A    between atoms: C_9  and  C_11 
REMARK    5  A    between atoms: C_11  and  C_12 
ROOT
HETATM    1  N   UNL     1       3.882  -4.437   3.510  1.00  0.00    -0.360 N 
HETATM    2  C   UNL     1       3.253  -4.953   4.623  1.00  0.00     0.222 C 
HETATM    3  O   UNL     1       2.467  -4.306   5.310  1.00  0.00    -0.273 OA
HETATM    4  H   UNL     1       4.560  -5.000   3.011  1.00  0.00     0.162 HD
ENDROOT
BRANCH   2   5
HETATM    5  C   UNL     1       3.596  -6.398   4.926  1.00  0.00     0.146 C 
BRANCH   5   6
HETATM    6  C   UNL     1       4.726  -6.612   5.877  1.00  0.00     0.006 A 
HETATM    7  C   UNL     1       5.163  -7.879   6.372  1.00  0.00     0.038 A 
HETATM    8  C   UNL     1       4.621  -9.230   6.092  1.00  0.00     0.071 C 
HETATM    9  N   UNL     1       6.206  -7.755   7.196  1.00  0.00    -0.265 N 
HETATM   10  O   UNL     1       6.467  -6.406   7.272  1.00  0.00    -0.242 OA
ATOM     11  HN  UNL     1       6.707  -8.506   7.672  1.00  0.00     0.194 HD
HETATM   12  C   UNL     1       5.588  -5.722   6.493  1.00  0.00     0.081 A 
HETATM   13  C   UNL     1       5.759  -4.255   6.499  1.00  0.00     0.079 C 
ENDBRANCH   5   6
ENDBRANCH   2   5
BRANCH   1  14
HETATM   14  C   UNL     1       3.626  -3.089   3.024  1.00  0.00     0.129 C 
BRANCH  14  15
HETATM   15  C   UNL     1       2.414  -3.027   2.082  1.00  0.00     0.033 C 
HETATM   16  C   UNL     1       2.647  -3.776   0.768  1.00  0.00     0.038 C 
HETATM   17  C   UNL     1       3.094  -2.719  -0.239  1.00  0.00     0.273 C 
HETATM   18  N   UNL     1       3.100  -1.448   0.492  1.00  0.00     0.088 N 
HETATM   19  C   UNL     1       2.150  -1.604   1.599  1.00  0.00     0.278 C 
BRANCH  18  20
HETATM   20  C   UNL     1       2.780  -0.289  -0.345  1.00  0.00     0.268 C 
HETATM   21  C   UNL     1       3.809  -0.059  -1.448  1.00  0.00     0.037 C 
ENDBRANCH  18  20
ENDBRANCH  14  15
ENDBRANCH   1  14
TORSDOF 5
