REMARK  3 active torsions:
REMARK  status: ('A' for Active; 'I' for Inactive)
REMARK       I    between atoms: N_2  and  C_3 
REMARK    1  A    between atoms: C_3  and  C_5 
REMARK    2  A    between atoms: C_5  and  C_6 
REMARK    3  A    between atoms: C_9  and  C_12 
ROOT
HETATM    1  C   UNL     1       5.158   1.705  -2.064  1.00  0.00     0.059 A 
HETATM    2  N   UNL     1       4.914   2.998  -2.041  1.00  0.00    -0.356 N 
ATOM      3  HN  UNL     1       4.376   3.475  -1.318  1.00  0.00     0.166 HD
HETATM    4  C   UNL     1       5.490   3.620  -3.137  1.00  0.00     0.021 A 
HETATM    5  C   UNL     1       6.265   2.787  -3.922  1.00  0.00     0.077 A 
HETATM    6  S   UNL     1       6.213   1.185  -3.313  1.00  0.00    -0.086 SA
ENDROOT
BRANCH   4   7
HETATM    7  C   UNL     1       5.137   5.047  -3.426  1.00  0.00     0.040 C 
HETATM    8  C   UNL     1       4.866   5.921  -2.179  1.00  0.00     0.015 C 
HETATM    9  C   UNL     1       3.413   6.385  -2.392  1.00  0.00    -0.013 C 
HETATM   10  C   UNL     1       2.467   5.179  -2.235  1.00  0.00     0.005 C 
HETATM   11  C   UNL     1       3.393   6.625  -3.902  1.00  0.00     0.010 C 
HETATM   12  C   UNL     1       2.654   4.419  -3.556  1.00  0.00     0.006 C 
HETATM   13  C   UNL     1       3.809   5.188  -4.228  1.00  0.00    -0.004 C 
ENDBRANCH   4   7
BRANCH   1  14
HETATM   14  C   UNL     1       4.498   0.733  -1.148  1.00  0.00     0.167 C 
BRANCH  14  15
HETATM   15  C   UNL     1       4.932   0.993   0.278  1.00  0.00     0.223 C 
HETATM   16  N   UNL     1       4.562   2.222   0.789  1.00  0.00    -0.365 N 
HETATM   17  C   UNL     1       4.981   2.623   2.107  1.00  0.00     0.149 C 
HETATM   18  H   UNL     1       4.341   2.947   0.109  1.00  0.00     0.161 HD
HETATM   19  O   UNL     1       5.504   0.136   0.946  1.00  0.00    -0.273 OA
ENDBRANCH  14  15
ENDBRANCH   1  14
TORSDOF 3
