REMARK  6 active torsions:
REMARK  status: ('A' for Active; 'I' for Inactive)
REMARK    1  A    between atoms: C_2  and  C_5 
REMARK    2  A    between atoms: C_10  and  N_11 
REMARK       I    between atoms: N_11  and  C_12 
REMARK    3  A    between atoms: C_12  and  C_14 
REMARK    4  A    between atoms: C_14  and  O_15 
REMARK    5  A    between atoms: O_15  and  C_16 
REMARK    6  A    between atoms: C_16  and  C_17 
ROOT
HETATM    1  C   UNL     1       2.394  -0.966  -0.325  1.00  0.00     0.065 A 
HETATM    2  C   UNL     1       1.737  -0.692  -1.465  1.00  0.00     0.107 A 
HETATM    3  N   UNL     1       0.928  -1.632  -2.055  1.00  0.00    -0.331 N 
HETATM    4  C   UNL     1       0.701  -2.886  -1.535  1.00  0.00     0.272 A 
HETATM    5  O   UNL     1      -0.064  -3.694  -2.054  1.00  0.00    -0.266 OA
HETATM    6  C   UNL     1       1.442  -3.228  -0.262  1.00  0.00     0.104 A 
HETATM    7  C   UNL     1       2.250  -2.291   0.256  1.00  0.00     0.052 A 
HETATM    8  H   UNL     1       0.423  -1.410  -2.906  1.00  0.00     0.168 HD
ENDROOT
BRANCH   6   9
HETATM    9  N   UNL     1       1.204  -4.480   0.280  1.00  0.00    -0.321 N 
HETATM   10  C   UNL     1       1.794  -5.023   1.408  1.00  0.00     0.246 C 
HETATM   11  O   UNL     1       2.722  -4.510   2.033  1.00  0.00    -0.271 OA
HETATM   12  H   UNL     1       0.496  -5.018  -0.215  1.00  0.00     0.169 HD
BRANCH  10  13
HETATM   13  C   UNL     1       1.178  -6.335   1.882  1.00  0.00     0.270 C 
BRANCH  13  14
HETATM   14  O   UNL     1       0.580  -6.078   3.148  1.00  0.00    -0.380 OA
BRANCH  14  15
HETATM   15  C   UNL     1       0.166  -7.263   3.817  1.00  0.00     0.200 C 
BRANCH  15  16
HETATM   16  C   UNL     1      -0.413  -6.884   5.178  1.00  0.00     0.145 C 
HETATM   17  C   UNL     1       0.591  -6.241   6.128  1.00  0.00     0.036 C 
HETATM   18  C   UNL     1       0.197  -6.755   7.499  1.00  0.00     0.029 C 
HETATM   19  C   UNL     1      -0.989  -7.662   7.246  1.00  0.00     0.168 C 
HETATM   20  O   UNL     1      -0.908  -8.040   5.868  1.00  0.00    -0.384 OA
ENDBRANCH  15  16
ENDBRANCH  14  15
ENDBRANCH  13  14
ENDBRANCH  10  13
ENDBRANCH   6   9
BRANCH   1  21
HETATM   21  C   UNL     1       3.232   0.049   0.402  1.00  0.00     0.418 C 
HETATM   22  F   UNL     1       3.753  -0.417   1.565  1.00  0.00    -0.166 F 
HETATM   23  F   UNL     1       2.507   1.153   0.717  1.00  0.00    -0.166 F 
HETATM   24  F   UNL     1       4.278   0.469  -0.354  1.00  0.00    -0.166 F 
ENDBRANCH   1  21
TORSDOF 6
