REMARK  6 active torsions:
REMARK  status: ('A' for Active; 'I' for Inactive)
REMARK    1  A    between atoms: C_2  and  C_3 
REMARK    2  A    between atoms: C_2  and  N_15 
REMARK       I    between atoms: C_3  and  N_5 
REMARK    3  A    between atoms: N_5  and  C_6 
REMARK    4  A    between atoms: C_6  and  C_7 
REMARK    5  A    between atoms: C_7  and  C_8 
REMARK    6  A    between atoms: C_8  and  O_9 
ROOT
HETATM    1  C   UNL     1       2.971  -0.934  -1.169  1.00  0.00     0.240 C 
HETATM    2  O   UNL     1       2.956  -0.593  -2.350  1.00  0.00    -0.271 OA
HETATM    3  N   UNL     1       3.258  -2.224  -0.775  1.00  0.00    -0.358 N 
HETATM    4  H   UNL     1       3.148  -2.485   0.196  1.00  0.00     0.162 HD
ENDROOT
BRANCH   3   5
HETATM    5  C   UNL     1       3.659  -3.257  -1.712  1.00  0.00     0.134 C 
BRANCH   5   6
HETATM    6  C   UNL     1       2.598  -4.375  -1.901  1.00  0.00    -0.003 C 
HETATM    7  C   UNL     1       2.281  -5.111  -0.574  1.00  0.00     0.013 C 
HETATM    8  C   UNL     1       3.478  -5.868  -0.001  1.00  0.00     0.001 C 
HETATM    9  C   UNL     1       4.103  -6.822  -1.015  1.00  0.00     0.000 C 
HETATM   10  C   UNL     1       4.376  -6.170  -2.367  1.00  0.00     0.001 C 
HETATM   11  C   UNL     1       3.151  -5.425  -2.903  1.00  0.00     0.013 C 
BRANCH   6  12
HETATM   12  C   UNL     1       1.282  -3.773  -2.455  1.00  0.00     0.175 C 
BRANCH  12  13
HETATM   13  O   UNL     1       1.483  -3.110  -3.697  1.00  0.00    -0.400 OA
HETATM   14  H   UNL     1       1.895  -2.243  -3.508  1.00  0.00     0.209 HD
ENDBRANCH  12  13
ENDBRANCH   6  12
ENDBRANCH   5   6
ENDBRANCH   3   5
BRANCH   1  15
HETATM   15  C   UNL     1       2.627   0.039  -0.041  1.00  0.00     0.177 C 
HETATM   16  C   UNL     1       3.765   0.118   0.981  1.00  0.00     0.043 C 
BRANCH  15  17
HETATM   17  N   UNL     1       1.321  -0.289   0.517  1.00  0.00    -0.338 N 
HETATM   18  C   UNL     1       1.004  -0.608   1.807  1.00  0.00     0.109 A 
HETATM   19  C   UNL     1      -0.355  -0.826   1.804  1.00  0.00     0.106 A 
HETATM   20  N   UNL     1      -0.867  -0.658   0.545  1.00  0.00    -0.361 N 
HETATM   21  C   UNL     1       0.157  -0.317  -0.206  1.00  0.00     0.183 A 
ATOM     22  HN  UNL     1      -1.837  -0.773   0.252  1.00  0.00     0.166 HD
ENDBRANCH  15  17
ENDBRANCH   1  15
TORSDOF 6
