REMARK  2 active torsions:
REMARK  status: ('A' for Active; 'I' for Inactive)
REMARK    1  A    between atoms: N_4  and  C_5 
REMARK    2  A    between atoms: C_5  and  C_6 
ROOT
HETATM    1 CL   UNL     1       4.879  -0.712   3.547  1.00  0.00    -0.077 Cl
HETATM    2  C   UNL     1       4.545  -0.171   1.955  1.00  0.00     0.117 A 
HETATM    3  C   UNL     1       5.089   0.943   1.453  1.00  0.00     0.125 A 
HETATM    4  N   UNL     1       4.795   1.404   0.183  1.00  0.00    -0.305 N 
HETATM    5  C   UNL     1       3.920   0.721  -0.658  1.00  0.00     0.329 A 
HETATM    6  O   UNL     1       3.590   1.116  -1.772  1.00  0.00    -0.246 OA
HETATM    7  N   UNL     1       3.408  -0.446  -0.154  1.00  0.00    -0.274 N 
HETATM    8  C   UNL     1       3.601  -0.942   1.109  1.00  0.00     0.272 A 
HETATM    9  O   UNL     1       3.018  -1.950   1.498  1.00  0.00    -0.266 OA
HETATM   10  H   UNL     1       2.759  -0.945  -0.744  1.00  0.00     0.173 HD
ENDROOT
BRANCH   4  11
HETATM   11  C   UNL     1       5.360   2.678  -0.281  1.00  0.00     0.166 C 
BRANCH  11  12
HETATM   12  C   UNL     1       4.419   3.871  -0.061  1.00  0.00     0.151 C 
HETATM   13  C   UNL     1       4.171   4.162   1.429  1.00  0.00     0.075 C 
HETATM   14  C   UNL     1       4.060   5.634   1.369  1.00  0.00    -0.022 A 
HETATM   15  C   UNL     1       3.619   6.523   2.332  1.00  0.00     0.010 A 
HETATM   16  C   UNL     1       4.550   6.080   0.152  1.00  0.00     0.075 A 
HETATM   17  C   UNL     1       3.649   7.887   2.030  1.00  0.00     0.001 A 
HETATM   18  C   UNL     1       4.130   8.333   0.787  1.00  0.00     0.003 A 
HETATM   19  C   UNL     1       4.598   7.422  -0.164  1.00  0.00     0.037 A 
HETATM   20  O   UNL     1       4.987   5.068  -0.666  1.00  0.00    -0.343 OA
ENDBRANCH  11  12
ENDBRANCH   4  11
TORSDOF 2
