REMARK  6 active torsions:
REMARK  status: ('A' for Active; 'I' for Inactive)
REMARK    1  A    between atoms: C_2  and  N_7 
REMARK    2  A    between atoms: N_3  and  C_17 
REMARK    3  A    between atoms: C_9  and  C_16 
REMARK    4  A    between atoms: C_17  and  C_19 
REMARK    5  A    between atoms: C_19  and  C_26 
REMARK    6  A    between atoms: C_26  and  O_27 
ROOT
HETATM    1  C   UNL     1       0.400  -0.683   0.097  1.00  0.00     0.122 A 
HETATM    2  C   UNL     1      -0.776  -1.489   0.086  1.00  0.00     0.135 A 
HETATM    3  N   UNL     1       1.518   1.219   0.072  1.00  0.00    -0.326 N 
HETATM    4  C   UNL     1       0.247   0.696   0.058  1.00  0.00     0.140 A 
HETATM    5  N   UNL     1       1.752  -0.991   0.151  1.00  0.00    -0.346 N 
ATOM      6  HN  UNL     1       2.170  -1.921   0.186  1.00  0.00     0.167 HD
HETATM    7  C   UNL     1       2.384   0.162   0.148  1.00  0.00     0.185 A 
HETATM    8  N   UNL     1      -1.959  -0.793  -0.003  1.00  0.00    -0.337 N 
ATOM      9  HN  UNL     1      -2.842  -1.302  -0.039  1.00  0.00     0.168 HD
HETATM   10  N   UNL     1      -0.904   1.389  -0.010  1.00  0.00    -0.336 N 
ATOM     11  HN  UNL     1      -0.968   2.407  -0.033  1.00  0.00     0.168 HD
HETATM   12  C   UNL     1      -1.964   0.552  -0.043  1.00  0.00     0.183 A 
ENDROOT
BRANCH   2  13
HETATM   13  N   UNL     1      -0.837  -2.902   0.146  1.00  0.00    -0.361 N 
HETATM   14  C   UNL     1       0.302  -3.592   0.778  1.00  0.00     0.082 C 
HETATM   15  C   UNL     1       0.212  -5.107   0.519  1.00  0.00     0.038 C 
HETATM   16  C   UNL     1       0.423  -3.255   2.266  1.00  0.00     0.032 C 
HETATM   17  C   UNL     1      -1.152  -5.751   0.780  1.00  0.00     0.097 C 
HETATM   18  C   UNL     1      -2.244  -4.943   0.074  1.00  0.00     0.033 C 
HETATM   19  C   UNL     1      -2.182  -3.446   0.398  1.00  0.00     0.125 C 
BRANCH  17  20
HETATM   20  C   UNL     1      -1.465  -6.006   2.252  1.00  0.00     0.391 C 
HETATM   21  F   UNL     1      -0.375  -5.896   3.039  1.00  0.00    -0.171 F 
HETATM   22  F   UNL     1      -2.411  -5.179   2.741  1.00  0.00    -0.171 F 
HETATM   23  F   UNL     1      -1.931  -7.270   2.409  1.00  0.00    -0.171 F 
ENDBRANCH  17  20
ENDBRANCH   2  13
BRANCH   3  24
HETATM   24  C   UNL     1       1.888   2.638   0.024  1.00  0.00     0.143 C 
BRANCH  24  25
HETATM   25  C   UNL     1       2.100   3.221  -1.415  1.00  0.00     0.001 C 
HETATM   26  C   UNL     1       3.371   2.611  -2.060  1.00  0.00     0.039 C 
HETATM   27  C   UNL     1       4.644   3.209  -1.462  1.00  0.00     0.168 C 
HETATM   28  O   UNL     1       4.684   4.602  -1.738  1.00  0.00    -0.391 OA
HETATM   29  C   UNL     1       3.649   5.313  -1.069  1.00  0.00     0.168 C 
HETATM   30  C   UNL     1       2.267   4.775  -1.419  1.00  0.00     0.039 C 
BRANCH  25  31
HETATM   31  C   UNL     1       0.842   2.935  -2.274  1.00  0.00     0.175 C 
BRANCH  31  32
HETATM   32  O   UNL     1      -0.304   3.547  -1.684  1.00  0.00    -0.400 OA
HETATM   33  H   UNL     1      -0.661   2.923  -1.017  1.00  0.00     0.209 HD
ENDBRANCH  31  32
ENDBRANCH  25  31
ENDBRANCH  24  25
ENDBRANCH   3  24
TORSDOF 6
