REMARK  6 active torsions:
REMARK  status: ('A' for Active; 'I' for Inactive)
REMARK    1  A    between atoms: C_2  and  C_3 
REMARK       I    between atoms: N_5  and  C_9 
REMARK    2  A    between atoms: C_9  and  C_11 
REMARK    3  A    between atoms: C_11  and  N_12 
REMARK    4  A    between atoms: N_12  and  C_13 
REMARK    5  A    between atoms: C_13  and  C_15 
REMARK    6  A    between atoms: C_15  and  N_16 
ROOT
HETATM    1  N   UNL     1       5.667   1.311  -3.371  1.00  0.00     0.098 N 
HETATM    2  H   UNL     1       4.831   1.508  -3.928  1.00  0.00     0.317 HD
ENDROOT
BRANCH   1   3
HETATM    3  C   UNL     1       5.234   0.608  -2.150  1.00  0.00     0.372 C 
BRANCH   3   4
HETATM    4  C   UNL     1       4.611  -0.748  -2.512  1.00  0.00     0.248 C 
HETATM    5  N   UNL     1       5.459  -1.843  -2.616  1.00  0.00    -0.346 N 
HETATM    6  C   UNL     1       4.900  -3.154  -2.933  1.00  0.00     0.157 C 
HETATM    7  C   UNL     1       6.881  -1.744  -2.949  1.00  0.00     0.152 C 
HETATM    8  C   UNL     1       5.150  -3.520  -4.411  1.00  0.00     0.139 C 
HETATM    9  O   UNL     1       6.546  -3.381  -4.751  1.00  0.00    -0.383 OA
HETATM   10  C   UNL     1       7.089  -2.087  -4.430  1.00  0.00     0.188 C 
HETATM   11  O   UNL     1       3.392  -0.839  -2.677  1.00  0.00    -0.271 OA
BRANCH   8  12
HETATM   12  C   UNL     1       4.234  -2.740  -5.367  1.00  0.00     0.029 C 
HETATM   13  C   UNL     1       4.460  -3.109  -6.826  1.00  0.00     0.007 C 
ENDBRANCH   8  12
ENDBRANCH   3   4
ENDBRANCH   1   3
BRANCH   1  14
HETATM   14  C   UNL     1       6.405   2.566  -3.123  1.00  0.00     0.236 C 
HETATM   15  C   UNL     1       5.552   3.600  -2.377  1.00  0.00     0.044 C 
BRANCH  14  16
HETATM   16  C   UNL     1       7.775   2.394  -2.422  1.00  0.00     0.183 C 
BRANCH  16  17
HETATM   17  N   UNL     1       8.734   1.545  -3.108  1.00  0.00    -0.301 N 
HETATM   18  C   UNL     1       8.952   1.434  -4.452  1.00  0.00     0.118 A 
HETATM   19  C   UNL     1       9.990   0.541  -4.614  1.00  0.00    -0.028 A 
HETATM   20  C   UNL     1      10.598   0.067  -5.876  1.00  0.00     0.051 C 
HETATM   21  C   UNL     1      10.344   0.188  -3.294  1.00  0.00     0.115 A 
HETATM   22  N   UNL     1       9.587   0.795  -2.378  1.00  0.00    -0.310 N 
ATOM     23  HN  UNL     1       9.640   0.712  -1.363  1.00  0.00     0.186 HD
ENDBRANCH  16  17
ENDBRANCH  14  16
ENDBRANCH   1  14
TORSDOF 6
