REMARK  4 active torsions:
REMARK  status: ('A' for Active; 'I' for Inactive)
REMARK    1  A    between atoms: C_6  and  N_7 
REMARK       I    between atoms: N_7  and  C_8 
REMARK       I    between atoms: C_8  and  N_10 
REMARK    2  A    between atoms: N_10  and  C_11 
REMARK    3  A    between atoms: N_15  and  C_16 
REMARK    4  A    between atoms: C_16  and  C_17 
ROOT
HETATM    1  N   UNL     1       5.335  -2.569  -0.956  1.00  0.00    -0.295 N 
HETATM    2  C   UNL     1       4.453  -3.604  -0.852  1.00  0.00     0.322 C 
HETATM    3  O   UNL     1       3.252  -3.396  -1.009  1.00  0.00    -0.247 OA
HETATM    4  N   UNL     1       4.974  -4.836  -0.614  1.00  0.00    -0.330 N 
HETATM    5  H   UNL     1       4.907  -1.709  -1.264  1.00  0.00     0.172 HD
HETATM    6  H   UNL     1       5.963  -4.858  -0.379  1.00  0.00     0.165 HD
ENDROOT
BRANCH   4   7
HETATM    7  C   UNL     1       4.165  -6.033  -0.445  1.00  0.00     0.178 C 
HETATM    8  C   UNL     1       3.767  -6.181   1.027  1.00  0.00     0.037 C 
HETATM    9  C   UNL     1       4.603  -7.204   1.779  1.00  0.00     0.022 C 
HETATM   10  C   UNL     1       4.595  -8.500   0.998  1.00  0.00     0.126 C 
HETATM   11  N   UNL     1       5.245  -8.311  -0.287  1.00  0.00    -0.342 N 
HETATM   12  C   UNL     1       4.905  -7.237  -1.100  1.00  0.00     0.242 C 
HETATM   13  O   UNL     1       5.252  -7.210  -2.282  1.00  0.00    -0.271 OA
BRANCH  11  14
HETATM   14  C   UNL     1       5.991  -9.449  -0.861  1.00  0.00     0.243 C 
BRANCH  14  15
HETATM   15  C   UNL     1       5.171 -10.686  -1.254  1.00  0.00     0.403 C 
HETATM   16  F   UNL     1       3.857 -10.559  -0.965  1.00  0.00    -0.169 F 
HETATM   17  F   UNL     1       5.280 -10.967  -2.570  1.00  0.00    -0.169 F 
HETATM   18  F   UNL     1       5.618 -11.773  -0.574  1.00  0.00    -0.169 F 
ENDBRANCH  14  15
ENDBRANCH  11  14
ENDBRANCH   4   7
BRANCH   1  19
HETATM   19  C   UNL     1       6.707  -2.580  -0.700  1.00  0.00     0.109 A 
HETATM   20  C   UNL     1       7.462  -1.478  -1.073  1.00  0.00     0.049 A 
HETATM   21  C   UNL     1       8.836  -1.507  -0.848  1.00  0.00     0.006 A 
HETATM   22  C   UNL     1       9.408  -2.617  -0.231  1.00  0.00     0.025 A 
HETATM   23  C   UNL     1       8.581  -3.665   0.146  1.00  0.00     0.007 A 
HETATM   24  C   UNL     1       9.113  -4.896   0.809  1.00  0.00     0.068 C 
HETATM   25  N   UNL     1       7.252  -3.660  -0.098  1.00  0.00    -0.346 N 
ATOM     26  HN  UNL     1       6.672  -4.456   0.167  1.00  0.00     0.167 HD
ENDBRANCH   1  19
TORSDOF 4
