REMARK  4 active torsions:
REMARK  status: ('A' for Active; 'I' for Inactive)
REMARK    1  A    between atoms: O_2  and  C_3 
REMARK    2  A    between atoms: C_3  and  C_4 
REMARK    3  A    between atoms: C_4  and  N_5 
REMARK       I    between atoms: N_5  and  C_6 
REMARK       I    between atoms: C_6  and  N_8 
REMARK    4  A    between atoms: N_8  and  C_9 
ROOT
HETATM    1  N   UNL     1       5.084   0.667   2.383  1.00  0.00    -0.340 N 
HETATM    2  C   UNL     1       6.278   0.236   2.872  1.00  0.00     0.321 C 
HETATM    3  O   UNL     1       6.799  -0.824   2.537  1.00  0.00    -0.247 OA
HETATM    4  N   UNL     1       6.858   1.013   3.834  1.00  0.00    -0.295 N 
HETATM    5  H   UNL     1       4.857   1.641   2.588  1.00  0.00     0.164 HD
HETATM    6  H   UNL     1       7.663   0.584   4.265  1.00  0.00     0.172 HD
ENDROOT
BRANCH   1   7
HETATM    7  C   UNL     1       4.325  -0.026   1.376  1.00  0.00     0.162 C 
BRANCH   7   8
HETATM    8  C   UNL     1       3.144   0.871   0.969  1.00  0.00     0.076 C 
HETATM    9  C   UNL     1       2.106   0.131   0.076  1.00  0.00     0.040 C 
HETATM   10  C   UNL     1       1.255  -0.135   1.329  1.00  0.00     0.006 C 
HETATM   11  C   UNL     1       2.008   1.000   2.034  1.00  0.00     0.040 C 
BRANCH   8  12
HETATM   12  O   UNL     1       3.581   2.175   0.485  1.00  0.00    -0.383 OA
HETATM   13  C   UNL     1       4.414   2.216  -0.664  1.00  0.00     0.202 C 
ENDBRANCH   8  12
ENDBRANCH   7   8
ENDBRANCH   1   7
BRANCH   4  14
HETATM   14  C   UNL     1       6.405   2.245   4.322  1.00  0.00     0.108 A 
HETATM   15  C   UNL     1       6.945   2.732   5.504  1.00  0.00     0.049 A 
HETATM   16  C   UNL     1       6.389   3.886   6.062  1.00  0.00     0.012 A 
HETATM   17  C   UNL     1       5.337   4.533   5.415  1.00  0.00    -0.046 A 
HETATM   18  C   UNL     1       4.634   5.715   5.994  1.00  0.00     0.049 C 
HETATM   19  C   UNL     1       4.926   4.019   4.196  1.00  0.00     0.096 A 
HETATM   20  N   UNL     1       5.430   2.894   3.653  1.00  0.00    -0.352 N 
ATOM     21  HN  UNL     1       5.084   2.542   2.760  1.00  0.00     0.166 HD
ENDBRANCH   4  14
TORSDOF 4
