REMARK  6 active torsions:
REMARK  status: ('A' for Active; 'I' for Inactive)
REMARK    1  A    between atoms: C_6  and  N_7 
REMARK    2  A    between atoms: N_7  and  C_8 
REMARK    3  A    between atoms: C_8  and  C_9 
REMARK    4  A    between atoms: C_9  and  O_10 
REMARK    5  A    between atoms: O_10  and  C_11 
REMARK    6  A    between atoms: C_11  and  C_12 
ROOT
HETATM    1  N   UNL     1       5.308  -2.372   0.064  1.00  0.00    -0.277 NA
HETATM    2  H   UNL     1       5.981  -2.177  -0.672  1.00  0.00     0.129 HD
ENDROOT
BRANCH   1   3
HETATM    3  C   UNL     1       4.515  -1.221   0.237  1.00  0.00     0.080 A 
HETATM    4  C   UNL     1       5.176  -0.015   0.463  1.00  0.00     0.042 A 
HETATM    5  C   UNL     1       4.439   1.149   0.649  1.00  0.00     0.005 A 
HETATM    6  C   UNL     1       3.054   1.083   0.613  1.00  0.00     0.024 A 
HETATM    7  C   UNL     1       2.456  -0.150   0.393  1.00  0.00     0.006 A 
HETATM    8  C   UNL     1       0.961  -0.280   0.381  1.00  0.00     0.068 C 
HETATM    9  N   UNL     1       3.169  -1.292   0.215  1.00  0.00    -0.351 N 
ATOM     10  HN  UNL     1       2.696  -2.184   0.068  1.00  0.00     0.167 HD
ENDBRANCH   1   3
BRANCH   1  11
HETATM   11  C   UNL     1       4.556  -3.599  -0.196  1.00  0.00     0.120 C 
BRANCH  11  12
HETATM   12  C   UNL     1       5.522  -4.781  -0.355  1.00  0.00     0.182 C 
BRANCH  12  13
HETATM   13  O   UNL     1       4.779  -5.966  -0.640  1.00  0.00    -0.387 OA
BRANCH  13  14
HETATM   14  C   UNL     1       5.623  -7.109  -0.781  1.00  0.00     0.199 C 
BRANCH  14  15
HETATM   15  C   UNL     1       4.752  -8.335  -1.035  1.00  0.00     0.145 C 
HETATM   16  C   UNL     1       3.793  -8.642   0.106  1.00  0.00     0.036 C 
HETATM   17  C   UNL     1       3.664 -10.151   0.091  1.00  0.00     0.029 C 
HETATM   18  C   UNL     1       4.636 -10.613  -0.977  1.00  0.00     0.168 C 
HETATM   19  O   UNL     1       5.540  -9.523  -1.191  1.00  0.00    -0.384 OA
ENDBRANCH  14  15
ENDBRANCH  13  14
ENDBRANCH  12  13
ENDBRANCH  11  12
ENDBRANCH   1  11
TORSDOF 6
