REMARK  4 active torsions:
REMARK  status: ('A' for Active; 'I' for Inactive)
REMARK    1  A    between atoms: C_7  and  N_8 
REMARK       I    between atoms: N_8  and  C_9 
REMARK       I    between atoms: C_9  and  N_11 
REMARK    2  A    between atoms: N_11  and  C_12 
REMARK    3  A    between atoms: N_15  and  C_16 
REMARK    4  A    between atoms: C_16  and  C_17 
ROOT
HETATM    1  N   UNL     1       1.986   1.363   2.081  1.00  0.00    -0.337 N 
HETATM    2  C   UNL     1       0.871   2.172   1.984  1.00  0.00     0.322 C 
HETATM    3  O   UNL     1       0.478   2.621   0.913  1.00  0.00    -0.247 OA
HETATM    4  N   UNL     1       0.322   2.453   3.212  1.00  0.00    -0.294 N 
HETATM    5  H   UNL     1       1.977   0.690   2.835  1.00  0.00     0.164 HD
HETATM    6  H   UNL     1       0.991   2.676   3.931  1.00  0.00     0.172 HD
ENDROOT
BRANCH   4   7
HETATM    7  C   UNL     1      -0.813   3.234   3.269  1.00  0.00     0.125 C 
HETATM    8  C   UNL     1      -1.987   3.092   2.494  1.00  0.00     0.069 C 
HETATM    9  C   UNL     1      -2.785   4.149   2.854  1.00  0.00     0.114 C 
HETATM   10  N   UNL     1      -2.053   4.869   3.753  1.00  0.00    -0.296 N 
HETATM   11  N   UNL     1      -0.904   4.262   4.119  1.00  0.00    -0.283 N 
ATOM     12  HN  UNL     1      -0.260   4.525   4.865  1.00  0.00     0.188 HD
BRANCH  10  13
HETATM   13  C   UNL     1      -2.384   6.177   4.270  1.00  0.00     0.219 C 
BRANCH  13  14
HETATM   14  C   UNL     1      -1.828   7.269   3.389  1.00  0.00     0.372 C 
HETATM   15  F   UNL     1      -2.411   7.230   2.162  1.00  0.00    -0.213 F 
HETATM   16  F   UNL     1      -2.164   8.477   3.917  1.00  0.00    -0.213 F 
ENDBRANCH  13  14
ENDBRANCH  10  13
ENDBRANCH   4   7
BRANCH   1  17
HETATM   17  C   UNL     1       2.803   1.093   0.906  1.00  0.00     0.093 C 
HETATM   18  C   UNL     1       2.341  -0.097   0.020  1.00  0.00    -0.027 C 
HETATM   19  C   UNL     1       0.823  -0.273  -0.115  1.00  0.00     0.017 C 
HETATM   20  C   UNL     1       2.921   0.062  -1.403  1.00  0.00     0.017 C 
HETATM   21  C   UNL     1       2.966  -1.323   0.712  1.00  0.00     0.011 C 
HETATM   22  C   UNL     1       4.187  -0.822   1.484  1.00  0.00     0.003 C 
HETATM   23  C   UNL     1       4.219   0.694   1.328  1.00  0.00     0.026 C 
ENDBRANCH   1  17
TORSDOF 4
