REMARK  3 active torsions:
REMARK  status: ('A' for Active; 'I' for Inactive)
REMARK    1  A    between atoms: N_6  and  C_7 
REMARK    2  A    between atoms: C_7  and  C_8 
REMARK    3  A    between atoms: C_11  and  N_12 
ROOT
HETATM    1  C   UNL     1       0.982   0.251   0.083  1.00  0.00     0.068 C 
HETATM    2  C   UNL     1       2.476   0.110   0.069  1.00  0.00     0.013 A 
HETATM    3  C   UNL     1       3.066  -1.089   0.102  1.00  0.00     0.099 A 
HETATM    4  C   UNL     1       4.533  -1.156   0.044  1.00  0.00     0.251 A 
HETATM    5  O   UNL     1       5.070  -2.260  -0.017  1.00  0.00    -0.268 OA
HETATM    6  N   UNL     1       5.197   0.054   0.025  1.00  0.00    -0.288 N 
HETATM    7  C   UNL     1       4.479   1.233  -0.024  1.00  0.00     0.160 A 
HETATM    8  N   UNL     1       3.178   1.286   0.005  1.00  0.00    -0.337 N 
ATOM      9  HN  UNL     1       2.692   2.183  -0.019  1.00  0.00     0.168 HD
ENDROOT
BRANCH   6  10
HETATM   10  C   UNL     1       6.641   0.029  -0.196  1.00  0.00     0.169 C 
BRANCH  10  11
HETATM   11  C   UNL     1       7.498   0.488   0.948  1.00  0.00     0.163 A 
HETATM   12  C   UNL     1       7.418  -0.125   2.321  1.00  0.00     0.201 A 
HETATM   13  O   UNL     1       6.857   1.167   2.033  1.00  0.00    -0.380 OA
ENDBRANCH  10  11
ENDBRANCH   6  10
BRANCH   7  14
HETATM   14  N   UNL     1       5.132   2.427  -0.093  1.00  0.00    -0.274 NA
HETATM   15  H   UNL     1       5.923   2.487   0.540  1.00  0.00     0.127 HD
HETATM   16  H   UNL     1       4.481   3.187   0.076  1.00  0.00     0.127 HD
ENDBRANCH   7  14
TORSDOF 3
