REMARK  4 active torsions:
REMARK  status: ('A' for Active; 'I' for Inactive)
REMARK    1  A    between atoms: C_2  and  N_3 
REMARK    2  A    between atoms: C_2  and  C_15 
REMARK       I    between atoms: N_3  and  C_4 
REMARK       I    between atoms: C_4  and  N_6 
REMARK    3  A    between atoms: N_6  and  C_7 
REMARK    4  A    between atoms: C_15  and  N_17 
ROOT
HETATM    1  N   UNL     1       2.858  -0.765   1.255  1.00  0.00    -0.336 N 
HETATM    2  C   UNL     1       2.498  -2.098   1.339  1.00  0.00     0.322 C 
HETATM    3  O   UNL     1       1.756  -2.625   0.523  1.00  0.00    -0.247 OA
HETATM    4  N   UNL     1       3.098  -2.707   2.417  1.00  0.00    -0.295 N 
HETATM    5  H   UNL     1       3.011  -0.301   2.138  1.00  0.00     0.164 HD
HETATM    6  H   UNL     1       3.911  -2.252   2.796  1.00  0.00     0.172 HD
ENDROOT
BRANCH   1   7
HETATM    7  C   UNL     1       2.367   0.068   0.147  1.00  0.00     0.115 C 
HETATM    8  C   UNL     1       0.840   0.224   0.250  1.00  0.00     0.034 C 
BRANCH   7   9
HETATM    9  C   UNL     1       2.855  -0.451  -1.267  1.00  0.00     0.241 C 
HETATM   10  C   UNL     1       2.252   0.379  -2.409  1.00  0.00     0.045 C 
BRANCH   9  11
HETATM   11  N   UNL     1       4.325  -0.679  -1.347  1.00  0.00     0.098 N 
HETATM   12  C   UNL     1       5.235   0.431  -1.043  1.00  0.00     0.299 C 
HETATM   13  C   UNL     1       5.585   1.331  -2.238  1.00  0.00     0.198 C 
HETATM   14  O   UNL     1       6.060   0.575  -3.359  1.00  0.00    -0.388 OA
HETATM   15  C   UNL     1       5.113  -0.430  -3.741  1.00  0.00     0.198 C 
HETATM   16  C   UNL     1       4.784  -1.369  -2.567  1.00  0.00     0.299 C 
ENDBRANCH   9  11
ENDBRANCH   7   9
ENDBRANCH   1   7
BRANCH   4  17
HETATM   17  C   UNL     1       2.871  -4.048   2.758  1.00  0.00     0.109 A 
HETATM   18  C   UNL     1       3.771  -4.671   3.611  1.00  0.00     0.049 A 
HETATM   19  C   UNL     1       3.591  -6.020   3.902  1.00  0.00     0.006 A 
HETATM   20  C   UNL     1       2.515  -6.705   3.343  1.00  0.00     0.025 A 
HETATM   21  C   UNL     1       1.643  -6.007   2.524  1.00  0.00     0.007 A 
HETATM   22  C   UNL     1       0.470  -6.672   1.866  1.00  0.00     0.068 C 
HETATM   23  N   UNL     1       1.808  -4.698   2.251  1.00  0.00    -0.346 N 
ATOM     24  HN  UNL     1       1.134  -4.205   1.666  1.00  0.00     0.167 HD
ENDBRANCH   4  17
TORSDOF 4
