REMARK  4 active torsions:
REMARK  status: ('A' for Active; 'I' for Inactive)
REMARK       I    between atoms: C_2  and  N_3 
REMARK       I    between atoms: C_2  and  N_13 
REMARK    1  A    between atoms: N_3  and  C_4 
REMARK    2  A    between atoms: C_4  and  C_5 
REMARK    3  A    between atoms: C_5  and  C_6 
REMARK    4  A    between atoms: N_16  and  C_19 
ROOT
HETATM    1  O   UNL     1       1.298   0.033   0.790  1.00  0.00    -0.247 OA
HETATM    2  C   UNL     1       2.231   0.044  -0.011  1.00  0.00     0.318 C 
HETATM    3  N   UNL     1       2.593  -1.075  -0.721  1.00  0.00    -0.343 N 
HETATM    4  N   UNL     1       2.958   1.191  -0.294  1.00  0.00    -0.331 N 
HETATM    5  C   UNL     1       2.633   2.366   0.517  1.00  0.00     0.158 C 
HETATM    6  C   UNL     1       3.222   3.680  -0.013  1.00  0.00     0.293 C 
HETATM    7  N   UNL     1       4.672   3.627  -0.308  1.00  0.00     0.096 N 
HETATM    8  C   UNL     1       4.885   2.542  -1.274  1.00  0.00     0.293 C 
HETATM    9  C   UNL     1       4.266   1.172  -0.955  1.00  0.00     0.158 C 
HETATM   10  H   UNL     1       3.561  -1.139  -0.983  1.00  0.00     0.164 HD
ENDROOT
BRANCH   3  11
HETATM   11  C   UNL     1       1.918  -2.346  -0.506  1.00  0.00     0.129 C 
BRANCH  11  12
HETATM   12  C   UNL     1       0.440  -2.323  -0.901  1.00  0.00     0.058 C 
BRANCH  12  13
HETATM   13  C   UNL     1      -0.227  -3.658  -0.692  1.00  0.00    -0.054 A 
HETATM   14  C   UNL     1      -0.767  -3.992   0.553  1.00  0.00     0.024 A 
HETATM   15  C   UNL     1      -1.385  -5.224   0.700  1.00  0.00     0.088 A 
HETATM   16  N   UNL     1      -1.491  -6.134  -0.291  1.00  0.00    -0.375 N 
HETATM   17  C   UNL     1      -0.958  -5.793  -1.484  1.00  0.00     0.088 A 
ATOM     18  HN  UNL     1      -1.950  -7.033  -0.146  1.00  0.00     0.164 HD
HETATM   19  C   UNL     1      -0.320  -4.587  -1.730  1.00  0.00     0.024 A 
ENDBRANCH  12  13
ENDBRANCH  11  12
ENDBRANCH   3  11
BRANCH   7  20
HETATM   20  C   UNL     1       5.490   3.598   0.911  1.00  0.00     0.227 C 
HETATM   21  C   UNL     1       5.430   4.977   1.633  1.00  0.00     0.041 C 
HETATM   22  C   UNL     1       6.902   5.385   1.755  1.00  0.00    -0.012 C 
HETATM   23  C   UNL     1       7.445   5.708   0.349  1.00  0.00     0.005 C 
HETATM   24  C   UNL     1       7.551   4.042   2.070  1.00  0.00     0.011 C 
HETATM   25  C   UNL     1       7.666   4.320  -0.262  1.00  0.00     0.007 C 
HETATM   26  C   UNL     1       7.033   3.386   0.780  1.00  0.00     0.019 C 
ENDBRANCH   7  20
TORSDOF 4
