REMARK  5 active torsions:
REMARK  status: ('A' for Active; 'I' for Inactive)
REMARK    1  A    between atoms: C_2  and  C_3 
REMARK    2  A    between atoms: C_2  and  N_10 
REMARK    3  A    between atoms: C_3  and  N_4 
REMARK    4  A    between atoms: N_10  and  S_11 
REMARK    5  A    between atoms: S_11  and  N_14 
ROOT
HETATM    1  N   UNL     1       3.289   1.230   0.695  1.00  0.00    -0.201 NA
HETATM    2  H   UNL     1       2.961   1.329   1.658  1.00  0.00     0.141 HD
ENDROOT
BRANCH   1   3
HETATM    3  C   UNL     1       2.607   0.047   0.049  1.00  0.00     0.088 C 
HETATM    4  C   UNL     1       1.094   0.184   0.255  1.00  0.00     0.029 C 
BRANCH   3   5
HETATM    5  C   UNL     1       2.982  -0.195  -1.427  1.00  0.00     0.168 C 
BRANCH   5   6
HETATM    6  N   UNL     1       2.702   0.908  -2.323  1.00  0.00    -0.302 N 
HETATM    7  C   UNL     1       3.607   1.645  -3.032  1.00  0.00     0.111 C 
HETATM    8  C   UNL     1       2.886   2.641  -3.649  1.00  0.00     0.037 C 
HETATM    9  C   UNL     1       1.551   2.366  -3.315  1.00  0.00     0.108 C 
HETATM   10  N   UNL     1       1.428   1.264  -2.574  1.00  0.00    -0.310 N 
ATOM     11  HN  UNL     1       0.572   0.801  -2.270  1.00  0.00     0.186 HD
ENDBRANCH   5   6
ENDBRANCH   3   5
ENDBRANCH   1   3
BRANCH   1  12
HETATM   12  S   UNL     1       4.963   1.139   0.769  1.00  0.00     0.281 S 
HETATM   13  O   UNL     1       5.268   0.003   1.603  1.00  0.00    -0.194 OA
HETATM   14  O   UNL     1       5.512   1.266  -0.559  1.00  0.00    -0.194 OA
BRANCH  12  15
HETATM   15  N   UNL     1       5.343   2.565   1.629  1.00  0.00    -0.198 NA
HETATM   16  C   UNL     1       4.950   3.821   0.917  1.00  0.00     0.108 C 
HETATM   17  C   UNL     1       4.864   4.995   1.893  1.00  0.00     0.015 C 
HETATM   18  C   UNL     1       6.162   5.788   2.042  1.00  0.00     0.001 C 
HETATM   19  C   UNL     1       7.438   4.960   2.120  1.00  0.00     0.001 C 
HETATM   20  C   UNL     1       7.274   3.657   2.892  1.00  0.00     0.015 C 
HETATM   21  C   UNL     1       6.795   2.513   2.008  1.00  0.00     0.108 C 
ENDBRANCH  12  15
ENDBRANCH   1  12
TORSDOF 5
