REMARK  5 active torsions:
REMARK  status: ('A' for Active; 'I' for Inactive)
REMARK    1  A    between atoms: C_5  and  N_9 
REMARK    2  A    between atoms: N_9  and  C_10 
REMARK    3  A    between atoms: C_10  and  C_11 
REMARK    4  A    between atoms: C_11  and  O_12 
REMARK    5  A    between atoms: C_11  and  C_13 
ROOT
HETATM    1  C   UNL     1       5.248   0.235  -3.743  1.00  0.00     0.306 C 
ENDROOT
BRANCH   1   2
HETATM    2  N   UNL     1       4.682  -0.694  -2.761  1.00  0.00     0.090 N 
HETATM    3  H   UNL     1       5.040  -1.636  -2.915  1.00  0.00     0.316 HD
BRANCH   2   4
HETATM    4  C   UNL     1       3.208  -0.700  -2.757  1.00  0.00     0.221 C 
HETATM    5  C   UNL     1       2.599   0.661  -2.373  1.00  0.00     0.036 C 
HETATM    6  C   UNL     1       2.954   1.061  -0.939  1.00  0.00     0.007 C 
HETATM    7  C   UNL     1       2.496   0.009   0.087  1.00  0.00    -0.015 C 
HETATM    8  C   UNL     1       0.972   0.063   0.256  1.00  0.00     0.010 C 
HETATM    9  C   UNL     1       3.039  -1.392  -0.296  1.00  0.00    -0.013 C 
HETATM   10  C   UNL     1       2.717  -1.763  -1.757  1.00  0.00     0.040 C 
HETATM   11  C   UNL     1       2.568  -2.496   0.651  1.00  0.00     0.010 C 
ENDBRANCH   2   4
ENDBRANCH   1   2
BRANCH   1  12
HETATM   12  C   UNL     1       6.796   0.214  -3.778  1.00  0.00     0.179 C 
BRANCH  12  13
HETATM   13  O   UNL     1       7.304  -1.055  -4.201  1.00  0.00    -0.389 OA
HETATM   14  H   UNL     1       6.583  -1.529  -4.643  1.00  0.00     0.210 HD
ENDBRANCH  12  13
BRANCH  12  15
HETATM   15  C   UNL     1       7.270   1.293  -4.731  1.00  0.00    -0.025 A 
HETATM   16  C   UNL     1       7.497   2.591  -4.256  1.00  0.00     0.027 A 
HETATM   17  C   UNL     1       7.783   3.592  -5.173  1.00  0.00     0.088 A 
HETATM   18  N   UNL     1       7.857   3.393  -6.505  1.00  0.00    -0.375 N 
HETATM   19  C   UNL     1       7.652   2.131  -6.941  1.00  0.00     0.088 A 
ATOM     20  HN  UNL     1       8.058   4.157  -7.150  1.00  0.00     0.164 HD
HETATM   21  C   UNL     1       7.362   1.065  -6.107  1.00  0.00     0.027 A 
ENDBRANCH  12  15
ENDBRANCH   1  12
TORSDOF 5
