REMARK  4 active torsions:
REMARK  status: ('A' for Active; 'I' for Inactive)
REMARK       I    between atoms: C_2  and  N_4 
REMARK    1  A    between atoms: N_7  and  C_8 
REMARK    2  A    between atoms: C_8  and  C_9 
REMARK    3  A    between atoms: C_9  and  N_10 
REMARK       I    between atoms: N_10  and  C_11 
REMARK       I    between atoms: C_11  and  N_13 
REMARK    4  A    between atoms: N_13  and  C_14 
ROOT
HETATM    1  N   UNL     1       7.360   4.987  -0.401  1.00  0.00    -0.341 N 
HETATM    2  C   UNL     1       7.867   4.323   0.695  1.00  0.00     0.320 C 
HETATM    3  O   UNL     1       7.138   3.773   1.516  1.00  0.00    -0.247 OA
HETATM    4  N   UNL     1       9.242   4.316   0.705  1.00  0.00    -0.306 N 
HETATM    5  H   UNL     1       7.927   5.696  -0.841  1.00  0.00     0.164 HD
HETATM    6  H   UNL     1       9.724   4.556  -0.148  1.00  0.00     0.171 HD
ENDROOT
BRANCH   1   7
HETATM    7  C   UNL     1       5.921   5.030  -0.608  1.00  0.00     0.154 C 
BRANCH   7   8
HETATM    8  C   UNL     1       5.428   3.776  -1.359  1.00  0.00     0.292 C 
BRANCH   8   9
HETATM    9  N   UNL     1       3.966   3.716  -1.547  1.00  0.00     0.093 N 
HETATM   10  C   UNL     1       3.226   3.619  -0.269  1.00  0.00     0.292 C 
HETATM   11  C   UNL     1       3.416   2.292   0.488  1.00  0.00     0.156 C 
HETATM   12  N   UNL     1       3.110   1.141  -0.366  1.00  0.00    -0.349 N 
HETATM   13  C   UNL     1       2.598  -0.059   0.105  1.00  0.00     0.215 C 
HETATM   14  C   UNL     1       3.715   1.170  -1.700  1.00  0.00     0.156 C 
HETATM   15  C   UNL     1       2.219  -0.114   1.564  1.00  0.00     0.117 C 
HETATM   16  O   UNL     1       2.443  -1.046  -0.615  1.00  0.00    -0.274 OA
HETATM   17  C   UNL     1       3.586   2.549  -2.384  1.00  0.00     0.292 C 
ENDBRANCH   8   9
ENDBRANCH   7   8
ENDBRANCH   1   7
BRANCH   4  18
HETATM   18  C   UNL     1       9.975   3.702   1.702  1.00  0.00     0.070 A 
HETATM   19  C   UNL     1       9.596   3.253   2.987  1.00  0.00     0.138 A 
HETATM   20  N   UNL     1      10.608   2.673   3.642  1.00  0.00    -0.310 N 
HETATM   21  N   UNL     1      11.623   2.737   2.768  1.00  0.00    -0.310 N 
ATOM     22  HN  UNL     1      10.608   2.277   4.582  1.00  0.00     0.186 HD
HETATM   23  C   UNL     1      11.308   3.385   1.607  1.00  0.00     0.138 A 
HETATM   24  H   UNL     1      12.506   2.311   3.032  1.00  0.00     0.186 HD
ENDBRANCH   4  18
TORSDOF 4
