REMARK  3 active torsions:
REMARK  status: ('A' for Active; 'I' for Inactive)
REMARK       I    between atoms: N_2  and  C_3 
REMARK    1  A    between atoms: C_3  and  C_5 
REMARK    2  A    between atoms: C_5  and  C_6 
REMARK    3  A    between atoms: C_10  and  C_13 
ROOT
HETATM    1  C   UNL     1       4.870  -1.061  -3.039  1.00  0.00     0.112 A 
HETATM    2  N   UNL     1       6.153  -1.108  -2.659  1.00  0.00    -0.247 N 
ATOM      3  HN  UNL     1       6.530  -1.185  -1.714  1.00  0.00     0.196 HD
HETATM    4  O   UNL     1       6.849  -1.026  -3.862  1.00  0.00    -0.222 OA
HETATM    5  C   UNL     1       5.912  -0.946  -4.852  1.00  0.00     0.152 A 
HETATM    6  N   UNL     1       4.676  -0.955  -4.400  1.00  0.00    -0.326 N 
ATOM      7  HN  UNL     1       3.801  -0.898  -4.921  1.00  0.00     0.169 HD
ENDROOT
BRANCH   5   8
HETATM    8  C   UNL     1       6.437  -0.858  -6.253  1.00  0.00     0.063 C 
HETATM    9  C   UNL     1       5.885   0.399  -6.944  1.00  0.00     0.013 C 
HETATM   10  C   UNL     1       6.667   0.770  -8.203  1.00  0.00     0.001 C 
HETATM   11  C   UNL     1       6.180   0.102  -9.485  1.00  0.00     0.000 C 
HETATM   12  C   UNL     1       5.778  -1.366  -9.389  1.00  0.00     0.000 C 
HETATM   13  C   UNL     1       6.636  -2.211  -8.453  1.00  0.00     0.001 C 
HETATM   14  C   UNL     1       6.153  -2.169  -7.001  1.00  0.00     0.013 C 
ENDBRANCH   5   8
BRANCH   1  15
HETATM   15  C   UNL     1       3.750  -1.161  -2.078  1.00  0.00     0.181 C 
BRANCH  15  16
HETATM   16  C   UNL     1       3.253   0.202  -1.653  1.00  0.00     0.224 C 
HETATM   17  N   UNL     1       2.712   0.966  -2.668  1.00  0.00    -0.365 N 
HETATM   18  C   UNL     1       2.232   2.301  -2.407  1.00  0.00     0.149 C 
HETATM   19  H   UNL     1       2.889   0.691  -3.630  1.00  0.00     0.161 HD
HETATM   20  O   UNL     1       3.260   0.566  -0.479  1.00  0.00    -0.273 OA
ENDBRANCH  15  16
ENDBRANCH   1  15
TORSDOF 3
