REMARK  6 active torsions:
REMARK  status: ('A' for Active; 'I' for Inactive)
REMARK    1  A    between atoms: C_2  and  C_4 
REMARK    2  A    between atoms: N_8  and  C_9 
REMARK    3  A    between atoms: C_9  and  C_10 
REMARK    4  A    between atoms: C_10  and  O_12 
REMARK    5  A    between atoms: C_10  and  C_13 
REMARK    6  A    between atoms: C_17  and  C_19 
ROOT
HETATM    1  C   UNL     1       4.660   5.269  -3.356  1.00  0.00     0.098 C 
HETATM    2  C   UNL     1       6.139   4.933  -3.099  1.00  0.00     0.053 C 
ENDROOT
BRANCH   1   3
HETATM    3  C   UNL     1       3.787   5.139  -2.073  1.00  0.00     0.175 C 
BRANCH   3   4
HETATM    4  N   UNL     1       3.576   3.819  -1.459  1.00  0.00    -0.307 N 
HETATM    5  C   UNL     1       2.812   3.796  -0.305  1.00  0.00     0.250 A 
HETATM    6  C   UNL     1       2.471   2.460   0.220  1.00  0.00     0.100 A 
HETATM    7  O   UNL     1       2.382   4.796   0.267  1.00  0.00    -0.268 OA
HETATM    8  C   UNL     1       2.931   1.381  -0.426  1.00  0.00     0.018 A 
HETATM    9  N   UNL     1       3.747   1.461  -1.520  1.00  0.00    -0.355 N 
HETATM   10  C   UNL     1       4.009   2.634  -1.987  1.00  0.00     0.186 A 
ATOM     11  HN  UNL     1       4.135   0.622  -1.952  1.00  0.00     0.166 HD
BRANCH   8  12
HETATM   12  C   UNL     1       2.514  -0.029  -0.039  1.00  0.00     0.027 C 
HETATM   13  C   UNL     1       1.813  -0.703  -1.225  1.00  0.00     0.016 C 
HETATM   14  C   UNL     1       3.710  -0.867   0.423  1.00  0.00     0.016 C 
ENDBRANCH   8  12
ENDBRANCH   3   4
ENDBRANCH   1   3
BRANCH   1  15
HETATM   15  O   UNL     1       4.187   4.363  -4.366  1.00  0.00    -0.384 OA
HETATM   16  H   UNL     1       3.242   4.190  -4.209  1.00  0.00     0.211 HD
ENDBRANCH   1  15
BRANCH   1  17
HETATM   17  C   UNL     1       4.571   6.701  -3.910  1.00  0.00    -0.022 A 
HETATM   18  C   UNL     1       5.030   7.791  -3.147  1.00  0.00     0.010 A 
HETATM   19  C   UNL     1       4.966   9.096  -3.637  1.00  0.00     0.001 A 
HETATM   20  C   UNL     1       4.428   9.345  -4.896  1.00  0.00     0.016 A 
HETATM   21  C   UNL     1       3.950   8.288  -5.681  1.00  0.00     0.048 A 
HETATM   22  C   UNL     1       4.036   6.975  -5.183  1.00  0.00     0.026 A 
BRANCH  21  23
HETATM   23  C   UNL     1       3.340   8.540  -7.039  1.00  0.00     0.417 C 
HETATM   24  F   UNL     1       3.293   9.859  -7.379  1.00  0.00    -0.166 F 
HETATM   25  F   UNL     1       4.018   7.920  -8.044  1.00  0.00    -0.166 F 
HETATM   26  F   UNL     1       2.056   8.091  -7.120  1.00  0.00    -0.166 F 
ENDBRANCH  21  23
ENDBRANCH   1  17
TORSDOF 6
