REMARK  5 active torsions:
REMARK  status: ('A' for Active; 'I' for Inactive)
REMARK    1  A    between atoms: C_1  and  C_2 
REMARK    2  A    between atoms: C_1  and  N_9 
REMARK    3  A    between atoms: C_2  and  N_3 
REMARK    4  A    between atoms: N_9  and  C_10 
REMARK    5  A    between atoms: C_10  and  C_11 
ROOT
HETATM    1  N   UNL     1       2.414   0.120   0.102  1.00  0.00     0.087 N 
HETATM    2  H   UNL     1       2.901   0.999  -0.080  1.00  0.00     0.316 HD
ENDROOT
BRANCH   1   3
HETATM    3  C   UNL     1       0.957   0.302   0.152  1.00  0.00     0.291 C 
BRANCH   3   4
HETATM    4  C   UNL     1       0.454   1.258   1.239  1.00  0.00     0.178 C 
BRANCH   4   5
HETATM    5  N   UNL     1      -0.994   1.355   1.241  1.00  0.00    -0.302 N 
HETATM    6  C   UNL     1      -1.753   2.293   0.605  1.00  0.00     0.111 A 
HETATM    7  C   UNL     1      -3.058   2.000   0.929  1.00  0.00     0.037 A 
HETATM    8  C   UNL     1      -2.977   0.873   1.768  1.00  0.00     0.108 A 
HETATM    9  N   UNL     1      -1.716   0.477   1.962  1.00  0.00    -0.310 N 
ATOM     10  HN  UNL     1      -1.380  -0.305   2.523  1.00  0.00     0.186 HD
ENDBRANCH   4   5
ENDBRANCH   3   4
ENDBRANCH   1   3
BRANCH   1  11
HETATM   11  C   UNL     1       2.945  -0.474   1.335  1.00  0.00     0.301 C 
BRANCH  11  12
HETATM   12  C   UNL     1       4.487  -0.571   1.313  1.00  0.00     0.149 C 
HETATM   13  C   UNL     1       5.031  -1.163   2.620  1.00  0.00     0.034 C 
HETATM   14  C   UNL     1       4.935  -0.177   3.780  1.00  0.00     0.004 C 
HETATM   15  C   UNL     1       5.553   1.159   3.392  1.00  0.00     0.026 C 
HETATM   16  C   UNL     1       4.989   1.667   2.073  1.00  0.00     0.168 C 
HETATM   17  O   UNL     1       5.110   0.696   1.037  1.00  0.00    -0.384 OA
ENDBRANCH  11  12
ENDBRANCH   1  11
TORSDOF 5
