REMARK  12 active torsions:
REMARK  status: ('A' for Active; 'I' for Inactive)
REMARK    1  A    between atoms: N_2  and  C_13 
REMARK    2  A    between atoms: C_6  and  N_8 
REMARK    3  A    between atoms: N_8  and  C_17 
REMARK    4  A    between atoms: N_8  and  C_18 
REMARK    5  A    between atoms: C_13  and  C_14 
REMARK    6  A    between atoms: C_14  and  C_19 
REMARK    7  A    between atoms: C_18  and  C_29 
REMARK    8  A    between atoms: C_19  and  O_20 
REMARK    9  A    between atoms: O_21  and  C_30 
REMARK   10  A    between atoms: O_24  and  C_29 
REMARK   11  A    between atoms: O_24  and  C_31 
REMARK   12  A    between atoms: C_30  and  C_31 
ROOT
HETATM    1  C   UNL     1       0.467  -0.715   0.022  1.00  0.00     0.122 A 
HETATM    2  N   UNL     1       1.496   1.258   0.051  1.00  0.00    -0.326 N 
HETATM    3  C   UNL     1       0.251   0.667   0.064  1.00  0.00     0.140 A 
HETATM    4  N   UNL     1       1.834  -0.950   0.020  1.00  0.00    -0.346 N 
ATOM      5  HN  UNL     1       2.300  -1.857   0.000  1.00  0.00     0.167 HD
HETATM    6  C   UNL     1      -0.687  -1.570  -0.052  1.00  0.00     0.135 A 
HETATM    7  C   UNL     1       2.410   0.236   0.049  1.00  0.00     0.185 A 
HETATM    8  N   UNL     1      -1.893  -0.921  -0.058  1.00  0.00    -0.337 N 
ATOM      9  HN  UNL     1      -2.757  -1.461  -0.102  1.00  0.00     0.168 HD
HETATM   10  N   UNL     1      -0.930   1.305   0.057  1.00  0.00    -0.336 N 
ATOM     11  HN  UNL     1      -1.042   2.318   0.094  1.00  0.00     0.168 HD
HETATM   12  C   UNL     1      -1.947   0.424  -0.006  1.00  0.00     0.183 A 
ENDROOT
BRANCH   6  13
HETATM   13  N   UNL     1      -0.705  -2.978  -0.167  1.00  0.00    -0.359 N 
BRANCH  13  14
HETATM   14  C   UNL     1       0.365  -3.764   0.474  1.00  0.00     0.077 C 
HETATM   15  C   UNL     1       0.112  -3.940   1.980  1.00  0.00     0.032 C 
HETATM   16  C   UNL     1       0.572  -5.125  -0.203  1.00  0.00     0.032 C 
ENDBRANCH  13  14
BRANCH  13  17
HETATM   17  C   UNL     1      -1.941  -3.613  -0.680  1.00  0.00     0.151 C 
BRANCH  17  18
HETATM   18  C   UNL     1      -2.751  -4.342   0.403  1.00  0.00     0.187 C 
BRANCH  18  19
HETATM   19  O   UNL     1      -3.958  -4.955  -0.086  1.00  0.00    -0.387 OA
BRANCH  19  20
HETATM   20  C   UNL     1      -4.568  -5.693   0.984  1.00  0.00     0.193 C 
BRANCH  20  21
HETATM   21  C   UNL     1      -5.851  -6.390   0.551  1.00  0.00     0.190 C 
BRANCH  21  22
HETATM   22  O   UNL     1      -6.401  -7.087   1.667  1.00  0.00    -0.399 OA
HETATM   23  H   UNL     1      -7.225  -7.507   1.367  1.00  0.00     0.209 HD
ENDBRANCH  21  22
ENDBRANCH  20  21
ENDBRANCH  19  20
ENDBRANCH  18  19
ENDBRANCH  17  18
ENDBRANCH  13  17
ENDBRANCH   6  13
BRANCH   2  24
HETATM   24  C   UNL     1       1.798   2.697   0.071  1.00  0.00     0.143 C 
BRANCH  24  25
HETATM   25  C   UNL     1       1.940   3.400  -1.328  1.00  0.00     0.001 C 
HETATM   26  C   UNL     1       3.205   2.889  -2.065  1.00  0.00     0.039 C 
HETATM   27  C   UNL     1       4.482   3.484  -1.469  1.00  0.00     0.168 C 
HETATM   28  O   UNL     1       4.471   4.898  -1.626  1.00  0.00    -0.391 OA
HETATM   29  C   UNL     1       3.434   5.514  -0.873  1.00  0.00     0.168 C 
HETATM   30  C   UNL     1       2.063   4.959  -1.238  1.00  0.00     0.039 C 
BRANCH  25  31
HETATM   31  C   UNL     1       0.657   3.135  -2.156  1.00  0.00     0.175 C 
BRANCH  31  32
HETATM   32  O   UNL     1      -0.480   3.663  -1.475  1.00  0.00    -0.400 OA
HETATM   33  H   UNL     1      -0.789   2.981  -0.843  1.00  0.00     0.209 HD
ENDBRANCH  31  32
ENDBRANCH  25  31
ENDBRANCH  24  25
ENDBRANCH   2  24
TORSDOF 12
