REMARK  2 active torsions:
REMARK  status: ('A' for Active; 'I' for Inactive)
REMARK       I    between atoms: C_2  and  N_3 
REMARK       I    between atoms: C_2  and  N_13 
REMARK    1  A    between atoms: N_3  and  C_4 
REMARK    2  A    between atoms: N_13  and  C_14 
ROOT
HETATM    1  O   UNL     1       0.963   0.090   0.314  1.00  0.00    -0.247 OA
HETATM    2  C   UNL     1       2.180  -0.077   0.269  1.00  0.00     0.322 C 
HETATM    3  N   UNL     1       2.763  -1.301   0.121  1.00  0.00    -0.336 N 
HETATM    4  N   UNL     1       2.992   0.992   0.465  1.00  0.00    -0.288 N 
HETATM    5  H   UNL     1       3.738  -1.323  -0.162  1.00  0.00     0.164 HD
HETATM    6  H   UNL     1       2.524   1.846   0.726  1.00  0.00     0.172 HD
ENDROOT
BRANCH   3   7
HETATM    7  C   UNL     1       1.971  -2.508  -0.010  1.00  0.00     0.121 C 
HETATM    8  C   UNL     1       1.692  -2.880  -1.473  1.00  0.00     0.057 C 
HETATM    9  C   UNL     1       1.711  -4.413  -1.506  1.00  0.00     0.275 C 
HETATM   10  N   UNL     1       1.805  -4.799  -0.102  1.00  0.00     0.095 N 
HETATM   11  C   UNL     1       2.280  -6.150   0.151  1.00  0.00     0.273 C 
HETATM   12  C   UNL     1       2.644  -3.773   0.531  1.00  0.00     0.245 C 
HETATM   13  C   UNL     1       2.280  -6.407   1.663  1.00  0.00     0.030 C 
HETATM   14  C   UNL     1       3.081  -5.345   2.426  1.00  0.00     0.004 C 
HETATM   15  C   UNL     1       2.625  -3.931   2.047  1.00  0.00     0.038 C 
ENDBRANCH   3   7
BRANCH   4  16
HETATM   16  C   UNL     1       4.353   0.989   0.405  1.00  0.00     0.168 A 
HETATM   17  N   UNL     1       5.163   0.046  -0.017  1.00  0.00    -0.279 N 
HETATM   18  N   UNL     1       6.487   0.422   0.107  1.00  0.00    -0.303 N 
ATOM     19  HN  UNL     1       4.854  -0.852  -0.390  1.00  0.00     0.189 HD
HETATM   20  C   UNL     1       6.604   1.623   0.637  1.00  0.00     0.160 A 
ATOM     21  HN  UNL     1       7.276  -0.158  -0.177  1.00  0.00     0.186 HD
HETATM   22  S   UNL     1       5.114   2.407   0.969  1.00  0.00    -0.046 SA
ENDBRANCH   4  16
TORSDOF 2
