REMARK  5 active torsions:
REMARK  status: ('A' for Active; 'I' for Inactive)
REMARK    1  A    between atoms: C_6  and  N_7 
REMARK       I    between atoms: N_7  and  C_8 
REMARK    2  A    between atoms: C_8  and  C_10 
REMARK    3  A    between atoms: C_10  and  O_11 
REMARK    4  A    between atoms: O_11  and  C_12 
REMARK    5  A    between atoms: C_12  and  C_13 
ROOT
HETATM    1  N   UNL     1       6.724  -0.751  -1.611  1.00  0.00    -0.311 N 
HETATM    2  C   UNL     1       7.602  -1.183  -0.628  1.00  0.00     0.246 C 
HETATM    3  O   UNL     1       7.306  -1.641   0.471  1.00  0.00    -0.271 OA
HETATM    4  H   UNL     1       7.101  -0.338  -2.451  1.00  0.00     0.170 HD
ENDROOT
BRANCH   1   5
HETATM    5  C   UNL     1       5.327  -0.848  -1.516  1.00  0.00     0.109 A 
HETATM    6  N   UNL     1       4.764  -1.451  -0.457  1.00  0.00    -0.351 N 
HETATM    7  C   UNL     1       3.417  -1.521  -0.385  1.00  0.00     0.115 A 
ATOM      8  HN  UNL     1       5.344  -1.850   0.281  1.00  0.00     0.166 HD
HETATM    9  C   UNL     1       2.569  -1.002  -1.342  1.00  0.00     0.071 A 
HETATM   10 CL   UNL     1       0.869  -1.131  -1.121  1.00  0.00    -0.081 Cl
HETATM   11  C   UNL     1       3.164  -0.390  -2.441  1.00  0.00     0.060 A 
HETATM   12  C   UNL     1       4.557  -0.316  -2.541  1.00  0.00     0.074 A 
HETATM   13 CL   UNL     1       2.230   0.308  -3.718  1.00  0.00    -0.082 Cl
ENDBRANCH   1   5
BRANCH   2  14
HETATM   14  C   UNL     1       9.081  -1.091  -1.052  1.00  0.00     0.270 C 
BRANCH  14  15
HETATM   15  O   UNL     1       9.771  -2.334  -1.086  1.00  0.00    -0.380 OA
BRANCH  15  16
HETATM   16  C   UNL     1       9.228  -3.233  -2.052  1.00  0.00     0.200 C 
BRANCH  16  17
HETATM   17  C   UNL     1       9.874  -4.609  -1.936  1.00  0.00     0.145 C 
HETATM   18  C   UNL     1      11.371  -4.631  -2.188  1.00  0.00     0.036 C 
HETATM   19  C   UNL     1      11.620  -6.000  -2.790  1.00  0.00     0.029 C 
HETATM   20  C   UNL     1      10.241  -6.580  -3.037  1.00  0.00     0.168 C 
HETATM   21  O   UNL     1       9.320  -5.493  -2.923  1.00  0.00    -0.384 OA
ENDBRANCH  16  17
ENDBRANCH  15  16
ENDBRANCH  14  15
ENDBRANCH   2  14
TORSDOF 5
