REMARK  4 active torsions:
REMARK  status: ('A' for Active; 'I' for Inactive)
REMARK    1  A    between atoms: N_6  and  C_7 
REMARK    2  A    between atoms: C_7  and  C_8 
REMARK    3  A    between atoms: C_8  and  O_9 
REMARK    4  A    between atoms: C_8  and  C_10 
ROOT
HETATM    1  C   UNL     1       6.631   0.157   0.141  1.00  0.00     0.169 C 
ENDROOT
BRANCH   1   2
HETATM    2  N   UNL     1       5.174   0.075   0.217  1.00  0.00    -0.307 N 
HETATM    3  C   UNL     1       4.423   0.066  -0.928  1.00  0.00     0.186 A 
HETATM    4  N   UNL     1       3.134   0.045  -0.965  1.00  0.00    -0.355 N 
HETATM    5  C   UNL     1       2.467   0.020   0.236  1.00  0.00     0.017 A 
ATOM      6  HN  UNL     1       2.629   0.047  -1.851  1.00  0.00     0.166 HD
HETATM    7  C   UNL     1       0.966   0.057   0.115  1.00  0.00     0.069 C 
HETATM    8  C   UNL     1       3.079  -0.036   1.435  1.00  0.00     0.028 A 
HETATM    9  C   UNL     1       4.566  -0.043   1.447  1.00  0.00     0.256 A 
HETATM   10  C   UNL     1       2.365  -0.078   2.749  1.00  0.00     0.056 C 
HETATM   11  O   UNL     1       5.197  -0.133   2.497  1.00  0.00    -0.267 OA
ENDBRANCH   1   2
BRANCH   1  12
HETATM   12  C   UNL     1       7.320  -1.228   0.068  1.00  0.00     0.171 C 
BRANCH  12  13
HETATM   13  O   UNL     1       6.911  -1.861  -1.152  1.00  0.00    -0.389 OA
HETATM   14  H   UNL     1       7.541  -1.622  -1.853  1.00  0.00     0.210 HD
ENDBRANCH  12  13
BRANCH  12  15
HETATM   15  C   UNL     1       8.844  -1.188   0.093  1.00  0.00    -0.005 A 
HETATM   16  C   UNL     1       9.547  -0.105  -0.477  1.00  0.00     0.035 A 
HETATM   17  C   UNL     1      10.944  -0.086  -0.517  1.00  0.00     0.034 A 
HETATM   18 CL   UNL     1      11.755   1.256  -1.224  1.00  0.00    -0.084 Cl
HETATM   19  C   UNL     1      11.680  -1.143   0.000  1.00  0.00     0.025 A 
HETATM   20  C   UNL     1      11.012  -2.227   0.565  1.00  0.00     0.026 A 
HETATM   21  C   UNL     1       9.609  -2.253   0.612  1.00  0.00     0.043 A 
HETATM   22 CL   UNL     1       8.884  -3.654   1.318  1.00  0.00    -0.084 Cl
ENDBRANCH  12  15
ENDBRANCH   1  12
TORSDOF 4
