REMARK  8 active torsions:
REMARK  status: ('A' for Active; 'I' for Inactive)
REMARK    1  A    between atoms: C_2  and  C_4 
REMARK    2  A    between atoms: C_4  and  C_5 
REMARK    3  A    between atoms: C_5  and  C_6 
REMARK    4  A    between atoms: C_6  and  O_8 
REMARK    5  A    between atoms: C_6  and  C_9 
REMARK    6  A    between atoms: C_9  and  N_10 
REMARK       I    between atoms: N_10  and  C_11 
REMARK    7  A    between atoms: C_11  and  C_13 
REMARK    8  A    between atoms: C_13  and  N_15 
ROOT
HETATM    1  N   UNL     1       7.123   1.236  -4.296  1.00  0.00    -0.356 N 
HETATM    2  C   UNL     1       7.070   2.523  -4.804  1.00  0.00     0.242 C 
HETATM    3  O   UNL     1       6.590   3.477  -4.196  1.00  0.00    -0.271 OA
HETATM    4  H   UNL     1       7.658   0.527  -4.782  1.00  0.00     0.162 HD
ENDROOT
BRANCH   1   5
HETATM    5  C   UNL     1       6.597   0.925  -2.976  1.00  0.00     0.159 C 
BRANCH   5   6
HETATM    6  C   UNL     1       5.049   0.805  -2.917  1.00  0.00     0.070 C 
HETATM    7  C   UNL     1       4.545  -0.222  -3.938  1.00  0.00     0.047 C 
BRANCH   6   8
HETATM    8  C   UNL     1       4.568   0.424  -1.494  1.00  0.00     0.039 C 
BRANCH   8   9
HETATM    9  C   UNL     1       4.998   1.427  -0.410  1.00  0.00     0.007 C 
BRANCH   9  10
HETATM   10  C   UNL     1       4.492   1.090   1.004  1.00  0.00    -0.023 C 
HETATM   11  C   UNL     1       5.044   2.116   1.999  1.00  0.00     0.009 C 
HETATM   12  C   UNL     1       2.966   1.058   1.091  1.00  0.00     0.009 C 
ENDBRANCH   9  10
ENDBRANCH   8   9
ENDBRANCH   6   8
BRANCH   6  13
HETATM   13  O   UNL     1       4.445   2.056  -3.252  1.00  0.00    -0.389 OA
HETATM   14  H   UNL     1       3.481   1.968  -3.202  1.00  0.00     0.210 HD
ENDBRANCH   6  13
ENDBRANCH   5   6
ENDBRANCH   1   5
BRANCH   2  15
HETATM   15  C   UNL     1       7.727   2.691  -6.163  1.00  0.00     0.195 C 
HETATM   16  C   UNL     1       6.877   3.557  -7.086  1.00  0.00     0.044 C 
BRANCH  15  17
HETATM   17  N   UNL     1       9.054   3.257  -5.968  1.00  0.00    -0.290 N 
HETATM   18  C   UNL     1       9.379   4.400  -5.285  1.00  0.00     0.112 A 
HETATM   19  C   UNL     1      10.746   4.509  -5.346  1.00  0.00     0.037 A 
HETATM   20  C   UNL     1      11.158   3.396  -6.096  1.00  0.00     0.108 A 
HETATM   21  N   UNL     1      10.134   2.629  -6.480  1.00  0.00    -0.309 N 
ATOM     22  HN  UNL     1      10.162   1.771  -7.031  1.00  0.00     0.186 HD
ENDBRANCH  15  17
ENDBRANCH   2  15
TORSDOF 8
