REMARK  3 active torsions:
REMARK  status: ('A' for Active; 'I' for Inactive)
REMARK    1  A    between atoms: C_2  and  C_3 
REMARK    2  A    between atoms: C_9  and  N_10 
REMARK       I    between atoms: N_10  and  C_11 
REMARK       I    between atoms: C_11  and  N_13 
REMARK    3  A    between atoms: N_13  and  C_14 
ROOT
HETATM    1  N   UNL     1       1.911   4.045  -0.018  1.00  0.00    -0.305 N 
HETATM    2  C   UNL     1       1.212   3.302   0.911  1.00  0.00     0.321 C 
HETATM    3  O   UNL     1       0.414   2.419   0.631  1.00  0.00    -0.247 OA
HETATM    4  N   UNL     1       1.525   3.667   2.203  1.00  0.00    -0.335 N 
HETATM    5  H   UNL     1       2.044   5.011   0.234  1.00  0.00     0.171 HD
HETATM    6  H   UNL     1       1.932   4.582   2.318  1.00  0.00     0.164 HD
ENDROOT
BRANCH   1   7
HETATM    7  C   UNL     1       1.801   3.796  -1.383  1.00  0.00     0.092 A 
HETATM    8  C   UNL     1       1.894   2.605  -2.163  1.00  0.00     0.061 A 
HETATM    9  N   UNL     1       1.736   2.879  -3.469  1.00  0.00    -0.263 N 
HETATM   10  O   UNL     1       1.519   4.233  -3.555  1.00  0.00    -0.240 OA
ATOM     11  HN  UNL     1       1.770   2.215  -4.242  1.00  0.00     0.194 HD
HETATM   12  C   UNL     1       1.565   4.783  -2.317  1.00  0.00     0.101 A 
HETATM   13  C   UNL     1       1.263   6.222  -2.245  1.00  0.00     0.081 C 
BRANCH   8  14
HETATM   14  C   UNL     1       2.218   1.196  -1.787  1.00  0.00     0.057 C 
HETATM   15  C   UNL     1       3.716   0.919  -1.776  1.00  0.00     0.011 C 
ENDBRANCH   8  14
ENDBRANCH   1   7
BRANCH   4  16
HETATM   16  C   UNL     1       0.876   3.087   3.390  1.00  0.00     0.122 C 
HETATM   17  C   UNL     1       1.515   3.638   4.669  1.00  0.00     0.065 C 
HETATM   18  C   UNL     1       1.636   2.463   5.641  1.00  0.00     0.057 C 
HETATM   19  C   UNL     1       3.094   2.152   5.997  1.00  0.00     0.045 C 
HETATM   20  C   UNL     1       0.860   2.691   6.940  1.00  0.00     0.045 C 
HETATM   21  O   UNL     1       1.078   1.318   4.992  1.00  0.00    -0.369 OA
HETATM   22  C   UNL     1       0.947   1.551   3.570  1.00  0.00     0.075 C 
HETATM   23  C   UNL     1      -0.344   0.838   3.164  1.00  0.00     0.048 C 
HETATM   24  C   UNL     1       2.160   0.894   2.893  1.00  0.00     0.048 C 
ENDBRANCH   4  16
TORSDOF 3
