REMARK  3 active torsions:
REMARK  status: ('A' for Active; 'I' for Inactive)
REMARK    1  A    between atoms: C_1  and  C_7 
REMARK    2  A    between atoms: C_8  and  C_14 
REMARK    3  A    between atoms: C_12  and  O_13 
ROOT
HETATM    1  C   UNL     1      -0.007  -1.273  -0.039  1.00  0.00     0.173 A 
HETATM    2  N   UNL     1      -0.600  -0.156  -0.410  1.00  0.00    -0.280 N 
ATOM      3  HN  UNL     1      -1.561  -0.054  -0.736  1.00  0.00     0.189 HD
HETATM    4  O   UNL     1       1.298  -1.079   0.340  1.00  0.00    -0.280 OA
HETATM    5  N   UNL     1       0.336   0.848  -0.271  1.00  0.00    -0.281 N 
ATOM      6  HN  UNL     1       0.204   1.839  -0.472  1.00  0.00     0.189 HD
HETATM    7  C   UNL     1       1.433   0.273   0.172  1.00  0.00     0.140 A 
ENDROOT
BRANCH   1   8
HETATM    8  C   UNL     1      -0.565  -2.651   0.017  1.00  0.00     0.298 C 
HETATM    9  N   UNL     1      -0.487  -3.268   1.358  1.00  0.00     0.098 N 
HETATM   10  C   UNL     1      -0.527  -4.723   1.160  1.00  0.00     0.302 C 
HETATM   11  H   UNL     1      -1.271  -2.952   1.929  1.00  0.00     0.317 HD
HETATM   12  C   UNL     1      -0.322  -4.969  -0.339  1.00  0.00     0.148 C 
HETATM   13  C   UNL     1       0.188  -3.637  -0.860  1.00  0.00     0.077 C 
BRANCH  12  14
HETATM   14  O   UNL     1       0.590  -6.015  -0.614  1.00  0.00    -0.394 OA
HETATM   15  H   UNL     1       1.433  -5.804  -0.177  1.00  0.00     0.210 HD
ENDBRANCH  12  14
ENDBRANCH   1   8
BRANCH   7  16
HETATM   16  C   UNL     1       2.744   0.872   0.504  1.00  0.00     0.081 C 
HETATM   17  C   UNL     1       3.661   0.903  -0.707  1.00  0.00     0.013 C 
ENDBRANCH   7  16
TORSDOF 3
