REMARK  4 active torsions:
REMARK  status: ('A' for Active; 'I' for Inactive)
REMARK    1  A    between atoms: S_2  and  N_5 
REMARK    2  A    between atoms: N_8  and  C_11 
REMARK    3  A    between atoms: C_14  and  N_15 
REMARK       I    between atoms: N_15  and  C_16 
REMARK       I    between atoms: C_16  and  N_18 
REMARK    4  A    between atoms: N_18  and  C_19 
ROOT
HETATM    1  C   UNL     1       3.461  -5.232   0.464  1.00  0.00     0.103 A 
HETATM    2  C   UNL     1       4.693  -5.791   0.787  1.00  0.00     0.051 A 
HETATM    3  C   UNL     1       4.860  -7.173   0.880  1.00  0.00     0.035 A 
HETATM    4  C   UNL     1       3.785  -8.022   0.671  1.00  0.00     0.051 A 
HETATM    5  C   UNL     1       2.579  -7.404   0.383  1.00  0.00     0.119 A 
HETATM    6  N   UNL     1       2.402  -6.055   0.274  1.00  0.00    -0.350 N 
ATOM      7  HN  UNL     1       1.483  -5.671   0.052  1.00  0.00     0.166 HD
ENDROOT
BRANCH   1   8
HETATM    8  N   UNL     1       3.307  -3.878   0.257  1.00  0.00    -0.365 N 
HETATM    9  C   UNL     1       1.981  -3.325  -0.054  1.00  0.00     0.140 C 
HETATM   10  C   UNL     1       2.091  -2.271  -1.183  1.00  0.00     0.127 C 
HETATM   11  N   UNL     1       3.155  -1.229  -0.946  1.00  0.00    -0.208 NA
HETATM   12  C   UNL     1       4.459  -1.899  -0.618  1.00  0.00     0.127 C 
HETATM   13  C   UNL     1       4.320  -2.862   0.575  1.00  0.00     0.140 C 
BRANCH  11  14
HETATM   14  S   UNL     1       2.769   0.074   0.069  1.00  0.00     0.207 S 
HETATM   15  C   UNL     1       1.591   0.989  -0.903  1.00  0.00     0.180 C 
HETATM   16  O   UNL     1       3.954   0.895   0.197  1.00  0.00    -0.212 OA
HETATM   17  O   UNL     1       2.096  -0.444   1.238  1.00  0.00    -0.212 OA
ENDBRANCH  11  14
ENDBRANCH   1   8
BRANCH   4  18
HETATM   18  N   UNL     1       3.906  -9.433   0.709  1.00  0.00    -0.308 N 
HETATM   19  C   UNL     1       4.960 -10.106   1.288  1.00  0.00     0.321 C 
HETATM   20  O   UNL     1       5.832  -9.595   1.985  1.00  0.00    -0.247 OA
HETATM   21  N   UNL     1       4.953 -11.461   1.035  1.00  0.00    -0.338 N 
HETATM   22  H   UNL     1       4.339 -11.838   0.330  1.00  0.00     0.164 HD
HETATM   23  H   UNL     1       3.091  -9.978   0.466  1.00  0.00     0.170 HD
BRANCH  21  24
HETATM   24  C   UNL     1       5.969 -12.298   1.604  1.00  0.00     0.086 A 
HETATM   25  C   UNL     1       7.260 -12.559   0.875  1.00  0.00     0.027 A 
HETATM   26  C   UNL     1       6.273 -13.670   1.079  1.00  0.00     0.027 A 
ENDBRANCH  21  24
ENDBRANCH   4  18
TORSDOF 4
