REMARK  3 active torsions:
REMARK  status: ('A' for Active; 'I' for Inactive)
REMARK    1  A    between atoms: C_2  and  C_3 
REMARK       I    between atoms: C_2  and  N_13 
REMARK    2  A    between atoms: C_3  and  N_4 
REMARK    3  A    between atoms: N_13  and  C_14 
ROOT
HETATM    1  N   UNL     1       0.037  -0.042   0.979  1.00  0.00    -0.277 N 
HETATM    2  C   UNL     1      -0.265  -1.298   1.410  1.00  0.00     0.203 A 
HETATM    3  N   UNL     1      -0.915  -1.229   2.550  1.00  0.00    -0.327 N 
ATOM      4  HN  UNL     1      -1.278  -1.993   3.121  1.00  0.00     0.169 HD
HETATM    5  C   UNL     1      -0.987   0.122   2.785  1.00  0.00     0.204 A 
HETATM    6  C   UNL     1      -1.608   0.674   3.957  1.00  0.00     0.138 C 
HETATM    7  N   UNL     1      -2.107   1.127   4.906  1.00  0.00    -0.188 NA
HETATM    8  N   UNL     1      -0.432   0.892   1.834  1.00  0.00    -0.273 N 
ATOM      9  HN  UNL     1      -0.379   1.909   1.774  1.00  0.00     0.189 HD
ENDROOT
BRANCH   1  10
HETATM   10  C   UNL     1       0.699   0.343  -0.248  1.00  0.00     0.252 C 
BRANCH  10  11
HETATM   11  C   UNL     1       2.189   0.090  -0.167  1.00  0.00     0.237 C 
HETATM   12  O   UNL     1       2.650  -1.025   0.063  1.00  0.00    -0.272 OA
HETATM   13  N   UNL     1       2.989   1.197  -0.382  1.00  0.00    -0.354 N 
HETATM   14  H   UNL     1       2.549   2.088  -0.584  1.00  0.00     0.162 HD
BRANCH  13  15
HETATM   15  C   UNL     1       4.449   1.182  -0.291  1.00  0.00     0.099 C 
HETATM   16  C   UNL     1       5.127   0.335  -1.382  1.00  0.00     0.041 C 
HETATM   17  C   UNL     1       6.534  -0.055  -0.925  1.00  0.00     0.142 C 
HETATM   18  S   UNL     1       6.717   0.506   0.753  1.00  0.00     0.146 S 
HETATM   19  O   UNL     1       7.218  -0.575   1.575  1.00  0.00    -0.228 OA
HETATM   20  O   UNL     1       7.347   1.809   0.725  1.00  0.00    -0.228 OA
HETATM   21  C   UNL     1       4.988   0.739   1.065  1.00  0.00     0.165 C 
ENDBRANCH  13  15
ENDBRANCH  10  11
ENDBRANCH   1  10
TORSDOF 3
