REMARK  4 active torsions:
REMARK  status: ('A' for Active; 'I' for Inactive)
REMARK    1  A    between atoms: N_5  and  C_6 
REMARK    2  A    between atoms: C_6  and  C_7 
REMARK    3  A    between atoms: C_7  and  N_8 
REMARK       I    between atoms: N_8  and  C_9 
REMARK       I    between atoms: C_9  and  N_11 
REMARK    4  A    between atoms: N_11  and  C_12 
ROOT
HETATM    1  N   UNL     1       3.157   4.105  -4.125  1.00  0.00    -0.341 N 
HETATM    2  C   UNL     1       3.185   5.409  -3.670  1.00  0.00     0.320 C 
HETATM    3  O   UNL     1       2.744   5.724  -2.570  1.00  0.00    -0.247 OA
HETATM    4  N   UNL     1       3.813   6.249  -4.557  1.00  0.00    -0.308 N 
HETATM    5  H   UNL     1       2.981   3.999  -5.114  1.00  0.00     0.164 HD
HETATM    6  H   UNL     1       4.342   5.797  -5.288  1.00  0.00     0.170 HD
ENDROOT
BRANCH   1   7
HETATM    7  C   UNL     1       2.559   3.111  -3.247  1.00  0.00     0.154 C 
BRANCH   7   8
HETATM    8  C   UNL     1       3.118   1.694  -3.446  1.00  0.00     0.292 C 
BRANCH   8   9
HETATM    9  N   UNL     1       2.558   0.710  -2.496  1.00  0.00     0.095 N 
HETATM   10  C   UNL     1       2.871   1.052  -1.087  1.00  0.00     0.309 C 
HETATM   11  C   UNL     1       2.324   0.004  -0.082  1.00  0.00     0.080 C 
HETATM   12  C   UNL     1       0.787   0.000  -0.048  1.00  0.00     0.047 C 
HETATM   13  C   UNL     1       2.841   0.346   1.322  1.00  0.00     0.047 C 
HETATM   14  O   UNL     1       2.837  -1.304  -0.401  1.00  0.00    -0.377 OA
HETATM   15  C   UNL     1       2.587  -1.680  -1.761  1.00  0.00     0.199 C 
HETATM   16  C   UNL     1       3.107  -0.637  -2.764  1.00  0.00     0.298 C 
ENDBRANCH   8   9
ENDBRANCH   7   8
ENDBRANCH   1   7
BRANCH   4  17
HETATM   17  C   UNL     1       4.051   7.627  -4.342  1.00  0.00     0.051 A 
HETATM   18  C   UNL     1       3.422   8.378  -3.349  1.00  0.00     0.032 A 
HETATM   19  C   UNL     1       3.760   9.718  -3.166  1.00  0.00     0.019 A 
HETATM   20  C   UNL     1       4.710  10.275  -4.001  1.00  0.00     0.088 A 
HETATM   21  N   UNL     1       5.319   9.599  -4.998  1.00  0.00    -0.373 N 
HETATM   22  C   UNL     1       4.973   8.296  -5.144  1.00  0.00     0.117 A 
ATOM     23  HN  UNL     1       6.003  10.045  -5.609  1.00  0.00     0.164 HD
ENDBRANCH   4  17
TORSDOF 4
