REMARK  6 active torsions:
REMARK  status: ('A' for Active; 'I' for Inactive)
REMARK    1  A    between atoms: C_2  and  C_3 
REMARK    2  A    between atoms: C_3  and  N_4 
REMARK       I    between atoms: N_4  and  C_5 
REMARK    3  A    between atoms: C_5  and  C_7 
REMARK    4  A    between atoms: C_10  and  N_11 
REMARK    5  A    between atoms: N_11  and  C_12 
REMARK    6  A    between atoms: C_12  and  C_13 
ROOT
HETATM    1  C   UNL     1      10.022   0.034   3.390  1.00  0.00     0.047 A 
HETATM    2  C   UNL     1       9.779  -0.857   2.347  1.00  0.00     0.022 A 
HETATM    3  C   UNL     1      10.070  -0.480   1.038  1.00  0.00     0.049 A 
HETATM    4  C   UNL     1      10.622   0.772   0.786  1.00  0.00     0.100 A 
HETATM    5  N   UNL     1      10.841   1.653   1.786  1.00  0.00    -0.352 N 
ATOM      6  HN  UNL     1      11.217   2.581   1.593  1.00  0.00     0.166 HD
HETATM    7  C   UNL     1      10.547   1.270   3.057  1.00  0.00     0.106 A 
ENDROOT
BRANCH   4   8
HETATM    8  N   UNL     1      11.045   1.038  -0.506  1.00  0.00    -0.374 N 
HETATM    9  H   UNL     1      10.385   0.825  -1.241  1.00  0.00     0.161 HD
BRANCH   8  10
HETATM   10  C   UNL     1      12.011   2.101  -0.755  1.00  0.00     0.155 C 
BRANCH  10  11
HETATM   11  C   UNL     1      13.391   1.486  -1.108  1.00  0.00     0.167 C 
HETATM   12  C   UNL     1      14.429   2.570  -1.459  1.00  0.00     0.306 C 
HETATM   13  N   UNL     1      14.819   3.355  -0.272  1.00  0.00     0.097 N 
HETATM   14  C   UNL     1      15.791   4.395  -0.619  1.00  0.00     0.273 C 
HETATM   15  C   UNL     1      15.354   2.427   0.757  1.00  0.00     0.246 C 
HETATM   16  C   UNL     1      16.165   5.216   0.615  1.00  0.00     0.030 C 
HETATM   17  C   UNL     1      16.705   4.326   1.729  1.00  0.00     0.004 C 
HETATM   18  C   UNL     1      15.726   3.195   2.032  1.00  0.00     0.038 C 
HETATM   19  C   UNL     1      14.329   1.321   1.084  1.00  0.00     0.204 C 
HETATM   20  O   UNL     1      13.924   0.608  -0.091  1.00  0.00    -0.380 OA
ENDBRANCH  10  11
ENDBRANCH   8  10
ENDBRANCH   4   8
BRANCH   1  21
HETATM   21  C   UNL     1       9.813  -0.425   4.781  1.00  0.00     0.253 C 
HETATM   22  N   UNL     1       9.552   0.525   5.746  1.00  0.00    -0.353 N 
HETATM   23  H   UNL     1       9.400   1.493   5.501  1.00  0.00     0.163 HD
HETATM   24  O   UNL     1       9.868  -1.627   5.023  1.00  0.00    -0.268 OA
BRANCH  22  25
HETATM   25  C   UNL     1       9.363   0.146   7.126  1.00  0.00     0.149 C 
BRANCH  25  26
HETATM   26  C   UNL     1       7.961   0.489   7.518  1.00  0.00    -0.018 C 
HETATM   27  C   UNL     1       7.637   1.293   8.540  1.00  0.00     0.008 C 
ENDBRANCH  25  26
ENDBRANCH  22  25
ENDBRANCH   1  21
TORSDOF 6
