REMARK  7 active torsions:
REMARK  status: ('A' for Active; 'I' for Inactive)
REMARK    1  A    between atoms: C_2  and  N_4 
REMARK       I    between atoms: N_4  and  C_5 
REMARK    2  A    between atoms: C_5  and  C_7 
REMARK    3  A    between atoms: C_7  and  C_8 
REMARK    4  A    between atoms: C_8  and  N_9 
REMARK    5  A    between atoms: C_13  and  C_14 
REMARK    6  A    between atoms: C_14  and  N_15 
REMARK    7  A    between atoms: N_15  and  C_16 
ROOT
HETATM    1  N   UNL     1       6.836   0.673  -4.371  1.00  0.00     0.093 N 
HETATM    2  C   UNL     1       6.524   2.004  -4.946  1.00  0.00     0.298 C 
HETATM    3  C   UNL     1       5.057   2.195  -5.378  1.00  0.00     0.198 C 
HETATM    4  O   UNL     1       4.597   1.130  -6.222  1.00  0.00    -0.381 OA
HETATM    5  C   UNL     1       4.767  -0.143  -5.562  1.00  0.00     0.163 C 
HETATM    6  C   UNL     1       6.256  -0.364  -5.259  1.00  0.00     0.305 C 
ENDROOT
BRANCH   5   7
HETATM    7  C   UNL     1       4.236  -1.261  -6.474  1.00  0.00     0.127 C 
BRANCH   7   8
HETATM    8  N   UNL     1       2.794  -1.070  -6.659  1.00  0.00    -0.275 NA
HETATM    9  H   UNL     1       2.608  -0.134  -7.016  1.00  0.00     0.129 HD
BRANCH   8  10
HETATM   10  C   UNL     1       2.186  -2.025  -7.491  1.00  0.00     0.094 A 
HETATM   11  C   UNL     1       0.827  -1.894  -7.744  1.00  0.00     0.045 A 
HETATM   12  C   UNL     1       0.183  -2.836  -8.539  1.00  0.00     0.022 A 
HETATM   13  C   UNL     1       0.933  -3.876  -9.047  1.00  0.00     0.107 A 
HETATM   14  N   UNL     1       2.246  -4.004  -8.790  1.00  0.00    -0.311 N 
HETATM   15  N   UNL     1       2.869  -3.074  -7.997  1.00  0.00    -0.290 N 
ATOM     16  HN  UNL     1       2.774  -4.785  -9.181  1.00  0.00     0.186 HD
ATOM     17  HN  UNL     1       3.862  -3.176  -7.787  1.00  0.00     0.188 HD
ENDBRANCH   8  10
ENDBRANCH   7   8
ENDBRANCH   5   7
BRANCH   1  18
HETATM   18  C   UNL     1       6.400   0.571  -2.960  1.00  0.00     0.282 C 
BRANCH  18  19
HETATM   19  C   UNL     1       6.709  -0.768  -2.270  1.00  0.00     0.133 C 
BRANCH  19  20
HETATM   20  C   UNL     1       8.179  -1.156  -2.211  1.00  0.00     0.219 C 
HETATM   21  N   UNL     1       8.912  -0.811  -3.318  1.00  0.00    -0.357 N 
HETATM   22  H   UNL     1       8.481  -0.138  -3.953  1.00  0.00     0.162 HD
HETATM   23  O   UNL     1       8.633  -1.810  -1.276  1.00  0.00    -0.274 OA
BRANCH  21  24
HETATM   24  C   UNL     1      10.332  -1.063  -3.463  1.00  0.00     0.076 C 
HETATM   25  C   UNL     1      10.686  -1.102  -4.947  1.00  0.00     0.032 C 
HETATM   26  C   UNL     1      11.140   0.010  -2.741  1.00  0.00     0.032 C 
ENDBRANCH  21  24
ENDBRANCH  19  20
ENDBRANCH  18  19
ENDBRANCH   1  18
TORSDOF 7
