REMARK  2 active torsions:
REMARK  status: ('A' for Active; 'I' for Inactive)
REMARK    1  A    between atoms: C_2  and  N_9 
REMARK       I    between atoms: N_9  and  C_10 
REMARK       I    between atoms: C_10  and  N_12 
REMARK    2  A    between atoms: N_12  and  C_13 
ROOT
HETATM    1  N   UNL     1       3.211   0.050  -1.329  1.00  0.00    -0.333 N 
HETATM    2  C   UNL     1       2.887  -0.850  -2.328  1.00  0.00     0.321 C 
HETATM    3  O   UNL     1       2.075  -1.755  -2.177  1.00  0.00    -0.247 OA
HETATM    4  N   UNL     1       3.638  -0.651  -3.462  1.00  0.00    -0.308 N 
HETATM    5  H   UNL     1       3.630   0.911  -1.660  1.00  0.00     0.165 HD
HETATM    6  H   UNL     1       4.573  -0.311  -3.283  1.00  0.00     0.170 HD
ENDROOT
BRANCH   1   7
HETATM    7  C   UNL     1       2.604   0.029   0.015  1.00  0.00     0.044 C 
HETATM    8  C   UNL     1       1.064   0.044  -0.068  1.00  0.00     0.039 C 
HETATM    9  C   UNL     1       3.082  -1.201   0.831  1.00  0.00     0.046 C 
HETATM   10  C   UNL     1       4.433  -0.901   1.474  1.00  0.00     0.143 C 
HETATM   11  S   UNL     1       4.601   0.865   1.555  1.00  0.00     0.146 S 
HETATM   12  O   UNL     1       4.583   1.288   2.943  1.00  0.00    -0.228 OA
HETATM   13  O   UNL     1       5.629   1.283   0.626  1.00  0.00    -0.228 OA
HETATM   14  C   UNL     1       3.030   1.266   0.828  1.00  0.00     0.170 C 
ENDBRANCH   1   7
BRANCH   4  15
HETATM   15  C   UNL     1       3.483  -1.487  -4.595  1.00  0.00     0.051 A 
HETATM   16  C   UNL     1       4.623  -1.986  -5.225  1.00  0.00     0.032 A 
HETATM   17  C   UNL     1       4.483  -2.877  -6.284  1.00  0.00     0.019 A 
HETATM   18  C   UNL     1       3.205  -3.197  -6.717  1.00  0.00     0.088 A 
HETATM   19  N   UNL     1       2.081  -2.695  -6.165  1.00  0.00    -0.373 N 
HETATM   20  C   UNL     1       2.242  -1.867  -5.105  1.00  0.00     0.117 A 
ATOM     21  HN  UNL     1       1.156  -2.927  -6.528  1.00  0.00     0.164 HD
ENDBRANCH   4  15
TORSDOF 2
