REMARK  6 active torsions:
REMARK  status: ('A' for Active; 'I' for Inactive)
REMARK    1  A    between atoms: C_7  and  O_8 
REMARK    2  A    between atoms: O_8  and  C_9 
REMARK    3  A    between atoms: C_9  and  C_10 
REMARK    4  A    between atoms: C_10  and  O_11 
REMARK    5  A    between atoms: C_10  and  C_12 
REMARK    6  A    between atoms: C_12  and  N_13 
ROOT
HETATM    1  C   UNL     1       5.562  -4.746  -0.561  1.00  0.00     0.161 C 
ENDROOT
BRANCH   1   2
HETATM    2  C   UNL     1       4.580  -3.607  -0.231  1.00  0.00     0.209 C 
BRANCH   2   3
HETATM    3  O   UNL     1       5.299  -2.370  -0.259  1.00  0.00    -0.347 OA
BRANCH   3   4
HETATM    4  C   UNL     1       4.594  -1.211  -0.070  1.00  0.00     0.091 A 
HETATM    5  C   UNL     1       5.322  -0.009  -0.113  1.00  0.00     0.067 A 
HETATM    6  C   UNL     1       4.682   1.220   0.075  1.00  0.00     0.027 A 
HETATM    7 CL   UNL     1       7.025   0.004  -0.405  1.00  0.00    -0.081 Cl
HETATM    8  C   UNL     1       3.306   1.266   0.296  1.00  0.00     0.008 A 
HETATM    9  C   UNL     1       2.562   0.085   0.328  1.00  0.00    -0.059 A 
HETATM   10  C   UNL     1       1.076   0.115   0.547  1.00  0.00     0.048 C 
HETATM   11  C   UNL     1       3.213  -1.149   0.155  1.00  0.00     0.045 A 
ENDBRANCH   3   4
ENDBRANCH   2   3
ENDBRANCH   1   2
BRANCH   1  12
HETATM   12  O   UNL     1       6.620  -4.821   0.407  1.00  0.00    -0.392 OA
HETATM   13  H   UNL     1       6.267  -4.554   1.274  1.00  0.00     0.210 HD
ENDBRANCH   1  12
BRANCH   1  14
HETATM   14  C   UNL     1       4.885  -6.127  -0.614  1.00  0.00     0.166 C 
BRANCH  14  15
HETATM   15  N   UNL     1       3.780  -6.212  -1.557  1.00  0.00    -0.308 N 
HETATM   16  C   UNL     1       4.018  -6.151  -2.907  1.00  0.00     0.186 A 
HETATM   17  N   UNL     1       3.103  -6.158  -3.819  1.00  0.00    -0.356 N 
HETATM   18  C   UNL     1       1.801  -6.251  -3.400  1.00  0.00     0.011 A 
ATOM     19  HN  UNL     1       3.339  -6.097  -4.809  1.00  0.00     0.166 HD
HETATM   20  C   UNL     1       0.755  -6.206  -4.477  1.00  0.00     0.068 C 
HETATM   21  C   UNL     1       1.442  -6.355  -2.115  1.00  0.00     0.099 A 
HETATM   22  C   UNL     1       2.491  -6.317  -1.085  1.00  0.00     0.250 A 
HETATM   23  O   UNL     1       2.178  -6.336   0.102  1.00  0.00    -0.268 OA
ENDBRANCH  14  15
ENDBRANCH   1  14
TORSDOF 6
