REMARK  5 active torsions:
REMARK  status: ('A' for Active; 'I' for Inactive)
REMARK    1  A    between atoms: C_2  and  N_3 
REMARK    2  A    between atoms: N_6  and  C_9 
REMARK    3  A    between atoms: C_9  and  C_11 
REMARK    4  A    between atoms: C_11  and  N_12 
REMARK       I    between atoms: N_12  and  C_13 
REMARK       I    between atoms: C_13  and  N_15 
REMARK    5  A    between atoms: N_15  and  C_16 
ROOT
HETATM    1  N   UNL     1       6.848  -3.302  -1.158  1.00  0.00    -0.341 N 
HETATM    2  C   UNL     1       8.000  -3.254  -1.907  1.00  0.00     0.321 C 
HETATM    3  O   UNL     1       8.254  -4.072  -2.783  1.00  0.00    -0.247 OA
HETATM    4  N   UNL     1       8.810  -2.217  -1.519  1.00  0.00    -0.293 N 
HETATM    5  H   UNL     1       6.578  -2.454  -0.688  1.00  0.00     0.164 HD
HETATM    6  H   UNL     1       8.748  -1.903  -0.564  1.00  0.00     0.172 HD
ENDROOT
BRANCH   1   7
HETATM    7  C   UNL     1       5.829  -4.288  -1.482  1.00  0.00     0.159 C 
BRANCH   7   8
HETATM    8  C   UNL     1       4.438  -4.079  -0.805  1.00  0.00     0.236 C 
HETATM    9  C   UNL     1       3.720  -5.442  -0.891  1.00  0.00     0.044 C 
BRANCH   8  10
HETATM   10  N   UNL     1       3.609  -3.005  -1.436  1.00  0.00     0.097 N 
HETATM   11  C   UNL     1       4.223  -1.660  -1.396  1.00  0.00     0.303 C 
HETATM   12  C   UNL     1       4.299  -1.055   0.032  1.00  0.00     0.302 C 
HETATM   13  N   UNL     1       2.981  -0.934   0.697  1.00  0.00     0.091 N 
HETATM   14  C   UNL     1       2.277  -2.230   0.597  1.00  0.00     0.302 C 
HETATM   15  C   UNL     1       2.263  -2.850  -0.826  1.00  0.00     0.303 C 
BRANCH  13  16
HETATM   16  C   UNL     1       2.240   0.198   0.116  1.00  0.00     0.268 C 
HETATM   17  C   UNL     1       0.870   0.448   0.731  1.00  0.00     0.037 C 
ENDBRANCH  13  16
ENDBRANCH   8  10
ENDBRANCH   7   8
ENDBRANCH   1   7
BRANCH   4  18
HETATM   18  C   UNL     1      10.041  -1.995  -2.095  1.00  0.00     0.132 A 
HETATM   19  C   UNL     1      10.461  -2.268  -3.413  1.00  0.00     0.084 A 
HETATM   20  C   UNL     1      11.798  -1.965  -3.413  1.00  0.00     0.076 A 
HETATM   21  C   UNL     1      12.878  -2.082  -4.406  1.00  0.00     0.079 C 
HETATM   22  O   UNL     1      12.144  -1.477  -2.193  1.00  0.00    -0.241 OA
HETATM   23  N   UNL     1      11.027  -1.444  -1.377  1.00  0.00    -0.245 N 
ATOM     24  HN  UNL     1      10.968  -1.077  -0.427  1.00  0.00     0.196 HD
ENDBRANCH   4  18
TORSDOF 5
