REMARK  6 active torsions:
REMARK  status: ('A' for Active; 'I' for Inactive)
REMARK    1  A    between atoms: N_2  and  C_3 
REMARK    2  A    between atoms: N_2  and  S_21 
REMARK    3  A    between atoms: C_3  and  C_4 
REMARK       I    between atoms: C_4  and  N_6 
REMARK    4  A    between atoms: N_6  and  C_7 
REMARK    5  A    between atoms: C_7  and  C_8 
REMARK    6  A    between atoms: C_11  and  N_15 
ROOT
HETATM    1  C   UNL     1       2.738  -5.560  -2.651  1.00  0.00    -0.025 A 
HETATM    2  C   UNL     1       3.120  -5.078  -3.898  1.00  0.00     0.014 A 
HETATM    3  C   UNL     1       3.292  -5.970  -4.961  1.00  0.00     0.049 A 
HETATM    4  C   UNL     1       3.077  -7.335  -4.778  1.00  0.00     0.103 A 
HETATM    5  N   UNL     1       2.747  -7.808  -3.556  1.00  0.00    -0.352 N 
ATOM      6  HN  UNL     1       2.610  -8.808  -3.407  1.00  0.00     0.166 HD
HETATM    7  C   UNL     1       2.601  -6.933  -2.532  1.00  0.00     0.098 A 
ENDROOT
BRANCH   1   8
HETATM    8  C   UNL     1       2.414  -4.642  -1.514  1.00  0.00     0.162 C 
BRANCH   8   9
HETATM    9  N   UNL     1       3.542  -4.327  -0.671  1.00  0.00    -0.356 N 
HETATM   10  C   UNL     1       3.359  -3.430   0.360  1.00  0.00     0.232 C 
HETATM   11  O   UNL     1       2.260  -2.956   0.648  1.00  0.00    -0.272 OA
HETATM   12  H   UNL     1       4.486  -4.488  -1.021  1.00  0.00     0.162 HD
BRANCH  10  13
HETATM   13  C   UNL     1       4.614  -3.038   1.125  1.00  0.00     0.209 C 
BRANCH  13  14
HETATM   14  N   UNL     1       5.276  -1.811   0.608  1.00  0.00    -0.206 NA
HETATM   15  C   UNL     1       4.471  -0.584   0.820  1.00  0.00     0.129 C 
BRANCH  14  16
HETATM   16  S   UNL     1       5.992  -1.962  -0.921  1.00  0.00     0.207 S 
HETATM   17  O   UNL     1       6.393  -3.344  -1.083  1.00  0.00    -0.212 OA
HETATM   18  O   UNL     1       5.132  -1.325  -1.892  1.00  0.00    -0.212 OA
HETATM   19  C   UNL     1       7.467  -0.981  -0.711  1.00  0.00     0.180 C 
ENDBRANCH  14  16
ENDBRANCH  13  14
ENDBRANCH  10  13
ENDBRANCH   8   9
ENDBRANCH   1   8
BRANCH   4  20
HETATM   20  N   UNL     1       3.172  -8.232  -5.811  1.00  0.00    -0.363 N 
HETATM   21  C   UNL     1       2.355  -9.450  -5.803  1.00  0.00     0.150 C 
HETATM   22  C   UNL     1       3.229 -10.675  -6.102  1.00  0.00     0.187 C 
HETATM   23  O   UNL     1       3.989 -10.504  -7.312  1.00  0.00    -0.388 OA
HETATM   24  C   UNL     1       4.846  -9.355  -7.196  1.00  0.00     0.187 C 
HETATM   25  C   UNL     1       4.038  -8.063  -6.975  1.00  0.00     0.150 C 
ENDBRANCH   4  20
TORSDOF 6
