REMARK  7 active torsions:
REMARK  status: ('A' for Active; 'I' for Inactive)
REMARK    1  A    between atoms: N_6  and  C_7 
REMARK    2  A    between atoms: C_7  and  C_8 
REMARK    3  A    between atoms: C_8  and  O_9 
REMARK    4  A    between atoms: C_8  and  C_10 
REMARK    5  A    between atoms: C_10  and  O_11 
REMARK    6  A    between atoms: O_11  and  C_12 
REMARK    7  A    between atoms: C_12  and  C_13 
ROOT
HETATM    1  C   UNL     1       7.402  -1.278   0.047  1.00  0.00     0.160 C 
ENDROOT
BRANCH   1   2
HETATM    2  C   UNL     1       6.734   0.112   0.108  1.00  0.00     0.166 C 
BRANCH   2   3
HETATM    3  N   UNL     1       5.278   0.054   0.040  1.00  0.00    -0.307 N 
HETATM    4  C   UNL     1       4.537  -0.027   1.190  1.00  0.00     0.186 A 
HETATM    5  N   UNL     1       3.250  -0.054   1.240  1.00  0.00    -0.355 N 
HETATM    6  C   UNL     1       2.574  -0.001   0.045  1.00  0.00     0.017 A 
ATOM      7  HN  UNL     1       2.754  -0.112   2.129  1.00  0.00     0.166 HD
HETATM    8  C   UNL     1       1.070  -0.004   0.186  1.00  0.00     0.069 C 
HETATM    9  C   UNL     1       3.170   0.051  -1.159  1.00  0.00     0.028 A 
HETATM   10  C   UNL     1       4.659   0.053  -1.192  1.00  0.00     0.256 A 
HETATM   11  C   UNL     1       2.437   0.117  -2.463  1.00  0.00     0.056 C 
HETATM   12  O   UNL     1       5.283   0.053  -2.253  1.00  0.00    -0.267 OA
ENDBRANCH   2   3
ENDBRANCH   1   2
BRANCH   1  13
HETATM   13  O   UNL     1       7.080  -1.990  -1.151  1.00  0.00    -0.392 OA
HETATM   14  H   UNL     1       6.942  -1.345  -1.873  1.00  0.00     0.210 HD
ENDBRANCH   1  13
BRANCH   1  15
HETATM   15  C   UNL     1       8.927  -1.146   0.135  1.00  0.00     0.201 C 
BRANCH  15  16
HETATM   16  O   UNL     1       9.277  -0.475   1.340  1.00  0.00    -0.384 OA
BRANCH  16  17
HETATM   17  C   UNL     1      10.687  -0.304   1.472  1.00  0.00     0.206 C 
BRANCH  17  18
HETATM   18  C   UNL     1      10.939   0.394   2.782  1.00  0.00    -0.035 A 
HETATM   19  C   UNL     1      10.529  -0.202   3.986  1.00  0.00     0.011 A 
HETATM   20  C   UNL     1      10.731   0.444   5.206  1.00  0.00     0.024 A 
HETATM   21  C   UNL     1      11.349   1.692   5.230  1.00  0.00     0.034 A 
HETATM   22 CL   UNL     1      11.586   2.499   6.731  1.00  0.00    -0.084 Cl
HETATM   23  C   UNL     1      11.771   2.294   4.046  1.00  0.00     0.024 A 
HETATM   24  C   UNL     1      11.567   1.647   2.825  1.00  0.00     0.011 A 
ENDBRANCH  17  18
ENDBRANCH  16  17
ENDBRANCH  15  16
ENDBRANCH   1  15
TORSDOF 7
