REMARK  6 active torsions:
REMARK  status: ('A' for Active; 'I' for Inactive)
REMARK    1  A    between atoms: O_2  and  C_3 
REMARK    2  A    between atoms: C_3  and  C_4 
REMARK    3  A    between atoms: C_4  and  N_5 
REMARK    4  A    between atoms: C_6  and  C_19 
REMARK    5  A    between atoms: C_11  and  S_15 
REMARK    6  A    between atoms: S_15  and  N_18 
ROOT
HETATM    1  N   UNL     1       4.949  -2.224  -1.309  1.00  0.00    -0.329 N 
HETATM    2  C   UNL     1       5.685  -2.209  -2.487  1.00  0.00     0.119 A 
HETATM    3  N   UNL     1       5.808  -3.449  -2.939  1.00  0.00    -0.340 N 
ATOM      4  HN  UNL     1       6.295  -3.737  -3.787  1.00  0.00     0.167 HD
HETATM    5  C   UNL     1       5.161  -4.270  -2.058  1.00  0.00     0.062 A 
HETATM    6  C   UNL     1       4.982  -5.660  -2.099  1.00  0.00     0.056 A 
HETATM    7  C   UNL     1       4.270  -6.261  -1.053  1.00  0.00     0.076 A 
HETATM    8  C   UNL     1       3.732  -5.510  -0.004  1.00  0.00     0.027 A 
HETATM    9  C   UNL     1       3.904  -4.126   0.038  1.00  0.00     0.033 A 
HETATM   10  C   UNL     1       4.624  -3.535  -1.010  1.00  0.00     0.063 A 
ENDROOT
BRANCH   2  11
HETATM   11  C   UNL     1       6.177  -1.038  -3.239  1.00  0.00     0.011 A 
HETATM   12  C   UNL     1       6.599   0.162  -2.647  1.00  0.00     0.015 A 
HETATM   13  C   UNL     1       7.008   1.253  -3.426  1.00  0.00     0.004 A 
HETATM   14  C   UNL     1       7.040   1.146  -4.813  1.00  0.00     0.042 A 
HETATM   15  C   UNL     1       6.670  -0.052  -5.406  1.00  0.00     0.117 A 
HETATM   16  F   UNL     1       6.722  -0.167  -6.740  1.00  0.00    -0.206 F 
HETATM   17  C   UNL     1       6.244  -1.132  -4.639  1.00  0.00     0.057 A 
ENDBRANCH   2  11
BRANCH   1  18
HETATM   18  C   UNL     1       4.451  -1.097  -0.548  1.00  0.00     0.157 C 
BRANCH  18  19
HETATM   19  C   UNL     1       3.375  -0.311  -1.282  1.00  0.00     0.187 C 
BRANCH  19  20
HETATM   20  O   UNL     1       2.889   0.709  -0.409  1.00  0.00    -0.394 OA
HETATM   21  C   UNL     1       1.898   1.504  -1.048  1.00  0.00     0.201 C 
ENDBRANCH  19  20
ENDBRANCH  18  19
ENDBRANCH   1  18
BRANCH   7  22
HETATM   22  S   UNL     1       4.029  -8.009  -1.061  1.00  0.00     0.239 S 
HETATM   23  O   UNL     1       2.873  -8.333  -0.259  1.00  0.00    -0.206 OA
HETATM   24  O   UNL     1       4.209  -8.517  -2.400  1.00  0.00    -0.206 OA
BRANCH  22  25
HETATM   25  N   UNL     1       5.361  -8.522  -0.181  1.00  0.00    -0.225 NA
HETATM   26  H   UNL     1       5.060  -8.975   0.682  1.00  0.00     0.136 HD
HETATM   27  H   UNL     1       5.970  -9.092  -0.767  1.00  0.00     0.136 HD
ENDBRANCH  22  25
ENDBRANCH   7  22
TORSDOF 6
