REMARK  5 active torsions:
REMARK  status: ('A' for Active; 'I' for Inactive)
REMARK    1  A    between atoms: C_5  and  C_6 
REMARK    2  A    between atoms: C_6  and  C_7 
REMARK    3  A    between atoms: C_12  and  N_13 
REMARK       I    between atoms: N_13  and  C_14 
REMARK       I    between atoms: C_14  and  N_16 
REMARK    4  A    between atoms: N_16  and  C_17 
REMARK    5  A    between atoms: C_17  and  C_18 
ROOT
HETATM    1  C   UNL     1       0.913  -0.120  -0.081  1.00  0.00     0.179 C 
HETATM    2  N   UNL     1       2.355  -0.184  -0.116  1.00  0.00    -0.281 N 
HETATM    3  N   UNL     1       3.055   0.967  -0.119  1.00  0.00    -0.301 N 
ATOM      4  HN  UNL     1       2.693   1.920  -0.154  1.00  0.00     0.187 HD
HETATM    5  C   UNL     1       4.332   0.575  -0.065  1.00  0.00     0.030 A 
HETATM    6  C   UNL     1       4.438  -0.830  -0.082  1.00  0.00     0.076 A 
HETATM    7  C   UNL     1       3.147  -1.307  -0.060  1.00  0.00     0.127 A 
ENDROOT
BRANCH   7   8
HETATM    8  N   UNL     1       2.742  -2.642   0.002  1.00  0.00    -0.293 N 
HETATM    9  C   UNL     1       3.642  -3.676   0.378  1.00  0.00     0.321 C 
HETATM   10  O   UNL     1       4.785  -3.455   0.741  1.00  0.00    -0.247 OA
HETATM   11  N   UNL     1       3.064  -4.904   0.302  1.00  0.00    -0.340 N 
HETATM   12  H   UNL     1       2.145  -5.058  -0.086  1.00  0.00     0.164 HD
HETATM   13  H   UNL     1       1.774  -2.867  -0.164  1.00  0.00     0.172 HD
BRANCH  11  14
HETATM   14  C   UNL     1       3.841  -6.090   0.639  1.00  0.00     0.156 C 
BRANCH  14  15
HETATM   15  C   UNL     1       4.080  -7.014  -0.553  1.00  0.00     0.139 C 
HETATM   16  C   UNL     1       4.779  -6.395  -1.754  1.00  0.00     0.035 C 
HETATM   17  C   UNL     1       4.219  -7.164  -2.938  1.00  0.00     0.029 C 
HETATM   18  C   UNL     1       3.149  -8.062  -2.348  1.00  0.00     0.168 C 
HETATM   19  O   UNL     1       2.827  -7.490  -1.073  1.00  0.00    -0.384 OA
ENDBRANCH  14  15
ENDBRANCH  11  14
ENDBRANCH   7   8
BRANCH   5  20
HETATM   20  C   UNL     1       5.460   1.558  -0.013  1.00  0.00     0.067 C 
BRANCH  20  21
HETATM   21  C   UNL     1       5.958   1.923   1.413  1.00  0.00    -0.046 C 
HETATM   22  C   UNL     1       6.494   0.690   2.165  1.00  0.00     0.015 C 
HETATM   23  C   UNL     1       7.108   2.940   1.271  1.00  0.00     0.015 C 
HETATM   24  C   UNL     1       4.841   2.572   2.248  1.00  0.00     0.015 C 
ENDBRANCH  20  21
ENDBRANCH   5  20
TORSDOF 5
