REMARK  6 active torsions:
REMARK  status: ('A' for Active; 'I' for Inactive)
REMARK    1  A    between atoms: N_2  and  C_3 
REMARK       I    between atoms: N_2  and  C_11 
REMARK    2  A    between atoms: C_3  and  C_4 
REMARK    3  A    between atoms: C_9  and  O_10 
REMARK       I    between atoms: C_11  and  N_13 
REMARK    4  A    between atoms: N_13  and  C_14 
REMARK    5  A    between atoms: C_14  and  C_15 
REMARK    6  A    between atoms: C_15  and  C_16 
ROOT
HETATM    1  C   UNL     1       1.479   0.696   0.876  1.00  0.00     0.154 C 
HETATM    2  N   UNL     1       2.895   0.429   0.643  1.00  0.00    -0.338 N 
HETATM    3  C   UNL     1       3.655   1.576   0.480  1.00  0.00     0.317 C 
HETATM    4  O   UNL     1       3.190   2.706   0.641  1.00  0.00    -0.247 OA
HETATM    5  N   UNL     1       4.937   1.390   0.076  1.00  0.00    -0.343 N 
HETATM    6  H   UNL     1       5.405   0.621   0.534  1.00  0.00     0.164 HD
ENDROOT
BRANCH   2   7
HETATM    7  C   UNL     1       3.330  -0.962   0.339  1.00  0.00     0.134 C 
BRANCH   7   8
HETATM    8  C   UNL     1       3.684  -1.827   1.590  1.00  0.00     0.032 C 
HETATM    9  C   UNL     1       4.356  -3.181   1.255  1.00  0.00     0.009 C 
HETATM   10  C   UNL     1       3.421  -4.248   0.671  1.00  0.00     0.001 C 
HETATM   11  C   UNL     1       2.052  -4.351   1.350  1.00  0.00     0.002 C 
HETATM   12  C   UNL     1       1.456  -3.001   1.727  1.00  0.00     0.032 C 
HETATM   13  C   UNL     1       2.482  -2.166   2.489  1.00  0.00     0.123 C 
BRANCH  13  14
HETATM   14  O   UNL     1       1.874  -1.014   3.045  1.00  0.00    -0.395 OA
HETATM   15  H   UNL     1       2.536  -0.298   3.038  1.00  0.00     0.210 HD
ENDBRANCH  13  14
ENDBRANCH   7   8
ENDBRANCH   2   7
BRANCH   5  16
HETATM   16  C   UNL     1       5.716   2.562  -0.231  1.00  0.00     0.129 C 
BRANCH  16  17
HETATM   17  C   UNL     1       7.117   2.204  -0.725  1.00  0.00     0.060 C 
BRANCH  17  18
HETATM   18  C   UNL     1       7.864   3.460  -1.040  1.00  0.00    -0.041 A 
HETATM   19  C   UNL     1       8.518   4.181  -0.038  1.00  0.00     0.010 A 
HETATM   20  C   UNL     1       9.085   5.415  -0.338  1.00  0.00     0.025 A 
HETATM   21  C   UNL     1       8.993   5.897  -1.638  1.00  0.00     0.005 A 
HETATM   22  C   UNL     1       9.533   7.248  -1.994  1.00  0.00     0.068 C 
HETATM   23  N   UNL     1       8.383   5.208  -2.631  1.00  0.00    -0.369 N 
HETATM   24  C   UNL     1       7.830   4.020  -2.313  1.00  0.00     0.095 A 
ATOM     25  HN  UNL     1       8.343   5.573  -3.583  1.00  0.00     0.165 HD
ENDBRANCH  17  18
ENDBRANCH  16  17
ENDBRANCH   5  16
TORSDOF 6
