REMARK  4 active torsions:
REMARK  status: ('A' for Active; 'I' for Inactive)
REMARK    1  A    between atoms: C_2  and  C_3 
REMARK    2  A    between atoms: C_2  and  C_14 
REMARK    3  A    between atoms: C_3  and  N_4 
REMARK    4  A    between atoms: N_4  and  C_5 
ROOT
HETATM    1  C   UNL     1       2.987  -1.205   0.562  1.00  0.00     0.279 C 
ENDROOT
BRANCH   1   2
HETATM    2  C   UNL     1       2.709   0.183  -0.075  1.00  0.00     0.047 C 
HETATM    3  C   UNL     1       1.227   0.577  -0.044  1.00  0.00     0.017 C 
BRANCH   2   4
HETATM    4  C   UNL     1       3.263   0.257  -1.479  1.00  0.00     0.003 A 
HETATM    5  C   UNL     1       2.936  -0.510  -2.641  1.00  0.00     0.038 A 
HETATM    6  C   UNL     1       1.952  -1.602  -2.832  1.00  0.00     0.071 C 
HETATM    7  N   UNL     1       3.676  -0.142  -3.694  1.00  0.00    -0.265 N 
HETATM    8  O   UNL     1       4.487   0.877  -3.252  1.00  0.00    -0.242 OA
ATOM      9  HN  UNL     1       3.645  -0.537  -4.634  1.00  0.00     0.194 HD
HETATM   10  C   UNL     1       4.241   1.120  -1.940  1.00  0.00     0.081 A 
HETATM   11  C   UNL     1       5.038   2.200  -1.328  1.00  0.00     0.079 C 
ENDBRANCH   2   4
ENDBRANCH   1   2
BRANCH   1  12
HETATM   12  N   UNL     1       2.586  -1.318   1.975  1.00  0.00     0.091 N 
HETATM   13  H   UNL     1       1.583  -1.154   2.058  1.00  0.00     0.316 HD
BRANCH  12  14
HETATM   14  C   UNL     1       2.910  -2.642   2.537  1.00  0.00     0.256 C 
HETATM   15  C   UNL     1       2.215  -3.814   1.847  1.00  0.00     0.076 C 
HETATM   16  C   UNL     1       2.212  -4.925   2.902  1.00  0.00     0.057 C 
HETATM   17  C   UNL     1       0.837  -5.590   3.017  1.00  0.00     0.045 C 
HETATM   18  C   UNL     1       3.261  -5.999   2.606  1.00  0.00     0.045 C 
HETATM   19  O   UNL     1       2.532  -4.315   4.167  1.00  0.00    -0.368 OA
HETATM   20  C   UNL     1       2.527  -2.876   4.017  1.00  0.00     0.085 C 
HETATM   21  C   UNL     1       3.548  -2.279   4.985  1.00  0.00     0.048 C 
HETATM   22  C   UNL     1       1.126  -2.377   4.401  1.00  0.00     0.048 C 
ENDBRANCH  12  14
ENDBRANCH   1  12
TORSDOF 4
