REMARK  6 active torsions:
REMARK  status: ('A' for Active; 'I' for Inactive)
REMARK    1  A    between atoms: C_2  and  C_3 
REMARK    2  A    between atoms: C_3  and  C_4 
REMARK    3  A    between atoms: C_7  and  N_10 
REMARK    4  A    between atoms: N_10  and  C_11 
REMARK    5  A    between atoms: C_11  and  C_12 
REMARK    6  A    between atoms: C_12  and  C_13 
ROOT
HETATM    1  N   UNL     1       6.765   0.581  -2.590  1.00  0.00     0.088 N 
HETATM    2  H   UNL     1       7.126   0.825  -1.668  1.00  0.00     0.316 HD
ENDROOT
BRANCH   1   3
HETATM    3  C   UNL     1       5.290   0.530  -2.551  1.00  0.00     0.220 C 
HETATM    4  C   UNL     1       4.745   1.922  -2.169  1.00  0.00     0.036 C 
HETATM    5  C   UNL     1       4.963   2.281  -0.692  1.00  0.00     0.007 C 
HETATM    6  C   UNL     1       4.450   1.199   0.280  1.00  0.00    -0.014 C 
HETATM    7  C   UNL     1       5.028  -0.169  -0.117  1.00  0.00     0.007 C 
HETATM    8  C   UNL     1       4.721  -0.516  -1.573  1.00  0.00     0.036 C 
BRANCH   6   9
HETATM    9  C   UNL     1       2.905   1.228   0.357  1.00  0.00     0.004 C 
BRANCH   9  10
HETATM   10  C   UNL     1       2.302   0.162   1.277  1.00  0.00    -0.004 C 
HETATM   11  C   UNL     1       0.789   0.295   1.358  1.00  0.00     0.005 C 
ENDBRANCH   9  10
ENDBRANCH   6   9
ENDBRANCH   1   3
BRANCH   1  12
HETATM   12  C   UNL     1       7.368  -0.684  -3.027  1.00  0.00     0.277 C 
BRANCH  12  13
HETATM   13  C   UNL     1       8.900  -0.605  -3.033  1.00  0.00     0.108 C 
BRANCH  13  14
HETATM   14  C   UNL     1       9.483  -1.917  -3.419  1.00  0.00     0.098 A 
HETATM   15  N   UNL     1       9.703  -2.954  -2.639  1.00  0.00    -0.288 N 
HETATM   16  N   UNL     1      10.219  -3.965  -3.411  1.00  0.00    -0.295 N 
ATOM     17  HN  UNL     1       9.522  -2.999  -1.636  1.00  0.00     0.188 HD
HETATM   18  C   UNL     1      10.302  -3.524  -4.644  1.00  0.00     0.198 A 
ATOM     19  HN  UNL     1      10.489  -4.893  -3.085  1.00  0.00     0.187 HD
HETATM   20  N   UNL     1       9.851  -2.241  -4.698  1.00  0.00    -0.340 N 
HETATM   21  H   UNL     1       9.788  -1.651  -5.514  1.00  0.00     0.168 HD
ENDBRANCH  13  14
ENDBRANCH  12  13
ENDBRANCH   1  12
TORSDOF 6
