REMARK  6 active torsions:
REMARK  status: ('A' for Active; 'I' for Inactive)
REMARK    1  A    between atoms: C_2  and  C_3 
REMARK       I    between atoms: C_2  and  N_19 
REMARK    2  A    between atoms: C_3  and  N_4 
REMARK    3  A    between atoms: C_7  and  C_8 
REMARK    4  A    between atoms: C_8  and  N_9 
REMARK    5  A    between atoms: N_13  and  C_14 
REMARK    6  A    between atoms: N_19  and  C_20 
ROOT
HETATM    1  C   UNL     1       6.294  -1.322  -2.504  1.00  0.00     0.216 C 
HETATM    2  C   UNL     1       6.497  -2.796  -2.814  1.00  0.00    -0.098 C 
HETATM    3  C   UNL     1       6.671  -4.060  -3.080  1.00  0.00     0.014 C 
ENDROOT
BRANCH   1   4
HETATM    4  N   UNL     1       4.958  -1.101  -1.995  1.00  0.00    -0.349 N 
HETATM    5  C   UNL     1       4.526   0.176  -1.714  1.00  0.00     0.236 C 
HETATM    6  O   UNL     1       5.226   1.165  -1.921  1.00  0.00    -0.272 OA
HETATM    7  H   UNL     1       4.281  -1.858  -2.039  1.00  0.00     0.163 HD
BRANCH   5   8
HETATM    8  C   UNL     1       3.094   0.283  -1.192  1.00  0.00     0.239 C 
BRANCH   8   9
HETATM    9  N   UNL     1       2.159   0.522  -2.286  1.00  0.00    -0.256 N 
HETATM   10  C   UNL     1       1.854   1.838  -2.613  1.00  0.00     0.273 A 
HETATM   11  O   UNL     1       2.290   2.811  -2.006  1.00  0.00    -0.266 OA
HETATM   12  C   UNL     1       0.916   2.027  -3.741  1.00  0.00     0.110 A 
HETATM   13  C   UNL     1       0.322   0.957  -4.272  1.00  0.00     0.123 A 
HETATM   14  N   UNL     1       0.593  -0.323  -3.840  1.00  0.00    -0.303 N 
HETATM   15  C   UNL     1       1.588  -0.598  -2.892  1.00  0.00     0.332 A 
HETATM   16  O   UNL     1       1.939  -1.743  -2.596  1.00  0.00    -0.246 OA
BRANCH  12  17
HETATM   17  C   UNL     1       0.613   3.431  -4.238  1.00  0.00    -0.030 C 
BRANCH  17  18
HETATM   18  N   UNL     1       0.361   4.596  -4.651  1.00  0.00    -0.365 N 
ATOM     19  HN2 UNL     1       0.543   3.643  -4.338  1.00  0.00     0.165 HD
ATOM     20  HN1 UNL     1       0.158   5.538  -4.985  1.00  0.00     0.165 HD
ENDBRANCH  17  18
ENDBRANCH  12  17
BRANCH  14  21
HETATM   21  C   UNL     1      -0.128  -1.403  -4.480  1.00  0.00     0.094 A 
HETATM   22  C   UNL     1      -1.639  -1.475  -4.437  1.00  0.00     0.028 A 
HETATM   23  C   UNL     1      -0.826  -2.482  -3.689  1.00  0.00     0.028 A 
ENDBRANCH  14  21
ENDBRANCH   8   9
ENDBRANCH   5   8
ENDBRANCH   1   4
TORSDOF 6
