REMARK  5 active torsions:
REMARK  status: ('A' for Active; 'I' for Inactive)
REMARK       I    between atoms: N_1  and  C_2 
REMARK    1  A    between atoms: C_2  and  C_4 
REMARK    2  A    between atoms: C_4  and  N_5 
REMARK    3  A    between atoms: C_7  and  N_8 
REMARK       I    between atoms: N_8  and  C_9 
REMARK       I    between atoms: C_9  and  N_11 
REMARK    4  A    between atoms: N_11  and  C_12 
REMARK    5  A    between atoms: C_15  and  O_16 
ROOT
HETATM    1  N   UNL     1       7.249   2.868   0.975  1.00  0.00    -0.208 NA
HETATM    2  C   UNL     1       7.971   3.633   0.070  1.00  0.00     0.299 C 
HETATM    3  O   UNL     1       7.574   4.019  -1.021  1.00  0.00    -0.254 OA
HETATM    4  N   UNL     1       9.240   3.902   0.561  1.00  0.00    -0.343 N 
HETATM    5  H   UNL     1       7.863   2.248   1.476  1.00  0.00     0.138 HD
HETATM    6  H   UNL     1       9.434   3.654   1.519  1.00  0.00     0.164 HD
ENDROOT
BRANCH   1   7
HETATM    7  C   UNL     1       6.087   2.250   0.543  1.00  0.00     0.050 A 
HETATM    8  C   UNL     1       6.006   0.914   0.241  1.00  0.00     0.136 A 
HETATM    9  N   UNL     1       4.725   0.699  -0.185  1.00  0.00    -0.293 N 
HETATM   10  N   UNL     1       3.935   1.792  -0.061  1.00  0.00    -0.308 N 
HETATM   11  C   UNL     1       4.784   2.749   0.342  1.00  0.00     0.132 A 
ATOM     12  HN  UNL     1       2.933   1.869  -0.233  1.00  0.00     0.186 HD
BRANCH   9  13
HETATM   13  C   UNL     1       4.181  -0.561  -0.667  1.00  0.00     0.250 C 
BRANCH  13  14
HETATM   14  C   UNL     1       3.642  -0.497  -2.079  1.00  0.00     0.235 C 
HETATM   15  N   UNL     1       2.890   0.588  -2.422  1.00  0.00    -0.369 N 
HETATM   16  H   UNL     1       2.580   0.676  -3.378  1.00  0.00     0.159 HD
HETATM   17  H   UNL     1       2.913   1.421  -1.832  1.00  0.00     0.159 HD
HETATM   18  O   UNL     1       3.789  -1.425  -2.875  1.00  0.00    -0.272 OA
ENDBRANCH  13  14
ENDBRANCH   9  13
ENDBRANCH   1   7
BRANCH   4  19
HETATM   19  C   UNL     1      10.115   4.870  -0.093  1.00  0.00     0.085 C 
HETATM   20  C   UNL     1      10.921   4.258  -1.254  1.00  0.00     0.028 C 
HETATM   21  C   UNL     1      12.268   3.624  -0.881  1.00  0.00     0.034 C 
HETATM   22  C   UNL     1      13.073   4.424   0.139  1.00  0.00     0.118 C 
HETATM   23  C   UNL     1      12.217   4.780   1.351  1.00  0.00     0.034 C 
HETATM   24  C   UNL     1      10.988   5.586   0.953  1.00  0.00     0.028 C 
BRANCH  22  25
HETATM   25  O   UNL     1      13.612   5.605  -0.449  1.00  0.00    -0.396 OA
HETATM   26  H   UNL     1      12.910   6.081  -0.921  1.00  0.00     0.210 HD
ENDBRANCH  22  25
ENDBRANCH   4  19
TORSDOF 5
