REMARK  5 active torsions:
REMARK  status: ('A' for Active; 'I' for Inactive)
REMARK    1  A    between atoms: N_4  and  C_5 
REMARK    2  A    between atoms: C_5  and  C_6 
REMARK    3  A    between atoms: C_6  and  O_7 
REMARK    4  A    between atoms: C_6  and  C_8 
REMARK    5  A    between atoms: C_8  and  N_9 
ROOT
HETATM    1  C   UNL     1       2.796   3.033  -2.988  1.00  0.00     0.164 C 
ENDROOT
BRANCH   1   2
HETATM    2  C   UNL     1       3.261   1.585  -3.300  1.00  0.00     0.305 C 
BRANCH   2   3
HETATM    3  N   UNL     1       2.739   0.582  -2.341  1.00  0.00     0.096 N 
HETATM    4  C   UNL     1       3.268  -0.770  -2.642  1.00  0.00     0.303 C 
HETATM    5  C   UNL     1       2.691  -1.859  -1.705  1.00  0.00     0.146 C 
HETATM    6  C   UNL     1       3.206  -1.753  -0.270  1.00  0.00     0.041 C 
HETATM    7  O   UNL     1       1.252  -1.867  -1.744  1.00  0.00    -0.378 OA
HETATM    8  C   UNL     1       0.694  -0.578  -1.448  1.00  0.00     0.146 C 
HETATM    9  C   UNL     1       1.257   0.503  -2.392  1.00  0.00     0.303 C 
HETATM   10  C   UNL     1      -0.820  -0.674  -1.600  1.00  0.00     0.041 C 
ENDBRANCH   2   3
ENDBRANCH   1   2
BRANCH   1  11
HETATM   11  O   UNL     1       3.225   3.445  -1.681  1.00  0.00    -0.392 OA
HETATM   12  H   UNL     1       3.891   2.807  -1.370  1.00  0.00     0.210 HD
ENDBRANCH   1  11
BRANCH   1  13
HETATM   13  C   UNL     1       3.337   4.052  -4.009  1.00  0.00     0.166 C 
BRANCH  13  14
HETATM   14  N   UNL     1       2.812   5.394  -3.752  1.00  0.00    -0.307 N 
HETATM   15  C   UNL     1       3.635   6.401  -3.333  1.00  0.00     0.186 C 
HETATM   16  N   UNL     1       3.250   7.594  -3.036  1.00  0.00    -0.355 N 
HETATM   17  C   UNL     1       1.904   7.852  -3.053  1.00  0.00     0.017 C 
ATOM     18  HN  UNL     1       3.924   8.321  -2.796  1.00  0.00     0.166 HD
HETATM   19  C   UNL     1       1.527   9.238  -2.591  1.00  0.00     0.069 C 
HETATM   20  C   UNL     1       0.976   6.954  -3.435  1.00  0.00     0.028 C 
HETATM   21  C   UNL     1      -0.508   7.127  -3.392  1.00  0.00     0.056 C 
HETATM   22  C   UNL     1       1.463   5.630  -3.912  1.00  0.00     0.256 C 
HETATM   23  O   UNL     1       0.685   4.818  -4.406  1.00  0.00    -0.267 OA
ENDBRANCH  13  14
ENDBRANCH   1  13
TORSDOF 5
