REMARK  5 active torsions:
REMARK  status: ('A' for Active; 'I' for Inactive)
REMARK    1  A    between atoms: O_2  and  C_3 
REMARK    2  A    between atoms: C_3  and  C_4 
REMARK    3  A    between atoms: C_4  and  O_5 
REMARK    4  A    between atoms: O_5  and  C_6 
REMARK    5  A    between atoms: C_9  and  N_10 
REMARK       I    between atoms: N_10  and  C_11 
REMARK       I    between atoms: C_11  and  N_13 
ROOT
HETATM    1  N   UNL     1      10.427   3.366   0.294  1.00  0.00    -0.307 N 
HETATM    2  C   UNL     1      11.400   2.398   0.163  1.00  0.00     0.323 C 
HETATM    3  O   UNL     1      11.170   1.203   0.343  1.00  0.00    -0.247 OA
HETATM    4  N   UNL     1      12.665   2.805  -0.271  1.00  0.00    -0.329 N 
HETATM    5  C   UNL     1      13.611   1.678  -0.430  1.00  0.00     0.128 C 
HETATM    6  C   UNL     1      14.639   1.906  -1.536  1.00  0.00     0.020 C 
HETATM    7  C   UNL     1      15.368   3.232  -1.357  1.00  0.00     0.008 C 
HETATM    8  C   UNL     1      14.333   4.337  -1.223  1.00  0.00     0.009 C 
HETATM    9  C   UNL     1      14.902   5.718  -0.941  1.00  0.00     0.007 C 
HETATM   10  C   UNL     1      13.754   6.469  -0.265  1.00  0.00     0.002 C 
HETATM   11  C   UNL     1      12.651   5.431   0.010  1.00  0.00     0.026 C 
HETATM   12  C   UNL     1      13.364   4.083  -0.053  1.00  0.00     0.093 C 
HETATM   13  H   UNL     1      10.599   4.236  -0.175  1.00  0.00     0.170 HD
ENDROOT
BRANCH   1  14
HETATM   14  C   UNL     1       9.075   3.111   0.666  1.00  0.00     0.051 A 
HETATM   15  C   UNL     1       8.648   1.927   1.268  1.00  0.00     0.035 A 
HETATM   16  C   UNL     1       7.302   1.736   1.575  1.00  0.00     0.058 A 
HETATM   17  C   UNL     1       6.406   2.742   1.273  1.00  0.00     0.141 A 
HETATM   18  N   UNL     1       6.761   3.915   0.709  1.00  0.00    -0.345 N 
HETATM   19  C   UNL     1       8.086   4.068   0.429  1.00  0.00     0.119 A 
ATOM     20  HN  UNL     1       6.078   4.644   0.504  1.00  0.00     0.167 HD
BRANCH  17  21
HETATM   21  O   UNL     1       5.104   2.513   1.669  1.00  0.00    -0.334 OA
BRANCH  21  22
HETATM   22  C   UNL     1       4.135   3.253   0.929  1.00  0.00     0.203 C 
BRANCH  22  23
HETATM   23  C   UNL     1       2.757   2.886   1.481  1.00  0.00     0.193 C 
BRANCH  23  24
HETATM   24  O   UNL     1       1.736   3.551   0.738  1.00  0.00    -0.394 OA
HETATM   25  C   UNL     1       0.441   3.244   1.239  1.00  0.00     0.201 C 
ENDBRANCH  23  24
ENDBRANCH  22  23
ENDBRANCH  21  22
ENDBRANCH  17  21
ENDBRANCH   1  14
TORSDOF 5
