REMARK  5 active torsions:
REMARK  status: ('A' for Active; 'I' for Inactive)
REMARK    1  A    between atoms: C_2  and  N_3 
REMARK    2  A    between atoms: C_2  and  C_14 
REMARK    3  A    between atoms: N_3  and  C_4 
REMARK    4  A    between atoms: C_4  and  C_6 
REMARK       I    between atoms: C_6  and  N_8 
REMARK    5  A    between atoms: C_14  and  N_16 
ROOT
HETATM    1  N   UNL     1       2.306   1.254   0.820  1.00  0.00     0.103 N 
HETATM    2  H   UNL     1       3.147   1.279   1.404  1.00  0.00     0.317 HD
ENDROOT
BRANCH   1   3
HETATM    3  C   UNL     1       2.277   0.009   0.018  1.00  0.00     0.241 C 
HETATM    4  C   UNL     1       3.401  -0.000  -1.033  1.00  0.00     0.045 C 
BRANCH   3   5
HETATM    5  C   UNL     1       0.882  -0.384  -0.573  1.00  0.00     0.136 C 
HETATM    6  C   UNL     1       0.863  -1.752  -1.262  1.00  0.00     0.036 C 
BRANCH   5   7
HETATM    7  N   UNL     1      -0.219  -0.314   0.391  1.00  0.00    -0.297 N 
HETATM    8  C   UNL     1      -0.217  -0.628   1.724  1.00  0.00     0.118 A 
HETATM    9  C   UNL     1      -1.473  -0.323   2.204  1.00  0.00    -0.028 A 
HETATM   10  C   UNL     1      -1.977  -0.414   3.591  1.00  0.00     0.051 C 
HETATM   11  C   UNL     1      -2.178   0.111   1.061  1.00  0.00     0.115 A 
HETATM   12  N   UNL     1      -1.438   0.079  -0.047  1.00  0.00    -0.309 N 
ATOM     13  HN  UNL     1      -1.723   0.299  -1.001  1.00  0.00     0.186 HD
ENDBRANCH   5   7
ENDBRANCH   3   5
ENDBRANCH   1   3
BRANCH   1  14
HETATM   14  C   UNL     1       2.200   2.552   0.113  1.00  0.00     0.308 C 
HETATM   15  C   UNL     1       0.836   2.814  -0.523  1.00  0.00     0.053 C 
BRANCH  14  16
HETATM   16  C   UNL     1       2.464   3.732   1.094  1.00  0.00     0.253 C 
HETATM   17  O   UNL     1       2.330   3.602   2.315  1.00  0.00    -0.271 OA
HETATM   18  N   UNL     1       2.829   4.953   0.531  1.00  0.00    -0.346 N 
HETATM   19  C   UNL     1       3.149   5.222  -0.877  1.00  0.00     0.152 C 
HETATM   20  C   UNL     1       2.833   6.158   1.366  1.00  0.00     0.152 C 
HETATM   21  C   UNL     1       4.456   6.017  -0.974  1.00  0.00     0.187 C 
HETATM   22  O   UNL     1       4.377   7.227  -0.210  1.00  0.00    -0.388 OA
HETATM   23  C   UNL     1       4.135   6.941   1.178  1.00  0.00     0.187 C 
ENDBRANCH  14  16
ENDBRANCH   1  14
TORSDOF 5
