REMARK  5 active torsions:
REMARK  status: ('A' for Active; 'I' for Inactive)
REMARK       I    between atoms: C_2  and  N_4 
REMARK    1  A    between atoms: N_4  and  C_5 
REMARK    2  A    between atoms: C_10  and  O_11 
REMARK    3  A    between atoms: O_11  and  C_12 
REMARK    4  A    between atoms: C_12  and  C_13 
REMARK    5  A    between atoms: C_13  and  N_14 
ROOT
HETATM    1  O   UNL     1       4.717   1.258  -0.742  1.00  0.00    -0.347 OA
ENDROOT
BRANCH   1   2
HETATM    2  C   UNL     1       5.291   0.603   0.322  1.00  0.00     0.095 A 
HETATM    3  C   UNL     1       4.746   0.244   1.570  1.00  0.00     0.068 A 
HETATM    4  C   UNL     1       5.567  -0.380   2.529  1.00  0.00     0.032 A 
HETATM    5  C   UNL     1       6.907  -0.659   2.268  1.00  0.00     0.002 A 
HETATM    6  C   UNL     1       7.454  -0.294   1.048  1.00  0.00     0.003 A 
HETATM    7  C   UNL     1       6.653   0.334   0.089  1.00  0.00     0.039 A 
BRANCH   3   8
HETATM    8  N   UNL     1       3.385   0.399   1.905  1.00  0.00    -0.325 N 
HETATM    9  C   UNL     1       2.956   0.928   3.110  1.00  0.00     0.218 C 
HETATM   10  C   UNL     1       1.456   0.974   3.217  1.00  0.00     0.117 C 
HETATM   11  O   UNL     1       3.677   1.381   3.993  1.00  0.00    -0.274 OA
HETATM   12  H   UNL     1       2.701   0.322   1.171  1.00  0.00     0.169 HD
ENDBRANCH   3   8
ENDBRANCH   1   2
BRANCH   1  13
HETATM   13  C   UNL     1       3.382   1.736  -0.643  1.00  0.00     0.196 C 
BRANCH  13  14
HETATM   14  C   UNL     1       3.020   2.605  -1.850  1.00  0.00     0.161 C 
BRANCH  14  15
HETATM   15  N   UNL     1       1.634   3.017  -1.804  1.00  0.00    -0.289 N 
HETATM   16  C   UNL     1       0.557   2.215  -2.127  1.00  0.00     0.373 A 
HETATM   17  O   UNL     1       0.617   1.084  -2.580  1.00  0.00    -0.237 OA
HETATM   18  O   UNL     1      -0.658   2.846  -1.820  1.00  0.00    -0.259 OA
HETATM   19  C   UNL     1      -0.238   4.041  -1.256  1.00  0.00     0.107 A 
HETATM   20  C   UNL     1      -1.069   5.017  -0.747  1.00  0.00     0.040 A 
HETATM   21  C   UNL     1       1.138   4.168  -1.228  1.00  0.00     0.073 A 
HETATM   22  C   UNL     1      -0.466   6.159  -0.216  1.00  0.00     0.003 A 
HETATM   23  C   UNL     1       0.938   6.288  -0.193  1.00  0.00     0.002 A 
HETATM   24  C   UNL     1       1.762   5.276  -0.698  1.00  0.00     0.033 A 
ENDBRANCH  14  15
ENDBRANCH  13  14
ENDBRANCH   1  13
TORSDOF 5
