REMARK  4 active torsions:
REMARK  status: ('A' for Active; 'I' for Inactive)
REMARK       I    between atoms: C_2  and  N_3 
REMARK       I    between atoms: C_2  and  N_13 
REMARK    1  A    between atoms: N_3  and  C_4 
REMARK    2  A    between atoms: C_4  and  C_5 
REMARK    3  A    between atoms: C_5  and  C_6 
REMARK    4  A    between atoms: N_13  and  C_14 
ROOT
HETATM    1  O   UNL     1       1.074  -0.187   0.014  1.00  0.00    -0.247 OA
HETATM    2  C   UNL     1       2.289  -0.121  -0.095  1.00  0.00     0.316 C 
HETATM    3  N   UNL     1       2.972  -0.196  -1.286  1.00  0.00    -0.343 N 
HETATM    4  N   UNL     1       3.161   0.066   0.950  1.00  0.00    -0.339 N 
HETATM    5  H   UNL     1       3.837   0.322  -1.278  1.00  0.00     0.164 HD
HETATM    6  H   UNL     1       4.093  -0.285   0.793  1.00  0.00     0.164 HD
ENDROOT
BRANCH   3   7
HETATM    7  C   UNL     1       2.247  -0.218  -2.552  1.00  0.00     0.130 C 
BRANCH   7   8
HETATM    8  C   UNL     1       3.207  -0.316  -3.735  1.00  0.00     0.076 C 
BRANCH   8   9
HETATM    9  C   UNL     1       2.504  -0.391  -5.064  1.00  0.00     0.010 A 
HETATM   10  C   UNL     1       2.154  -1.622  -5.614  1.00  0.00     0.025 A 
HETATM   11  C   UNL     1       1.553  -1.653  -6.870  1.00  0.00     0.003 A 
HETATM   12  C   UNL     1       1.312  -0.460  -7.540  1.00  0.00     0.017 A 
HETATM   13  C   UNL     1       1.678   0.721  -6.918  1.00  0.00     0.088 A 
HETATM   14  N   UNL     1       2.265   0.781  -5.701  1.00  0.00    -0.369 N 
ATOM     15  HN  UNL     1       2.518   1.674  -5.279  1.00  0.00     0.165 HD
ENDBRANCH   8   9
ENDBRANCH   7   8
ENDBRANCH   3   7
BRANCH   4  16
HETATM   16  C   UNL     1       2.711   0.148   2.325  1.00  0.00     0.086 C 
HETATM   17  C   UNL     1       3.710   0.898   3.211  1.00  0.00     0.025 C 
HETATM   18  C   UNL     1       3.636   0.246   4.593  1.00  0.00     0.002 C 
HETATM   19  C   UNL     1       2.610  -0.875   4.479  1.00  0.00     0.002 C 
HETATM   20  C   UNL     1       2.585  -1.218   2.997  1.00  0.00     0.025 C 
ENDBRANCH   4  16
TORSDOF 4
