REMARK  5 active torsions:
REMARK  status: ('A' for Active; 'I' for Inactive)
REMARK    1  A    between atoms: N_1  and  C_3 
REMARK    2  A    between atoms: N_4  and  C_16 
REMARK    3  A    between atoms: C_9  and  C_19 
REMARK    4  A    between atoms: C_16  and  C_17 
REMARK    5  A    between atoms: C_17  and  O_25 
ROOT
HETATM    1  C   UNL     1       1.764   2.445  -1.528  1.00  0.00     0.122 A 
HETATM    2  C   UNL     1       0.739   2.181  -0.588  1.00  0.00     0.136 A 
HETATM    3  N   UNL     1       2.945   3.746  -2.840  1.00  0.00    -0.324 N 
HETATM    4  C   UNL     1       2.026   3.776  -1.825  1.00  0.00     0.140 A 
HETATM    5  N   UNL     1       2.562   1.622  -2.309  1.00  0.00    -0.346 N 
ATOM      6  HN  UNL     1       2.605   0.603  -2.290  1.00  0.00     0.167 HD
HETATM    7  C   UNL     1       3.252   2.435  -3.080  1.00  0.00     0.185 A 
HETATM    8  N   UNL     1       0.145   3.264  -0.016  1.00  0.00    -0.337 N 
ATOM      9  HN  UNL     1      -0.587   3.136   0.683  1.00  0.00     0.168 HD
HETATM   10  N   UNL     1       1.457   4.866  -1.283  1.00  0.00    -0.336 N 
ATOM     11  HN  UNL     1       1.695   5.828  -1.523  1.00  0.00     0.168 HD
HETATM   12  C   UNL     1       0.526   4.505  -0.376  1.00  0.00     0.183 A 
ENDROOT
BRANCH   2  13
HETATM   13  N   UNL     1       0.280   0.889  -0.308  1.00  0.00    -0.356 N 
HETATM   14  C   UNL     1      -0.767   0.348   0.516  1.00  0.00     0.124 C 
HETATM   15  C   UNL     1      -0.524  -0.986  -0.294  1.00  0.00    -0.008 C 
HETATM   16  C   UNL     1      -0.532  -2.265   0.531  1.00  0.00     0.018 C 
HETATM   17  C   UNL     1      -1.304  -1.172  -1.607  1.00  0.00     0.018 C 
HETATM   18  C   UNL     1       0.867  -0.377  -0.592  1.00  0.00     0.136 C 
BRANCH  14  19
HETATM   19  C   UNL     1      -2.155   0.980   0.416  1.00  0.00     0.145 C 
HETATM   20  O   UNL     1      -2.249   2.180   1.212  1.00  0.00    -0.384 OA
HETATM   21  C   UNL     1      -3.568   2.269   1.764  1.00  0.00     0.168 C 
HETATM   22  C   UNL     1      -4.326   1.035   1.326  1.00  0.00     0.029 C 
HETATM   23  C   UNL     1      -3.213   0.066   1.022  1.00  0.00     0.036 C 
ENDBRANCH  14  19
ENDBRANCH   2  13
BRANCH   3  24
HETATM   24  C   UNL     1       3.345   4.876  -3.656  1.00  0.00     0.171 C 
BRANCH  24  25
HETATM   25  C   UNL     1       4.600   5.616  -3.174  1.00  0.00     0.097 C 
HETATM   26  C   UNL     1       4.989   6.745  -4.116  1.00  0.00     0.068 C 
HETATM   27  C   UNL     1       6.477   6.907  -3.870  1.00  0.00     0.170 C 
HETATM   28  O   UNL     1       6.980   5.640  -3.429  1.00  0.00    -0.388 OA
HETATM   29  C   UNL     1       5.866   4.759  -3.207  1.00  0.00     0.207 C 
BRANCH  25  30
HETATM   30  O   UNL     1       4.421   6.190  -1.874  1.00  0.00    -0.386 OA
HETATM   31  H   UNL     1       3.496   6.080  -1.580  1.00  0.00     0.210 HD
ENDBRANCH  25  30
ENDBRANCH  24  25
ENDBRANCH   3  24
TORSDOF 5
