REMARK  6 active torsions:
REMARK  status: ('A' for Active; 'I' for Inactive)
REMARK    1  A    between atoms: C_2  and  O_4 
REMARK    2  A    between atoms: O_4  and  C_5 
REMARK    3  A    between atoms: C_5  and  C_6 
REMARK    4  A    between atoms: C_6  and  O_7 
REMARK    5  A    between atoms: C_6  and  C_8 
REMARK    6  A    between atoms: C_8  and  N_9 
ROOT
HETATM    1  N   UNL     1       6.946   3.945   1.124  1.00  0.00    -0.295 N 
HETATM    2  C   UNL     1       7.025   5.006   0.197  1.00  0.00     0.329 A 
HETATM    3  O   UNL     1       6.779   4.944  -0.998  1.00  0.00    -0.246 OA
HETATM    4  N   UNL     1       7.438   6.139   0.927  1.00  0.00    -0.302 N 
HETATM    5  C   UNL     1       7.618   7.456   0.394  1.00  0.00     0.161 C 
HETATM    6  C   UNL     1       7.574   5.786   2.277  1.00  0.00     0.065 A 
HETATM    7  C   UNL     1       7.924   6.555   3.366  1.00  0.00     0.032 A 
HETATM    8  C   UNL     1       7.961   5.920   4.613  1.00  0.00     0.002 A 
HETATM    9  C   UNL     1       7.647   4.551   4.739  1.00  0.00     0.002 A 
HETATM   10  C   UNL     1       7.291   3.790   3.623  1.00  0.00     0.032 A 
HETATM   11  C   UNL     1       7.264   4.431   2.400  1.00  0.00     0.066 A 
ENDROOT
BRANCH   1  12
HETATM   12  C   UNL     1       6.439   2.631   0.820  1.00  0.00     0.168 C 
BRANCH  12  13
HETATM   13  C   UNL     1       4.901   2.550   0.874  1.00  0.00     0.160 C 
BRANCH  13  14
HETATM   14  C   UNL     1       4.455   1.139   0.449  1.00  0.00     0.201 C 
BRANCH  14  15
HETATM   15  O   UNL     1       3.030   1.069   0.381  1.00  0.00    -0.384 OA
BRANCH  15  16
HETATM   16  C   UNL     1       2.522  -0.241   0.103  1.00  0.00     0.113 C 
HETATM   17  C   UNL     1       1.003  -0.170   0.226  1.00  0.00     0.039 C 
HETATM   18  C   UNL     1       2.908  -0.716  -1.295  1.00  0.00     0.039 C 
ENDBRANCH  15  16
ENDBRANCH  14  15
ENDBRANCH  13  14
BRANCH  13  19
HETATM   19  O   UNL     1       4.438   2.846   2.202  1.00  0.00    -0.392 OA
HETATM   20  H   UNL     1       4.489   2.038   2.736  1.00  0.00     0.210 HD
ENDBRANCH  13  19
ENDBRANCH  12  13
ENDBRANCH   1  12
TORSDOF 6
