REMARK  4 active torsions:
REMARK  status: ('A' for Active; 'I' for Inactive)
REMARK    1  A    between atoms: C_2  and  C_5 
REMARK    2  A    between atoms: C_5  and  N_6 
REMARK       I    between atoms: N_6  and  C_7 
REMARK       I    between atoms: C_7  and  N_9 
REMARK    3  A    between atoms: N_9  and  C_10 
REMARK    4  A    between atoms: C_13  and  N_17 
ROOT
HETATM    1  C   UNL     1       7.070   2.249   3.368  1.00  0.00     0.051 A 
HETATM    2  C   UNL     1       6.848   3.597   3.581  1.00  0.00     0.035 A 
HETATM    3  C   UNL     1       7.619   4.297   4.508  1.00  0.00     0.051 A 
HETATM    4  C   UNL     1       8.647   3.668   5.204  1.00  0.00     0.103 A 
HETATM    5  N   UNL     1       8.902   2.358   4.976  1.00  0.00    -0.350 N 
ATOM      6  HN  UNL     1       9.659   1.882   5.466  1.00  0.00     0.166 HD
HETATM    7  C   UNL     1       8.126   1.688   4.078  1.00  0.00     0.119 A 
ENDROOT
BRANCH   1   8
HETATM    8  N   UNL     1       6.283   1.466   2.493  1.00  0.00    -0.308 N 
HETATM    9  C   UNL     1       5.053   1.834   1.995  1.00  0.00     0.321 C 
HETATM   10  N   UNL     1       4.501   0.859   1.198  1.00  0.00    -0.334 N 
HETATM   11  O   UNL     1       4.431   2.856   2.246  1.00  0.00    -0.247 OA
HETATM   12  H   UNL     1       5.155   0.384   0.590  1.00  0.00     0.164 HD
HETATM   13  H   UNL     1       6.522   0.490   2.407  1.00  0.00     0.170 HD
BRANCH  10  14
HETATM   14  C   UNL     1       3.154   1.095   0.657  1.00  0.00     0.241 C 
BRANCH  14  15
HETATM   15  C   UNL     1       3.070   1.992  -0.587  1.00  0.00     0.403 C 
HETATM   16  F   UNL     1       4.292   2.274  -1.093  1.00  0.00    -0.169 F 
HETATM   17  F   UNL     1       2.433   3.155  -0.342  1.00  0.00    -0.169 F 
HETATM   18  F   UNL     1       2.380   1.353  -1.566  1.00  0.00    -0.169 F 
ENDBRANCH  14  15
ENDBRANCH  10  14
ENDBRANCH   1   8
BRANCH   4  19
HETATM   19  N   UNL     1       9.421   4.351   6.102  1.00  0.00    -0.367 N 
HETATM   20  C   UNL     1      10.534   3.717   6.791  1.00  0.00     0.124 C 
HETATM   21  C   UNL     1      11.336   4.886   7.380  1.00  0.00     0.021 C 
HETATM   22  C   UNL     1      10.771   6.134   6.717  1.00  0.00     0.021 C 
HETATM   23  C   UNL     1       9.327   5.763   6.420  1.00  0.00     0.124 C 
ENDBRANCH   4  19
TORSDOF 4
