REMARK  5 active torsions:
REMARK  status: ('A' for Active; 'I' for Inactive)
REMARK    1  A    between atoms: C_2  and  N_3 
REMARK    2  A    between atoms: C_5  and  N_6 
REMARK       I    between atoms: N_6  and  C_7 
REMARK       I    between atoms: C_7  and  N_9 
REMARK    3  A    between atoms: N_9  and  C_10 
REMARK    4  A    between atoms: C_10  and  C_11 
REMARK    5  A    between atoms: C_11  and  N_13 
ROOT
HETATM    1  N   UNL     1       2.881  -0.231   6.490  1.00  0.00    -0.306 N 
HETATM    2  C   UNL     1       3.361   0.965   6.974  1.00  0.00     0.320 C 
HETATM    3  O   UNL     1       2.755   1.759   7.685  1.00  0.00    -0.247 OA
HETATM    4  N   UNL     1       4.661   1.206   6.568  1.00  0.00    -0.341 N 
HETATM    5  H   UNL     1       3.534  -0.866   6.057  1.00  0.00     0.171 HD
HETATM    6  H   UNL     1       4.922   0.786   5.691  1.00  0.00     0.164 HD
ENDROOT
BRANCH   1   7
HETATM    7  C   UNL     1       1.595  -0.698   6.695  1.00  0.00     0.070 A 
HETATM    8  C   UNL     1       0.544  -0.052   7.305  1.00  0.00     0.141 A 
HETATM    9  N   UNL     1      -0.491  -0.937   7.335  1.00  0.00    -0.302 N 
HETATM   10  N   UNL     1      -0.219  -2.102   6.714  1.00  0.00    -0.308 N 
HETATM   11  C   UNL     1       1.053  -1.953   6.328  1.00  0.00     0.138 A 
ATOM     12  HN  UNL     1      -0.834  -2.903   6.573  1.00  0.00     0.186 HD
BRANCH   9  13
HETATM   13  C   UNL     1      -1.762  -0.739   8.006  1.00  0.00     0.143 C 
HETATM   14  C   UNL     1      -1.716  -1.225   9.445  1.00  0.00     0.028 C 
ENDBRANCH   9  13
ENDBRANCH   1   7
BRANCH   4  15
HETATM   15  C   UNL     1       5.248   2.513   6.842  1.00  0.00     0.159 C 
BRANCH  15  16
HETATM   16  C   UNL     1       5.775   2.692   8.305  1.00  0.00     0.236 C 
HETATM   17  C   UNL     1       7.011   1.781   8.449  1.00  0.00     0.044 C 
BRANCH  16  18
HETATM   18  N   UNL     1       6.104   4.119   8.603  1.00  0.00     0.098 N 
HETATM   19  C   UNL     1       6.720   4.351   9.936  1.00  0.00     0.299 C 
HETATM   20  C   UNL     1       5.755   4.239  11.134  1.00  0.00     0.198 C 
HETATM   21  O   UNL     1       4.586   5.052  10.974  1.00  0.00    -0.388 OA
HETATM   22  C   UNL     1       3.935   4.774   9.728  1.00  0.00     0.198 C 
HETATM   23  C   UNL     1       4.906   5.004   8.560  1.00  0.00     0.299 C 
ENDBRANCH  16  18
ENDBRANCH  15  16
ENDBRANCH   4  15
TORSDOF 5
