REMARK  5 active torsions:
REMARK  status: ('A' for Active; 'I' for Inactive)
REMARK    1  A    between atoms: C_2  and  N_4 
REMARK    2  A    between atoms: C_9  and  N_10 
REMARK       I    between atoms: N_10  and  C_11 
REMARK       I    between atoms: C_11  and  N_13 
REMARK    3  A    between atoms: N_13  and  C_14 
REMARK    4  A    between atoms: C_14  and  C_15 
REMARK    5  A    between atoms: C_15  and  C_16 
ROOT
HETATM    1  N   UNL     1       2.087  -3.010   0.152  1.00  0.00    -0.293 N 
HETATM    2  C   UNL     1       1.275  -2.476   1.217  1.00  0.00     0.321 C 
HETATM    3  O   UNL     1       0.721  -1.398   1.125  1.00  0.00    -0.247 OA
HETATM    4  N   UNL     1       1.198  -3.296   2.310  1.00  0.00    -0.343 N 
HETATM    5  H   UNL     1       2.408  -3.960   0.221  1.00  0.00     0.172 HD
HETATM    6  H   UNL     1       1.870  -4.034   2.458  1.00  0.00     0.164 HD
ENDROOT
BRANCH   1   7
HETATM    7  C   UNL     1       2.398  -2.254  -0.991  1.00  0.00     0.127 A 
HETATM    8  N   UNL     1       3.088  -2.639  -2.132  1.00  0.00    -0.273 N 
HETATM    9  N   UNL     1       3.184  -1.653  -3.052  1.00  0.00    -0.308 N 
HETATM   10  C   UNL     1       2.575  -0.616  -2.487  1.00  0.00     0.111 A 
ATOM     11  HN  UNL     1       3.624  -1.696  -3.971  1.00  0.00     0.186 HD
HETATM   12  C   UNL     1       2.084  -0.926  -1.213  1.00  0.00     0.069 A 
BRANCH   8  13
HETATM   13  C   UNL     1       3.697  -3.916  -2.493  1.00  0.00     0.102 C 
HETATM   14  C   UNL     1       4.766  -4.365  -1.497  1.00  0.00     0.034 C 
HETATM   15  C   UNL     1       2.652  -4.982  -2.812  1.00  0.00     0.034 C 
ENDBRANCH   8  13
ENDBRANCH   1   7
BRANCH   4  16
HETATM   16  C   UNL     1       0.519  -2.730   3.468  1.00  0.00     0.128 C 
BRANCH  16  17
HETATM   17  C   UNL     1       0.356  -3.657   4.671  1.00  0.00     0.053 C 
BRANCH  17  18
HETATM   18  C   UNL     1       1.648  -4.086   5.286  1.00  0.00    -0.082 C 
HETATM   19  C   UNL     1       2.037  -5.347   5.515  1.00  0.00    -0.024 C 
HETATM   20  C   UNL     1       3.344  -5.402   6.234  1.00  0.00     0.027 C 
HETATM   21  C   UNL     1       3.865  -3.974   6.091  1.00  0.00     0.008 C 
HETATM   22  C   UNL     1       2.637  -3.102   5.839  1.00  0.00     0.034 C 
ENDBRANCH  17  18
ENDBRANCH  16  17
ENDBRANCH   4  16
TORSDOF 5
