REMARK  5 active torsions:
REMARK  status: ('A' for Active; 'I' for Inactive)
REMARK    1  A    between atoms: N_6  and  C_7 
REMARK    2  A    between atoms: C_7  and  C_8 
REMARK    3  A    between atoms: C_8  and  O_9 
REMARK    4  A    between atoms: C_8  and  C_10 
REMARK    5  A    between atoms: C_10  and  N_11 
ROOT
HETATM    1  C   UNL     1       8.011   1.344   1.806  1.00  0.00     0.163 C 
ENDROOT
BRANCH   1   2
HETATM    2  C   UNL     1       6.723   0.570   1.482  1.00  0.00     0.155 C 
BRANCH   2   3
HETATM    3  C   UNL     1       5.511   1.487   1.192  1.00  0.00     0.168 C 
BRANCH   3   4
HETATM    4  N   UNL     1       4.310   0.677   1.003  1.00  0.00    -0.286 N 
HETATM    5  C   UNL     1       3.787  -0.118   1.987  1.00  0.00     0.227 C 
HETATM    6  C   UNL     1       2.671  -0.937   1.417  1.00  0.00     0.117 C 
HETATM    7  O   UNL     1       4.140  -0.142   3.158  1.00  0.00    -0.273 OA
HETATM    8  C   UNL     1       2.675  -0.580  -0.065  1.00  0.00     0.083 C 
HETATM    9  C   UNL     1       1.285  -0.411  -0.645  1.00  0.00     0.020 C 
HETATM   10  C   UNL     1       3.549   0.654  -0.133  1.00  0.00     0.230 C 
HETATM   11  O   UNL     1       3.576   1.456  -1.050  1.00  0.00    -0.273 OA
ENDBRANCH   3   4
ENDBRANCH   2   3
BRANCH   2  12
HETATM   12  O   UNL     1       6.899  -0.262   0.323  1.00  0.00    -0.392 OA
HETATM   13  H   UNL     1       7.838  -0.506   0.233  1.00  0.00     0.210 HD
ENDBRANCH   2  12
ENDBRANCH   1   2
BRANCH   1  14
HETATM   14  N   UNL     1       9.087   0.457   2.248  1.00  0.00    -0.339 N 
HETATM   15  C   UNL     1       9.027  -0.355   3.349  1.00  0.00     0.184 A 
HETATM   16  N   UNL     1      10.109  -1.085   3.481  1.00  0.00    -0.350 N 
HETATM   17  C   UNL     1      10.919  -0.715   2.437  1.00  0.00     0.060 A 
ATOM     18  HN  UNL     1      10.306  -1.778   4.203  1.00  0.00     0.166 HD
HETATM   19  C   UNL     1      12.205  -1.174   2.109  1.00  0.00     0.039 A 
HETATM   20  C   UNL     1      10.310   0.255   1.649  1.00  0.00     0.062 A 
HETATM   21  C   UNL     1      12.875  -0.636   0.994  1.00  0.00    -0.054 A 
HETATM   22  C   UNL     1      14.260  -1.144   0.686  1.00  0.00     0.049 C 
HETATM   23  C   UNL     1      12.249   0.357   0.214  1.00  0.00    -0.054 A 
HETATM   24  C   UNL     1      12.923   0.995  -0.977  1.00  0.00     0.049 C 
HETATM   25  C   UNL     1      10.946   0.810   0.528  1.00  0.00     0.039 A 
ENDBRANCH   1  14
TORSDOF 5
