REMARK  4 active torsions:
REMARK  status: ('A' for Active; 'I' for Inactive)
REMARK    1  A    between atoms: O_2  and  C_3 
REMARK    2  A    between atoms: C_3  and  C_4 
REMARK    3  A    between atoms: C_4  and  N_5 
REMARK       I    between atoms: N_5  and  C_6 
REMARK       I    between atoms: C_6  and  N_8 
REMARK    4  A    between atoms: N_8  and  C_9 
ROOT
HETATM    1  N   UNL     1       1.701   0.107  -3.724  1.00  0.00    -0.340 N 
HETATM    2  C   UNL     1       0.582  -0.078  -4.520  1.00  0.00     0.320 C 
HETATM    3  O   UNL     1      -0.501  -0.418  -4.057  1.00  0.00    -0.247 OA
HETATM    4  N   UNL     1       0.814   0.249  -5.839  1.00  0.00    -0.306 N 
HETATM    5  H   UNL     1       2.589  -0.145  -4.138  1.00  0.00     0.164 HD
HETATM    6  H   UNL     1       1.472   1.011  -5.956  1.00  0.00     0.171 HD
ENDROOT
BRANCH   1   7
HETATM    7  C   UNL     1       1.519  -0.076  -2.296  1.00  0.00     0.162 C 
BRANCH   7   8
HETATM    8  C   UNL     1       2.847   0.074  -1.546  1.00  0.00     0.076 C 
HETATM    9  C   UNL     1       2.679  -0.192  -0.016  1.00  0.00     0.040 C 
HETATM   10  C   UNL     1       3.124  -1.644  -0.247  1.00  0.00     0.006 C 
HETATM   11  C   UNL     1       3.762  -1.190  -1.569  1.00  0.00     0.040 C 
BRANCH   8  12
HETATM   12  O   UNL     1       3.554   1.293  -1.906  1.00  0.00    -0.383 OA
HETATM   13  C   UNL     1       2.972   2.531  -1.514  1.00  0.00     0.202 C 
ENDBRANCH   8  12
ENDBRANCH   7   8
ENDBRANCH   1   7
BRANCH   4  14
HETATM   14  C   UNL     1      -0.234   0.181  -6.791  1.00  0.00     0.077 A 
HETATM   15  C   UNL     1      -1.119  -0.897  -6.838  1.00  0.00     0.050 A 
HETATM   16  C   UNL     1      -2.153  -0.863  -7.759  1.00  0.00     0.090 A 
HETATM   17  N   UNL     1      -2.363   0.161  -8.619  1.00  0.00    -0.372 N 
HETATM   18  C   UNL     1      -1.485   1.190  -8.556  1.00  0.00     0.132 A 
ATOM     19  HN  UNL     1      -3.141   0.158  -9.279  1.00  0.00     0.164 HD
HETATM   20  C   UNL     1      -0.409   1.229  -7.688  1.00  0.00     0.158 A 
HETATM   21  F   UNL     1       0.412   2.289  -7.669  1.00  0.00    -0.202 F 
ENDBRANCH   4  14
TORSDOF 4
