REMARK  4 active torsions:
REMARK  status: ('A' for Active; 'I' for Inactive)
REMARK    1  A    between atoms: C_2  and  N_3 
REMARK    2  A    between atoms: C_2  and  C_9 
REMARK    3  A    between atoms: N_3  and  C_4 
REMARK    4  A    between atoms: C_9  and  N_11 
ROOT
HETATM    1  C   UNL     1       0.896  -0.236  -0.059  1.00  0.00     0.045 C 
HETATM    2  C   UNL     1       2.425  -0.113   0.029  1.00  0.00     0.241 C 
ENDROOT
BRANCH   2   3
HETATM    3  N   UNL     1       2.792   1.197   0.629  1.00  0.00     0.094 N 
HETATM    4  H   UNL     1       3.813   1.213   0.728  1.00  0.00     0.317 HD
BRANCH   3   5
HETATM    5  C   UNL     1       2.411   2.368  -0.160  1.00  0.00     0.221 C 
HETATM    6  C   UNL     1       2.978   2.416  -1.585  1.00  0.00     0.035 C 
HETATM    7  C   UNL     1       3.185   3.897  -1.909  1.00  0.00     0.002 C 
HETATM    8  C   UNL     1       2.793   4.667  -0.653  1.00  0.00     0.002 C 
HETATM    9  C   UNL     1       2.952   3.654   0.470  1.00  0.00     0.035 C 
ENDBRANCH   3   5
ENDBRANCH   2   3
BRANCH   2  10
HETATM   10  C   UNL     1       3.037  -1.295   0.855  1.00  0.00     0.136 C 
HETATM   11  C   UNL     1       2.731  -2.676   0.262  1.00  0.00     0.036 C 
BRANCH  10  12
HETATM   12  N   UNL     1       4.488  -1.158   1.013  1.00  0.00    -0.297 N 
HETATM   13  C   UNL     1       5.172  -1.042   2.192  1.00  0.00     0.118 A 
HETATM   14  C   UNL     1       6.501  -0.888   1.861  1.00  0.00    -0.028 A 
HETATM   15  C   UNL     1       7.659  -0.710   2.765  1.00  0.00     0.051 C 
HETATM   16  C   UNL     1       6.509  -0.935   0.448  1.00  0.00     0.115 A 
HETATM   17  N   UNL     1       5.290  -1.093  -0.069  1.00  0.00    -0.309 N 
ATOM     18  HN  UNL     1       5.026  -1.151  -1.053  1.00  0.00     0.186 HD
ENDBRANCH  10  12
ENDBRANCH   2  10
TORSDOF 4
