REMARK  7 active torsions:
REMARK  status: ('A' for Active; 'I' for Inactive)
REMARK    1  A    between atoms: O_2  and  C_3 
REMARK    2  A    between atoms: C_3  and  C_4 
REMARK    3  A    between atoms: C_4  and  N_5 
REMARK    4  A    between atoms: C_8  and  C_13 
REMARK       I    between atoms: C_13  and  N_15 
REMARK    5  A    between atoms: N_15  and  C_16 
REMARK    6  A    between atoms: C_16  and  C_17 
REMARK    7  A    between atoms: C_17  and  N_18 
ROOT
HETATM    1  C   UNL     1       3.689   6.176   1.551  1.00  0.00     0.269 C 
HETATM    2  O   UNL     1       4.173   7.232   1.930  1.00  0.00    -0.266 OA
HETATM    3  N   UNL     1       2.345   5.918   1.385  1.00  0.00    -0.354 N 
HETATM    4  H   UNL     1       2.107   5.084   0.858  1.00  0.00     0.162 HD
ENDROOT
BRANCH   1   5
HETATM    5  C   UNL     1       4.610   4.982   1.281  1.00  0.00     0.116 A 
HETATM    6  N   UNL     1       4.281   4.115   0.371  1.00  0.00    -0.290 N 
HETATM    7  N   UNL     1       5.150   3.044   0.190  1.00  0.00    -0.255 N 
ATOM      8  HN  UNL     1       3.430   4.215  -0.182  1.00  0.00     0.187 HD
HETATM    9  C   UNL     1       6.264   2.795   0.988  1.00  0.00     0.262 A 
HETATM   10  C   UNL     1       6.593   3.835   1.982  1.00  0.00     0.078 A 
HETATM   11  O   UNL     1       6.976   1.800   0.905  1.00  0.00    -0.267 OA
HETATM   12  C   UNL     1       5.817   4.910   2.130  1.00  0.00     0.042 A 
BRANCH   7  13
HETATM   13  C   UNL     1       4.827   2.107  -0.881  1.00  0.00     0.178 C 
BRANCH  13  14
HETATM   14  C   UNL     1       3.943   0.955  -0.412  1.00  0.00     0.189 C 
BRANCH  14  15
HETATM   15  O   UNL     1       3.692   0.080  -1.515  1.00  0.00    -0.394 OA
HETATM   16  C   UNL     1       2.870  -1.016  -1.140  1.00  0.00     0.201 C 
ENDBRANCH  14  15
ENDBRANCH  13  14
ENDBRANCH   7  13
ENDBRANCH   1   5
BRANCH   3  17
HETATM   17  C   UNL     1       1.344   6.955   1.605  1.00  0.00     0.153 C 
BRANCH  17  18
HETATM   18  C   UNL     1      -0.019   6.380   2.061  1.00  0.00     0.292 C 
BRANCH  18  19
HETATM   19  N   UNL     1      -1.049   7.394   2.381  1.00  0.00     0.094 N 
HETATM   20  C   UNL     1      -0.669   8.261   3.516  1.00  0.00     0.273 C 
HETATM   21  C   UNL     1      -0.650   7.531   4.862  1.00  0.00     0.030 C 
HETATM   22  C   UNL     1      -1.995   6.874   5.150  1.00  0.00     0.004 C 
HETATM   23  C   UNL     1      -2.479   6.043   3.964  1.00  0.00     0.035 C 
HETATM   24  C   UNL     1      -2.402   6.843   2.650  1.00  0.00     0.219 C 
HETATM   25  C   UNL     1      -3.001   6.042   1.490  1.00  0.00     0.043 C 
ENDBRANCH  18  19
ENDBRANCH  17  18
ENDBRANCH   3  17
TORSDOF 7
