REMARK  5 active torsions:
REMARK  status: ('A' for Active; 'I' for Inactive)
REMARK    1  A    between atoms: N_1  and  C1*_4 
REMARK    2  A    between atoms: C4*_12  and  C5*_20 
REMARK    3  A    between atoms: C_13  and  O_17 
REMARK    4  A    between atoms: C3*_14  and  O3*_18 
REMARK    5  A    between atoms: C5*_20  and  O5*_21 
ROOT
HETATM    1  N   UNL     1      -1.376   1.550   0.082  1.00  0.00    -0.300 N 
HETATM    2  C   UNL     1      -0.216   0.834   0.268  1.00  0.00     0.137 A 
HETATM    3  C   UNL     1      -0.622  -0.491   0.246  1.00  0.00     0.085 A 
HETATM    4  N   UNL     1      -1.982  -0.587   0.057  1.00  0.00    -0.350 N 
ATOM      5  HN  UNL     1      -2.541  -1.438  -0.005  1.00  0.00     0.166 HD
HETATM    6  C   UNL     1      -2.404   0.655  -0.027  1.00  0.00     0.187 A 
HETATM    7  N   UNL     1       0.984   1.439   0.411  1.00  0.00    -0.337 N 
ATOM      8  HN  UNL     1       1.093   2.314   0.924  1.00  0.00     0.168 HD
HETATM    9  C   UNL     1       0.245  -1.679   0.476  1.00  0.00     0.189 C 
HETATM   10  C   UNL     1       1.984   0.838  -0.144  1.00  0.00     0.177 C 
HETATM   11  N   UNL     1       2.070  -0.361  -0.810  1.00  0.00    -0.383 N 
HETATM   12  C   UNL     1       1.641  -1.623  -0.191  1.00  0.00     0.158 C 
HETATM   13  H   UNL     1       2.956  -0.488  -1.292  1.00  0.00     0.160 HD
ENDROOT
BRANCH   1  14
HETATM   14  C1* UNL     1      -1.461   2.998   0.058  1.00  0.00     0.233 C 
HETATM   15  O4* UNL     1      -2.837   3.412  -0.122  1.00  0.00    -0.356 OA
HETATM   16  C4* UNL     1      -2.875   4.510  -1.062  1.00  0.00     0.176 C 
HETATM   17  C3* UNL     1      -1.426   4.933  -1.288  1.00  0.00     0.153 C 
HETATM   18  C2* UNL     1      -0.646   3.666  -1.041  1.00  0.00     0.088 C 
BRANCH  16  19
HETATM   19  C5* UNL     1      -3.594   4.049  -2.336  1.00  0.00     0.198 C 
BRANCH  19  20
HETATM   20  O5* UNL     1      -2.925   2.962  -2.968  1.00  0.00    -0.398 OA
HETATM   21  H5* UNL     1      -3.042   2.183  -2.395  1.00  0.00     0.209 HD
ENDBRANCH  19  20
ENDBRANCH  16  19
BRANCH  17  22
HETATM   22  O3* UNL     1      -1.033   5.916  -0.322  1.00  0.00    -0.393 OA
HETATM   23  H3* UNL     1      -1.417   5.689   0.545  1.00  0.00     0.210 HD
ENDBRANCH  17  22
ENDBRANCH   1  14
BRANCH   9  24
HETATM   24  O   UNL     1       0.435  -1.908   1.887  1.00  0.00    -0.388 OA
HETATM   25  H   UNL     1       0.495  -1.025   2.295  1.00  0.00     0.210 HD
ENDBRANCH   9  24
TORSDOF 5
