REMARK  5 active torsions:
REMARK  status: ('A' for Active; 'I' for Inactive)
REMARK    1  A    between atoms: C_2  and  C_3 
REMARK    2  A    between atoms: C_3  and  O_4 
REMARK    3  A    between atoms: C_3  and  C_10 
REMARK    4  A    between atoms: O_4  and  C_5 
REMARK       I    between atoms: C_10  and  N_12 
REMARK    5  A    between atoms: N_12  and  C_13 
ROOT
HETATM    1  C   UNL     1       4.793  -0.272   1.294  1.00  0.00     0.252 C 
HETATM    2  O   UNL     1       5.394   0.327   0.400  1.00  0.00    -0.270 OA
HETATM    3  N   UNL     1       5.396  -0.766   2.438  1.00  0.00    -0.311 N 
HETATM    4  H   UNL     1       4.944  -1.564   2.866  1.00  0.00     0.170 HD
ENDROOT
BRANCH   1   5
HETATM    5  C   UNL     1       3.264  -0.525   1.213  1.00  0.00     0.213 C 
BRANCH   5   6
HETATM    6  C   UNL     1       2.756  -0.111  -0.186  1.00  0.00     0.037 C 
HETATM    7  C   UNL     1       1.247   0.000  -0.316  1.00  0.00     0.008 C 
ENDBRANCH   5   6
BRANCH   5   8
HETATM    8  O   UNL     1       2.805  -1.797   1.676  1.00  0.00    -0.371 OA
BRANCH   8   9
HETATM    9  C   UNL     1       3.053  -2.934   0.857  1.00  0.00     0.122 C 
HETATM   10  C   UNL     1       2.397  -4.177   1.474  1.00  0.00     0.032 C 
HETATM   11  C   UNL     1       3.270  -5.367   1.062  1.00  0.00     0.002 C 
HETATM   12  C   UNL     1       4.458  -4.779   0.309  1.00  0.00     0.002 C 
HETATM   13  C   UNL     1       4.518  -3.345   0.787  1.00  0.00     0.032 C 
ENDBRANCH   8   9
ENDBRANCH   5   8
ENDBRANCH   1   5
BRANCH   3  14
HETATM   14  C   UNL     1       6.791  -0.740   2.577  1.00  0.00     0.107 A 
HETATM   15  C   UNL     1       7.511   0.412   2.306  1.00  0.00     0.049 A 
HETATM   16  C   UNL     1       8.899   0.373   2.390  1.00  0.00     0.006 A 
HETATM   17  C   UNL     1       9.522  -0.825   2.703  1.00  0.00     0.025 A 
HETATM   18  C   UNL     1       8.732  -1.943   2.962  1.00  0.00     0.007 A 
HETATM   19  C   UNL     1       9.374  -3.280   3.185  1.00  0.00     0.068 C 
HETATM   20  N   UNL     1       7.373  -1.902   2.952  1.00  0.00    -0.346 N 
ATOM     21  HN  UNL     1       6.815  -2.714   3.216  1.00  0.00     0.167 HD
ENDBRANCH   3  14
TORSDOF 5
