REMARK  2 active torsions:
REMARK  status: ('A' for Active; 'I' for Inactive)
REMARK    1  A    between atoms: C_2  and  N_6 
REMARK       I    between atoms: N_6  and  C_7 
REMARK       I    between atoms: C_7  and  N_9 
REMARK    2  A    between atoms: N_9  and  C_10 
ROOT
HETATM    1  N   UNL     1       2.866  -0.098  -1.551  1.00  0.00    -0.334 N 
HETATM    2  C   UNL     1       4.154   0.078  -2.010  1.00  0.00     0.321 C 
HETATM    3  O   UNL     1       5.100   0.357  -1.284  1.00  0.00    -0.247 OA
HETATM    4  N   UNL     1       4.251  -0.157  -3.367  1.00  0.00    -0.306 N 
HETATM    5  H   UNL     1       2.145   0.028  -2.249  1.00  0.00     0.165 HD
HETATM    6  H   UNL     1       3.695  -0.946  -3.676  1.00  0.00     0.171 HD
ENDROOT
BRANCH   4   7
HETATM    7  C   UNL     1       5.487   0.011  -4.043  1.00  0.00     0.077 A 
HETATM    8  C   UNL     1       6.284   1.137  -3.845  1.00  0.00     0.050 A 
HETATM    9  C   UNL     1       7.502   1.199  -4.502  1.00  0.00     0.090 A 
HETATM   10  N   UNL     1       7.970   0.225  -5.317  1.00  0.00    -0.372 N 
HETATM   11  C   UNL     1       7.170  -0.853  -5.491  1.00  0.00     0.132 A 
ATOM     12  HN  UNL     1       8.878   0.299  -5.776  1.00  0.00     0.164 HD
HETATM   13  C   UNL     1       5.927  -0.987  -4.905  1.00  0.00     0.158 A 
HETATM   14  F   UNL     1       5.186  -2.087  -5.110  1.00  0.00    -0.202 F 
ENDBRANCH   4   7
BRANCH   1  15
HETATM   15  C   UNL     1       2.506  -0.027  -0.106  1.00  0.00     0.031 C 
HETATM   16  C   UNL     1       2.877   1.319   0.503  1.00  0.00     0.038 C 
HETATM   17  C   UNL     1       1.030  -0.428   0.165  1.00  0.00     0.031 C 
HETATM   18  C   UNL     1       1.505  -1.830   0.574  1.00  0.00     0.005 C 
HETATM   19  C   UNL     1       2.936  -1.282   0.701  1.00  0.00     0.031 C 
ENDBRANCH   1  15
TORSDOF 2
