REMARK  4 active torsions:
REMARK  status: ('A' for Active; 'I' for Inactive)
REMARK    1  A    between atoms: N_1  and  C_7 
REMARK    2  A    between atoms: N_2  and  C_12 
REMARK    3  A    between atoms: C_7  and  C_9 
REMARK       I    between atoms: C_8  and  N_10 
REMARK    4  A    between atoms: C_8  and  C_13 
REMARK       I    between atoms: C_9  and  N_11 
ROOT
HETATM    1  C   UNL     1      -1.312   2.124   0.148  1.00  0.00     0.240 C 
ENDROOT
BRANCH   1   2
HETATM    2  N   UNL     1      -0.521   2.182  -1.080  1.00  0.00    -0.255 N 
HETATM    3  C   UNL     1       0.060   1.009  -1.550  1.00  0.00     0.334 C 
HETATM    4  N   UNL     1       0.675   1.079  -2.801  1.00  0.00    -0.279 N 
HETATM    5  O   UNL     1       0.049  -0.045  -0.913  1.00  0.00    -0.246 OA
HETATM    6  C   UNL     1       1.051   2.287  -3.340  1.00  0.00     0.146 C 
HETATM    7  C   UNL     1       0.724   3.433  -2.751  1.00  0.00     0.200 C 
HETATM    8  C   UNL     1      -0.127   3.438  -1.541  1.00  0.00     0.292 C 
HETATM    9  F   UNL     1       1.159   4.621  -3.210  1.00  0.00    -0.199 F 
HETATM   10  O   UNL     1      -0.403   4.495  -0.986  1.00  0.00    -0.264 OA
BRANCH   4  11
HETATM   11  C   UNL     1       1.056  -0.194  -3.410  1.00  0.00     0.232 C 
HETATM   12  O   UNL     1       1.709  -0.016  -4.681  1.00  0.00    -0.366 OA
HETATM   13  C   UNL     1       1.291  -1.071  -5.562  1.00  0.00     0.170 C 
HETATM   14  C   UNL     1       0.413  -2.009  -4.763  1.00  0.00     0.031 C 
HETATM   15  C   UNL     1      -0.144  -1.092  -3.708  1.00  0.00     0.056 C 
ENDBRANCH   4  11
ENDBRANCH   1   2
BRANCH   1  16
HETATM   16  C   UNL     1      -2.850   2.220  -0.026  1.00  0.00     0.238 C 
HETATM   17  N   UNL     1      -3.600   1.044   0.014  1.00  0.00    -0.348 N 
HETATM   18  C   UNL     1      -5.062   1.115   0.163  1.00  0.00     0.145 C 
HETATM   19  C   UNL     1      -3.133  -0.233  -0.514  1.00  0.00     0.145 C 
HETATM   20  C   UNL     1      -5.615  -0.099   0.942  1.00  0.00     0.146 C 
HETATM   21  N   UNL     1      -5.089  -1.384   0.447  1.00  0.00    -0.344 N 
HETATM   22  C   UNL     1      -5.845  -2.540   0.715  1.00  0.00     0.260 C 
HETATM   23  C   UNL     1      -3.630  -1.409   0.324  1.00  0.00     0.146 C 
HETATM   24  O   UNL     1      -6.899  -2.449   1.346  1.00  0.00    -0.267 OA
HETATM   25  O   UNL     1      -3.403   3.317  -0.129  1.00  0.00    -0.272 OA
BRANCH  22  26
HETATM   26  C   UNL     1      -5.363  -3.819   0.198  1.00  0.00     0.072 A 
HETATM   27  S   UNL     1      -5.628  -5.241   1.127  1.00  0.00    -0.097 SA
HETATM   28  C   UNL     1      -4.858  -6.233  -0.033  1.00  0.00     0.050 A 
HETATM   29  C   UNL     1      -4.428  -5.513  -1.123  1.00  0.00     0.009 A 
HETATM   30  C   UNL     1      -4.748  -4.128  -1.005  1.00  0.00     0.025 A 
ENDBRANCH  22  26
ENDBRANCH   1  16
TORSDOF 4
