REMARK  8 active torsions:
REMARK  status: ('A' for Active; 'I' for Inactive)
REMARK    1  A    between atoms: O_1  and  C_2 
REMARK    2  A    between atoms: C_2  and  C_3 
REMARK    3  A    between atoms: C_3  and  C_4 
REMARK    4  A    between atoms: C_4  and  C_5 
REMARK    5  A    between atoms: N_14  and  C_15 
REMARK    6  A    between atoms: C_15  and  C_16 
REMARK    7  A    between atoms: C_16  and  O_17 
REMARK    8  A    between atoms: C_16  and  C_18 
ROOT
HETATM    1  C   UNL     1       4.792   2.225   1.985  1.00  0.00     0.084 A 
HETATM    2  N   UNL     1       4.491   3.498   1.813  1.00  0.00    -0.344 N 
ATOM      3  HN  UNL     1       3.994   3.909   1.023  1.00  0.00     0.167 HD
HETATM    4  C   UNL     1       4.979   4.155   2.907  1.00  0.00     0.060 A 
HETATM    5  C   UNL     1       4.907   5.519   3.223  1.00  0.00     0.032 A 
HETATM    6  C   UNL     1       5.457   5.961   4.431  1.00  0.00     0.002 A 
HETATM    7  C   UNL     1       6.072   5.061   5.302  1.00  0.00     0.002 A 
HETATM    8  C   UNL     1       6.160   3.697   4.997  1.00  0.00     0.032 A 
HETATM    9  C   UNL     1       5.599   3.271   3.784  1.00  0.00     0.062 A 
HETATM   10  N   UNL     1       5.481   2.042   3.167  1.00  0.00    -0.332 N 
ENDROOT
BRANCH  10  11
HETATM   11  C   UNL     1       5.878   0.768   3.747  1.00  0.00     0.167 C 
BRANCH  11  12
HETATM   12  C   UNL     1       7.295   0.304   3.357  1.00  0.00     0.169 C 
BRANCH  12  13
HETATM   13  O   UNL     1       8.286   1.222   3.821  1.00  0.00    -0.389 OA
HETATM   14  H   UNL     1       8.241   1.255   4.790  1.00  0.00     0.210 HD
ENDBRANCH  12  13
BRANCH  12  15
HETATM   15  C   UNL     1       7.675  -1.068   3.900  1.00  0.00    -0.028 A 
HETATM   16  C   UNL     1       8.578  -1.868   3.172  1.00  0.00     0.013 A 
HETATM   17  C   UNL     1       8.978  -3.120   3.648  1.00  0.00     0.043 A 
HETATM   18  C   UNL     1       8.486  -3.581   4.861  1.00  0.00     0.116 A 
HETATM   19  F   UNL     1       8.866  -4.781   5.320  1.00  0.00    -0.206 F 
HETATM   20  C   UNL     1       7.609  -2.809   5.611  1.00  0.00     0.043 A 
HETATM   21  C   UNL     1       7.209  -1.553   5.136  1.00  0.00     0.013 A 
ENDBRANCH  12  15
ENDBRANCH  11  12
ENDBRANCH  10  11
BRANCH   1  22
HETATM   22  C   UNL     1       4.418   1.130   1.037  1.00  0.00     0.079 C 
BRANCH  22  23
HETATM   23  C   UNL     1       4.323   1.627  -0.409  1.00  0.00     0.033 C 
BRANCH  23  24
HETATM   24  C   UNL     1       5.659   2.116  -0.955  1.00  0.00     0.164 C 
BRANCH  24  25
HETATM   25  O   UNL     1       6.603   1.050  -0.926  1.00  0.00    -0.401 OA
HETATM   26  H   UNL     1       7.445   1.424  -1.241  1.00  0.00     0.209 HD
ENDBRANCH  24  25
ENDBRANCH  23  24
ENDBRANCH  22  23
ENDBRANCH   1  22
TORSDOF 8
