REMARK  3 active torsions:
REMARK  status: ('A' for Active; 'I' for Inactive)
REMARK    1  A    between atoms: C_5  and  N_6 
REMARK       I    between atoms: N_6  and  C_7 
REMARK       I    between atoms: C_7  and  N_9 
REMARK    2  A    between atoms: N_9  and  C_10 
REMARK    3  A    between atoms: N_13  and  C_16 
ROOT
HETATM    1  N   UNL     1       7.391  -0.432  -1.957  1.00  0.00    -0.295 N 
HETATM    2  C   UNL     1       8.445   0.420  -2.149  1.00  0.00     0.322 C 
HETATM    3  O   UNL     1       9.122   0.331  -3.172  1.00  0.00    -0.247 OA
HETATM    4  N   UNL     1       8.696   1.313  -1.153  1.00  0.00    -0.338 N 
HETATM    5  H   UNL     1       7.258  -1.081  -2.719  1.00  0.00     0.172 HD
HETATM    6  H   UNL     1       8.038   1.282  -0.377  1.00  0.00     0.164 HD
ENDROOT
BRANCH   4   7
HETATM    7  C   UNL     1       9.890   2.135  -1.052  1.00  0.00     0.089 C 
HETATM    8  C   UNL     1      10.295   2.307   0.421  1.00  0.00     0.055 C 
HETATM    9  C   UNL     1       9.776   3.596   1.060  1.00  0.00     0.275 C 
HETATM   10  N   UNL     1      10.088   4.809   0.277  1.00  0.00     0.093 N 
HETATM   11  C   UNL     1       9.369   4.672  -1.001  1.00  0.00     0.275 C 
HETATM   12  C   UNL     1       9.756   3.449  -1.837  1.00  0.00     0.055 C 
BRANCH  10  13
HETATM   13  C   UNL     1      11.548   5.086   0.178  1.00  0.00     0.223 C 
HETATM   14  C   UNL     1      12.152   5.450   1.560  1.00  0.00     0.036 C 
HETATM   15  C   UNL     1      11.748   6.845   2.046  1.00  0.00     0.002 C 
HETATM   16  C   UNL     1      12.155   7.914   1.040  1.00  0.00     0.000 C 
HETATM   17  C   UNL     1      11.592   7.614  -0.344  1.00  0.00     0.002 C 
HETATM   18  C   UNL     1      11.964   6.208  -0.808  1.00  0.00     0.036 C 
ENDBRANCH  10  13
ENDBRANCH   4   7
BRANCH   1  19
HETATM   19  C   UNL     1       6.597  -0.580  -0.809  1.00  0.00     0.108 A 
HETATM   20  C   UNL     1       5.640  -1.582  -0.781  1.00  0.00     0.049 A 
HETATM   21  C   UNL     1       4.901  -1.769   0.389  1.00  0.00     0.012 A 
HETATM   22  C   UNL     1       5.139  -0.956   1.497  1.00  0.00    -0.046 A 
HETATM   23  C   UNL     1       4.417  -1.121   2.794  1.00  0.00     0.049 C 
HETATM   24  C   UNL     1       6.092   0.040   1.360  1.00  0.00     0.096 A 
HETATM   25  N   UNL     1       6.813   0.247   0.239  1.00  0.00    -0.352 N 
ATOM     26  HN  UNL     1       7.497   1.001   0.184  1.00  0.00     0.166 HD
ENDBRANCH   1  19
TORSDOF 3
