REMARK  7 active torsions:
REMARK  status: ('A' for Active; 'I' for Inactive)
REMARK    1  A    between atoms: O_2  and  C_3 
REMARK    2  A    between atoms: C_3  and  C_4 
REMARK    3  A    between atoms: C_4  and  N_5 
REMARK    4  A    between atoms: C_6  and  S_7 
REMARK    5  A    between atoms: S_7  and  C_8 
REMARK    6  A    between atoms: C_8  and  C_9 
REMARK    7  A    between atoms: C_8  and  C_12 
REMARK       I    between atoms: C_9  and  N_11 
ROOT
HETATM    1  N   UNL     1       4.778  -2.739  -0.066  1.00  0.00    -0.324 N 
HETATM    2  C   UNL     1       6.008  -3.014   0.498  1.00  0.00     0.148 A 
HETATM    3  N   UNL     1       6.195  -4.305   0.659  1.00  0.00    -0.335 N 
ATOM      4  HN  UNL     1       7.028  -4.769   1.022  1.00  0.00     0.168 HD
HETATM    5  C   UNL     1       5.028  -4.898   0.233  1.00  0.00     0.061 A 
HETATM    6  C   UNL     1       4.661  -6.256   0.228  1.00  0.00     0.032 A 
HETATM    7  C   UNL     1       3.385  -6.618  -0.225  1.00  0.00     0.002 A 
HETATM    8  C   UNL     1       2.497  -5.654  -0.695  1.00  0.00     0.002 A 
HETATM    9  C   UNL     1       2.857  -4.303  -0.731  1.00  0.00     0.032 A 
HETATM   10  C   UNL     1       4.126  -3.950  -0.233  1.00  0.00     0.063 A 
ENDROOT
BRANCH   2  11
HETATM   11  S   UNL     1       7.130  -1.788   1.023  1.00  0.00    -0.074 SA
BRANCH  11  12
HETATM   12  C   UNL     1       8.727  -2.701   1.061  1.00  0.00     0.179 C 
BRANCH  12  13
HETATM   13  C   UNL     1       9.204  -2.955  -0.383  1.00  0.00     0.234 C 
HETATM   14  O   UNL     1       9.237  -2.107  -1.276  1.00  0.00    -0.272 OA
HETATM   15  N   UNL     1       9.671  -4.215  -0.653  1.00  0.00    -0.369 N 
HETATM   16  H   UNL     1       9.369  -5.007  -0.102  1.00  0.00     0.159 HD
HETATM   17  H   UNL     1       9.918  -4.390  -1.619  1.00  0.00     0.159 HD
ENDBRANCH  12  13
BRANCH  12  18
HETATM   18  C   UNL     1       9.785  -1.968   1.898  1.00  0.00    -0.035 A 
HETATM   19  C   UNL     1      10.034  -2.368   3.223  1.00  0.00     0.009 A 
HETATM   20  C   UNL     1      11.014  -1.733   3.998  1.00  0.00     0.001 A 
HETATM   21  C   UNL     1      11.759  -0.683   3.465  1.00  0.00     0.000 A 
HETATM   22  C   UNL     1      11.519  -0.265   2.159  1.00  0.00     0.001 A 
HETATM   23  C   UNL     1      10.538  -0.895   1.385  1.00  0.00     0.009 A 
ENDBRANCH  12  18
ENDBRANCH  11  12
ENDBRANCH   2  11
BRANCH   1  24
HETATM   24  C   UNL     1       4.236  -1.454  -0.472  1.00  0.00     0.157 C 
BRANCH  24  25
HETATM   25  C   UNL     1       2.945  -1.066   0.251  1.00  0.00     0.187 C 
BRANCH  25  26
HETATM   26  O   UNL     1       2.451   0.173  -0.269  1.00  0.00    -0.394 OA
HETATM   27  C   UNL     1       1.202   0.520   0.323  1.00  0.00     0.201 C 
ENDBRANCH  25  26
ENDBRANCH  24  25
ENDBRANCH   1  24
TORSDOF 7
