REMARK  6 active torsions:
REMARK  status: ('A' for Active; 'I' for Inactive)
REMARK    1  A    between atoms: O_1  and  C_2 
REMARK    2  A    between atoms: C_2  and  C_3 
REMARK    3  A    between atoms: C_2  and  C_19 
REMARK    4  A    between atoms: C_3  and  N_4 
REMARK    5  A    between atoms: C_7  and  C_16 
REMARK    6  A    between atoms: C_9  and  C_12 
ROOT
HETATM    1  N   UNL     1       2.444  -0.679   2.458  1.00  0.00    -0.254 N 
HETATM    2  N   UNL     1       2.539   0.637   2.852  1.00  0.00    -0.299 N 
ATOM      3  HN  UNL     1       2.909   1.355   2.229  1.00  0.00     0.187 HD
HETATM    4  C   UNL     1       2.139   0.921   4.046  1.00  0.00     0.031 A 
HETATM    5  C   UNL     1       1.611  -0.042   5.016  1.00  0.00     0.049 A 
HETATM    6  C   UNL     1       1.565  -1.329   4.639  1.00  0.00     0.119 A 
HETATM    7  C   UNL     1       2.026  -1.717   3.290  1.00  0.00     0.277 A 
HETATM    8  O   UNL     1       2.047  -2.890   2.929  1.00  0.00    -0.266 OA
ENDROOT
BRANCH   1   9
HETATM    9  C   UNL     1       2.953  -0.989   1.113  1.00  0.00     0.189 C 
BRANCH   9  10
HETATM   10  C   UNL     1       4.432  -1.413   1.179  1.00  0.00     0.171 C 
BRANCH  10  11
HETATM   11  O   UNL     1       5.219  -0.352   1.741  1.00  0.00    -0.389 OA
HETATM   12  H   UNL     1       4.646   0.074   2.409  1.00  0.00     0.210 HD
ENDBRANCH  10  11
BRANCH  10  13
HETATM   13  C   UNL     1       4.996  -1.795  -0.174  1.00  0.00    -0.025 A 
HETATM   14  C   UNL     1       4.883  -3.120  -0.633  1.00  0.00     0.010 A 
HETATM   15  C   UNL     1       5.447  -3.507  -1.853  1.00  0.00     0.004 A 
HETATM   16  C   UNL     1       6.122  -2.573  -2.636  1.00  0.00     0.042 A 
HETATM   17  C   UNL     1       6.213  -1.257  -2.201  1.00  0.00     0.117 A 
HETATM   18  F   UNL     1       6.862  -0.359  -2.954  1.00  0.00    -0.206 F 
HETATM   19  C   UNL     1       5.653  -0.861  -0.989  1.00  0.00     0.052 A 
ENDBRANCH  10  13
ENDBRANCH   9  10
ENDBRANCH   1   9
BRANCH   4  20
HETATM   20  C   UNL     1       2.192   2.331   4.500  1.00  0.00     0.037 A 
HETATM   21  C   UNL     1       3.269   3.269   4.005  1.00  0.00     0.011 A 
HETATM   22  C   UNL     1       3.300   2.784   5.423  1.00  0.00     0.011 A 
ENDBRANCH   4  20
BRANCH   6  23
HETATM   23  C   UNL     1       1.065  -2.390   5.544  1.00  0.00     0.422 C 
HETATM   24  F   UNL     1       1.129  -3.664   5.090  1.00  0.00    -0.166 F 
HETATM   25  F   UNL     1       1.750  -2.374   6.722  1.00  0.00    -0.166 F 
HETATM   26  F   UNL     1      -0.237  -2.166   5.874  1.00  0.00    -0.166 F 
ENDBRANCH   6  23
TORSDOF 6
