REMARK  7 active torsions:
REMARK  status: ('A' for Active; 'I' for Inactive)
REMARK    1  A    between atoms: N_2  and  C_14 
REMARK    2  A    between atoms: C_6  and  N_7 
REMARK    3  A    between atoms: C_13  and  C_14 
REMARK    4  A    between atoms: C_13  and  C_26 
REMARK       I    between atoms: C_17  and  N_19 
REMARK    5  A    between atoms: N_19  and  C_24 
REMARK    6  A    between atoms: C_21  and  C_24 
REMARK    7  A    between atoms: C_26  and  O_27 
ROOT
HETATM    1  C   UNL     1       0.342  -0.852  -0.026  1.00  0.00     0.117 A 
HETATM    2  N   UNL     1       1.489   1.003   0.029  1.00  0.00    -0.326 N 
HETATM    3  C   UNL     1       0.209   0.526  -0.022  1.00  0.00     0.140 A 
HETATM    4  N   UNL     1       1.679  -1.207  -0.014  1.00  0.00    -0.346 N 
ATOM      5  HN  UNL     1       2.070  -2.149  -0.018  1.00  0.00     0.167 HD
HETATM    6  C   UNL     1      -0.852  -1.606  -0.016  1.00  0.00     0.114 A 
HETATM    7  C   UNL     1       2.336  -0.069   0.004  1.00  0.00     0.185 A 
HETATM    8  N   UNL     1      -0.926   1.240  -0.040  1.00  0.00    -0.336 N 
ATOM      9  HN  UNL     1      -0.969   2.259  -0.051  1.00  0.00     0.168 HD
HETATM   10  N   UNL     1      -2.029  -0.918  -0.013  1.00  0.00    -0.341 N 
ATOM     11  HN  UNL     1      -2.919  -1.416   0.011  1.00  0.00     0.167 HD
HETATM   12  C   UNL     1      -2.001   0.430  -0.042  1.00  0.00     0.183 A 
ENDROOT
BRANCH   6  13
HETATM   13  N   UNL     1      -0.839  -3.005   0.052  1.00  0.00    -0.267 NA
HETATM   14  C   UNL     1      -2.019  -3.583   0.695  1.00  0.00     0.103 C 
HETATM   15  C   UNL     1      -1.700  -5.051   1.024  1.00  0.00     0.017 C 
HETATM   16  C   UNL     1      -1.314  -5.802  -0.265  1.00  0.00     0.009 C 
HETATM   17  C   UNL     1      -0.189  -5.087  -1.019  1.00  0.00     0.015 C 
HETATM   18  C   UNL     1      -0.507  -3.608  -1.241  1.00  0.00     0.097 C 
BRANCH  15  19
HETATM   19  C   UNL     1      -2.881  -5.738   1.714  1.00  0.00     0.128 C 
BRANCH  19  20
HETATM   20  N   UNL     1      -3.243  -5.096   2.967  1.00  0.00    -0.361 N 
HETATM   21  C   UNL     1      -4.531  -5.147   3.453  1.00  0.00     0.213 C 
HETATM   22  O   UNL     1      -5.456  -5.685   2.850  1.00  0.00    -0.274 OA
HETATM   23  C   UNL     1      -4.729  -4.453   4.770  1.00  0.00     0.117 C 
HETATM   24  H   UNL     1      -2.497  -4.835   3.601  1.00  0.00     0.162 HD
ENDBRANCH  19  20
ENDBRANCH  15  19
ENDBRANCH   6  13
BRANCH   2  25
HETATM   25  C   UNL     1       1.864   2.406   0.055  1.00  0.00     0.147 C 
BRANCH  25  26
HETATM   26  C   UNL     1       2.037   2.977   1.457  1.00  0.00     0.040 C 
HETATM   27  C   UNL     1       0.787   3.073   2.360  1.00  0.00     0.183 C 
HETATM   28  O   UNL     1       1.043   4.481   2.603  1.00  0.00    -0.389 OA
HETATM   29  C   UNL     1       1.945   4.517   1.468  1.00  0.00     0.183 C 
BRANCH  26  30
HETATM   30  C   UNL     1       3.240   2.433   2.221  1.00  0.00     0.179 C 
BRANCH  30  31
HETATM   31  O   UNL     1       4.426   2.668   1.469  1.00  0.00    -0.400 OA
HETATM   32  H   UNL     1       4.625   1.871   0.950  1.00  0.00     0.209 HD
ENDBRANCH  30  31
ENDBRANCH  26  30
ENDBRANCH  25  26
ENDBRANCH   2  25
TORSDOF 7
