REMARK  2 active torsions:
REMARK  status: ('A' for Active; 'I' for Inactive)
REMARK       I    between atoms: C_2  and  N_3 
REMARK       I    between atoms: C_2  and  N_9 
REMARK    1  A    between atoms: N_3  and  C_4 
REMARK    2  A    between atoms: N_9  and  C_10 
ROOT
HETATM    1  O   UNL     1       3.785   1.452  -2.171  1.00  0.00    -0.247 OA
HETATM    2  C   UNL     1       3.569   0.818  -1.137  1.00  0.00     0.322 C 
HETATM    3  N   UNL     1       2.892  -0.361  -1.116  1.00  0.00    -0.338 N 
HETATM    4  N   UNL     1       4.007   1.308   0.055  1.00  0.00    -0.289 N 
HETATM    5  H   UNL     1       2.676  -0.738  -0.196  1.00  0.00     0.164 HD
HETATM    6  H   UNL     1       4.462   2.207   0.019  1.00  0.00     0.172 HD
ENDROOT
BRANCH   3   7
HETATM    7  C   UNL     1       2.231  -0.922  -2.271  1.00  0.00     0.086 C 
HETATM    8  C   UNL     1       0.867  -0.280  -2.558  1.00  0.00     0.025 C 
HETATM    9  C   UNL     1      -0.056  -1.422  -2.989  1.00  0.00     0.002 C 
HETATM   10  C   UNL     1       0.832  -2.652  -3.109  1.00  0.00     0.002 C 
HETATM   11  C   UNL     1       1.920  -2.404  -2.083  1.00  0.00     0.025 C 
ENDBRANCH   3   7
BRANCH   4  12
HETATM   12  C   UNL     1       3.835   0.716   1.270  1.00  0.00     0.152 A 
HETATM   13  N   UNL     1       3.325  -0.464   1.530  1.00  0.00    -0.346 N 
HETATM   14  C   UNL     1       3.333  -0.667   2.896  1.00  0.00     0.097 A 
ATOM     15  HN  UNL     1       2.978  -1.125   0.835  1.00  0.00     0.167 HD
HETATM   16  C   UNL     1       3.799   0.389   3.650  1.00  0.00     0.070 A 
HETATM   17  S   UNL     1       4.318   1.653   2.609  1.00  0.00    -0.064 SA
ENDBRANCH   4  12
TORSDOF 2
