REMARK  5 active torsions:
REMARK  status: ('A' for Active; 'I' for Inactive)
REMARK    1  A    between atoms: C_2  and  C_5 
REMARK    2  A    between atoms: N_8  and  C_9 
REMARK    3  A    between atoms: C_9  and  C_10 
REMARK       I    between atoms: C_10  and  N_12 
REMARK    4  A    between atoms: N_12  and  C_13 
REMARK    5  A    between atoms: C_13  and  C_14 
ROOT
HETATM    1  C   UNL     1       2.618  -4.700  -1.658  1.00  0.00     0.250 C 
ENDROOT
BRANCH   1   2
HETATM    2  N   UNL     1       3.942  -4.162  -1.408  1.00  0.00    -0.294 N 
HETATM    3  C   UNL     1       4.267  -3.074  -0.647  1.00  0.00     0.113 A 
HETATM    4  C   UNL     1       5.618  -2.874  -0.811  1.00  0.00     0.054 A 
HETATM    5  C   UNL     1       6.039  -3.881  -1.721  1.00  0.00     0.133 A 
HETATM    6  N   UNL     1       4.997  -4.665  -2.083  1.00  0.00    -0.294 N 
ATOM      7  HN  UNL     1       5.007  -5.459  -2.723  1.00  0.00     0.187 HD
BRANCH   5   8
HETATM    8  C   UNL     1       7.433  -4.083  -2.253  1.00  0.00     0.433 C 
HETATM    9  F   UNL     1       8.317  -3.200  -1.707  1.00  0.00    -0.165 F 
HETATM   10  F   UNL     1       7.505  -3.907  -3.598  1.00  0.00    -0.165 F 
HETATM   11  F   UNL     1       7.920  -5.324  -1.989  1.00  0.00    -0.165 F 
ENDBRANCH   5   8
ENDBRANCH   1   2
BRANCH   1  12
HETATM   12  C   UNL     1       1.948  -5.194  -0.400  1.00  0.00     0.237 C 
HETATM   13  O   UNL     1       1.617  -4.426   0.506  1.00  0.00    -0.272 OA
HETATM   14  N   UNL     1       1.673  -6.554  -0.351  1.00  0.00    -0.357 N 
HETATM   15  H   UNL     1       2.256  -7.181  -0.896  1.00  0.00     0.162 HD
BRANCH  14  16
HETATM   16  C   UNL     1       1.097  -7.093   0.869  1.00  0.00     0.154 C 
BRANCH  16  17
HETATM   17  C   UNL     1       0.696  -8.565   0.778  1.00  0.00     0.139 C 
HETATM   18  C   UNL     1       0.061  -9.050   2.074  1.00  0.00     0.035 C 
HETATM   19  C   UNL     1       0.531 -10.479   2.228  1.00  0.00     0.029 C 
HETATM   20  C   UNL     1       1.478 -10.703   1.068  1.00  0.00     0.168 C 
HETATM   21  O   UNL     1       1.847  -9.404   0.586  1.00  0.00    -0.384 OA
ENDBRANCH  16  17
ENDBRANCH  14  16
ENDBRANCH   1  12
TORSDOF 5
