REMARK  5 active torsions:
REMARK  status: ('A' for Active; 'I' for Inactive)
REMARK    1  A    between atoms: C_5  and  N_6 
REMARK       I    between atoms: N_6  and  C_7 
REMARK       I    between atoms: C_7  and  N_9 
REMARK    2  A    between atoms: N_9  and  C_10 
REMARK    3  A    between atoms: C_10  and  C_11 
REMARK       I    between atoms: C_11  and  N_13 
REMARK    4  A    between atoms: N_13  and  C_14 
REMARK    5  A    between atoms: C_14  and  C_15 
ROOT
HETATM    1  N   UNL     1       6.955   0.044  -0.342  1.00  0.00    -0.295 N 
HETATM    2  C   UNL     1       7.646   1.213  -0.455  1.00  0.00     0.322 C 
HETATM    3  O   UNL     1       7.050   2.284  -0.358  1.00  0.00    -0.247 OA
HETATM    4  N   UNL     1       8.990   1.120  -0.654  1.00  0.00    -0.334 N 
HETATM    5  H   UNL     1       5.970   0.182  -0.165  1.00  0.00     0.172 HD
HETATM    6  H   UNL     1       9.280   0.221  -1.032  1.00  0.00     0.164 HD
ENDROOT
BRANCH   1   7
HETATM    7  C   UNL     1       7.432  -1.265  -0.464  1.00  0.00     0.108 A 
HETATM    8  C   UNL     1       6.532  -2.311  -0.295  1.00  0.00     0.049 A 
HETATM    9  C   UNL     1       6.986  -3.621  -0.446  1.00  0.00     0.012 A 
HETATM   10  C   UNL     1       8.324  -3.855  -0.760  1.00  0.00    -0.046 A 
HETATM   11  C   UNL     1       8.876  -5.231  -0.953  1.00  0.00     0.049 C 
HETATM   12  C   UNL     1       9.151  -2.750  -0.892  1.00  0.00     0.096 A 
HETATM   13  N   UNL     1       8.735  -1.473  -0.756  1.00  0.00    -0.352 N 
ATOM     14  HN  UNL     1       9.382  -0.692  -0.870  1.00  0.00     0.166 HD
ENDBRANCH   1   7
BRANCH   4  15
HETATM   15  C   UNL     1       9.781   2.297  -0.949  1.00  0.00     0.227 C 
BRANCH  15  16
HETATM   16  C   UNL     1      11.244   2.007  -1.283  1.00  0.00     0.235 C 
HETATM   17  O   UNL     1      11.893   2.758  -2.011  1.00  0.00    -0.272 OA
HETATM   18  N   UNL     1      11.814   0.933  -0.633  1.00  0.00    -0.359 N 
HETATM   19  H   UNL     1      11.242   0.395   0.011  1.00  0.00     0.162 HD
BRANCH  18  20
HETATM   20  C   UNL     1      13.157   0.493  -0.936  1.00  0.00     0.127 C 
BRANCH  20  21
HETATM   21  C   UNL     1      14.166   0.966   0.068  1.00  0.00     0.003 A 
HETATM   22  C   UNL     1      14.406   2.418   0.415  1.00  0.00     0.007 A 
HETATM   23  C   UNL     1      15.394   1.688  -0.445  1.00  0.00     0.007 A 
ENDBRANCH  20  21
ENDBRANCH  18  20
ENDBRANCH  15  16
ENDBRANCH   4  15
TORSDOF 5
