REMARK  6 active torsions:
REMARK  status: ('A' for Active; 'I' for Inactive)
REMARK    1  A    between atoms: C_2  and  C_3 
REMARK       I    between atoms: C_2  and  N_10 
REMARK    2  A    between atoms: C_3  and  C_4 
REMARK    3  A    between atoms: C_4  and  C_5 
REMARK    4  A    between atoms: N_10  and  C_11 
REMARK    5  A    between atoms: C_11  and  C_12 
REMARK    6  A    between atoms: C_12  and  N_13 
ROOT
HETATM    1  O   UNL     1       1.439  -0.049   0.785  1.00  0.00    -0.274 OA
HETATM    2  C   UNL     1       2.262   0.193  -0.091  1.00  0.00     0.217 C 
HETATM    3  N   UNL     1       2.572   1.474  -0.494  1.00  0.00    -0.359 N 
HETATM    4  H   UNL     1       3.123   1.599  -1.334  1.00  0.00     0.162 HD
ENDROOT
BRANCH   3   5
HETATM    5  C   UNL     1       1.875   2.630   0.046  1.00  0.00     0.143 C 
BRANCH   5   6
HETATM    6  C   UNL     1       2.228   2.915   1.507  1.00  0.00     0.148 C 
BRANCH   6   7
HETATM    7  N   UNL     1       1.599   4.127   1.989  1.00  0.00    -0.350 N 
HETATM    8  C   UNL     1       2.133   5.384   1.963  1.00  0.00     0.108 A 
HETATM    9  C   UNL     1       1.172   6.187   2.534  1.00  0.00     0.106 A 
HETATM   10  N   UNL     1       0.078   5.447   2.904  1.00  0.00    -0.361 N 
HETATM   11  C   UNL     1       0.368   4.208   2.574  1.00  0.00     0.182 A 
ATOM     12  HN  UNL     1      -0.778   5.786   3.342  1.00  0.00     0.166 HD
ENDBRANCH   6   7
ENDBRANCH   5   6
ENDBRANCH   3   5
BRANCH   2  13
HETATM   13  C   UNL     1       3.068  -0.888  -0.787  1.00  0.00     0.103 C 
BRANCH  13  14
HETATM   14  C   UNL     1       2.157  -1.964  -1.376  1.00  0.00     0.014 C 
BRANCH  14  15
HETATM   15  C   UNL     1       2.933  -3.044  -2.136  1.00  0.00    -0.014 C 
HETATM   16  C   UNL     1       2.015  -4.113  -2.747  1.00  0.00     0.004 C 
HETATM   17  C   UNL     1       2.779  -5.436  -2.664  1.00  0.00     0.000 C 
HETATM   18  C   UNL     1       4.151  -5.095  -2.102  1.00  0.00     0.000 C 
HETATM   19  C   UNL     1       3.906  -3.845  -1.271  1.00  0.00     0.004 C 
ENDBRANCH  14  15
ENDBRANCH  13  14
ENDBRANCH   2  13
TORSDOF 6
