REMARK  3 active torsions:
REMARK  status: ('A' for Active; 'I' for Inactive)
REMARK    1  A    between atoms: N_2  and  C_4 
REMARK    2  A    between atoms: C_7  and  N_8 
REMARK       I    between atoms: N_8  and  C_9 
REMARK    3  A    between atoms: C_9  and  C_11 
ROOT
HETATM    1  C   UNL     1       3.013   1.316  -0.440  1.00  0.00     0.102 A 
HETATM    2  C   UNL     1       2.606   2.624  -0.184  1.00  0.00     0.050 A 
HETATM    3  C   UNL     1       3.136   3.691  -0.909  1.00  0.00     0.035 A 
HETATM    4  C   UNL     1       4.072   3.467  -1.908  1.00  0.00     0.050 A 
HETATM    5  C   UNL     1       4.406   2.137  -2.133  1.00  0.00     0.119 A 
HETATM    6  N   UNL     1       3.903   1.078  -1.433  1.00  0.00    -0.350 N 
ATOM      7  HN  UNL     1       4.192   0.125  -1.654  1.00  0.00     0.166 HD
ENDROOT
BRANCH   4   8
HETATM    8  N   UNL     1       4.639   4.509  -2.682  1.00  0.00    -0.324 N 
HETATM    9  C   UNL     1       4.539   5.858  -2.396  1.00  0.00     0.251 C 
HETATM   10  O   UNL     1       4.042   6.348  -1.384  1.00  0.00    -0.270 OA
HETATM   11  H   UNL     1       5.209   4.264  -3.489  1.00  0.00     0.169 HD
BRANCH   9  12
HETATM   12  C   UNL     1       5.128   6.781  -3.465  1.00  0.00     0.213 C 
HETATM   13  C   UNL     1       4.064   7.763  -3.941  1.00  0.00     0.044 C 
HETATM   14  C   UNL     1       4.434   8.061  -5.377  1.00  0.00     0.029 C 
HETATM   15  C   UNL     1       5.688   7.246  -5.614  1.00  0.00     0.168 C 
HETATM   16  O   UNL     1       5.642   6.179  -4.652  1.00  0.00    -0.376 OA
ENDBRANCH   9  12
ENDBRANCH   4   8
BRANCH   1  17
HETATM   17  N   UNL     1       2.476   0.251   0.299  1.00  0.00    -0.376 N 
HETATM   18  C   UNL     1       2.988  -1.065  -0.059  1.00  0.00     0.150 C 
HETATM   19  C   UNL     1       2.239   0.493   1.719  1.00  0.00     0.150 C 
ENDBRANCH   1  17
TORSDOF 3
