REMARK  4 active torsions:
REMARK  status: ('A' for Active; 'I' for Inactive)
REMARK    1  A    between atoms: C_2  and  C_3 
REMARK       I    between atoms: C_2  and  N_11 
REMARK    2  A    between atoms: C_3  and  N_4 
REMARK    3  A    between atoms: N_11  and  C_12 
REMARK    4  A    between atoms: C_12  and  C_13 
ROOT
HETATM    1  O   UNL     1       2.665  -1.128  -0.360  1.00  0.00    -0.272 OA
HETATM    2  C   UNL     1       2.152  -0.075   0.007  1.00  0.00     0.235 C 
HETATM    3  N   UNL     1       2.863   0.966   0.564  1.00  0.00    -0.357 N 
HETATM    4  H   UNL     1       2.350   1.658   1.111  1.00  0.00     0.162 HD
ENDROOT
BRANCH   2   5
HETATM    5  C   UNL     1       0.643   0.180  -0.088  1.00  0.00     0.234 C 
BRANCH   5   6
HETATM    6  N   UNL     1      -0.091  -0.325   1.066  1.00  0.00    -0.316 N 
HETATM    7  C   UNL     1      -1.005  -1.355   0.906  1.00  0.00     0.095 A 
HETATM    8  C   UNL     1      -1.765  -1.770   1.927  1.00  0.00     0.017 A 
HETATM    9  C   UNL     1      -1.612  -1.171   3.229  1.00  0.00     0.007 A 
HETATM   10  C   UNL     1      -0.750  -0.164   3.416  1.00  0.00     0.074 A 
HETATM   11  C   UNL     1       0.048   0.358   2.272  1.00  0.00     0.247 A 
HETATM   12  O   UNL     1       0.771   1.338   2.436  1.00  0.00    -0.268 OA
ENDBRANCH   5   6
ENDBRANCH   2   5
BRANCH   3  13
HETATM   13  C   UNL     1       4.311   0.978   0.686  1.00  0.00     0.154 C 
BRANCH  13  14
HETATM   14  C   UNL     1       4.795   1.160   2.126  1.00  0.00     0.139 C 
HETATM   15  C   UNL     1       4.378   0.068   3.103  1.00  0.00     0.035 C 
HETATM   16  C   UNL     1       3.986   0.809   4.365  1.00  0.00     0.029 C 
HETATM   17  C   UNL     1       4.366   2.248   4.097  1.00  0.00     0.168 C 
HETATM   18  O   UNL     1       4.316   2.400   2.676  1.00  0.00    -0.384 OA
ENDBRANCH  13  14
ENDBRANCH   3  13
TORSDOF 4
