REMARK  3 active torsions:
REMARK  status: ('A' for Active; 'I' for Inactive)
REMARK    1  A    between atoms: N_6  and  C_7 
REMARK    2  A    between atoms: C_7  and  C_8 
REMARK       I    between atoms: C_8  and  N_10 
REMARK       I    between atoms: N_10  and  C_11 
REMARK       I    between atoms: C_11  and  N_13 
REMARK    3  A    between atoms: N_13  and  C_14 
ROOT
HETATM    1  C   UNL     1       9.739  -0.521  -0.482  1.00  0.00     0.245 C 
HETATM    2  O   UNL     1      10.958  -0.562  -0.672  1.00  0.00    -0.271 OA
HETATM    3  N   UNL     1       9.016  -1.600  -0.005  1.00  0.00    -0.278 N 
HETATM    4  C   UNL     1       9.433  -2.903   0.139  1.00  0.00     0.323 C 
HETATM    5  O   UNL     1       8.633  -3.792   0.408  1.00  0.00    -0.247 OA
HETATM    6  N   UNL     1      10.769  -3.104  -0.051  1.00  0.00    -0.338 N 
HETATM    7  H   UNL     1       8.021  -1.456   0.141  1.00  0.00     0.173 HD
HETATM    8  H   UNL     1      11.324  -2.275  -0.253  1.00  0.00     0.164 HD
ENDROOT
BRANCH   1   9
HETATM    9  C   UNL     1       8.990   0.806  -0.518  1.00  0.00     0.255 C 
BRANCH   9  10
HETATM   10  N   UNL     1       7.582   0.735  -0.912  1.00  0.00    -0.248 N 
HETATM   11  N   UNL     1       6.726   0.071  -0.056  1.00  0.00    -0.305 N 
HETATM   12  C   UNL     1       5.463   0.123  -0.335  1.00  0.00     0.133 A 
ATOM     13  HN  UNL     1       7.073  -0.437   0.758  1.00  0.00     0.186 HD
HETATM   14  C   UNL     1       4.861   0.820  -1.478  1.00  0.00     0.078 A 
HETATM   15 CL   UNL     1       3.155   0.743  -1.633  1.00  0.00    -0.081 Cl
HETATM   16  C   UNL     1       5.691   1.466  -2.297  1.00  0.00     0.126 A 
HETATM   17  C   UNL     1       7.159   1.458  -2.030  1.00  0.00     0.285 A 
HETATM   18 CL   UNL     1       5.147   2.360  -3.674  1.00  0.00    -0.076 Cl
HETATM   19  O   UNL     1       7.931   2.076  -2.760  1.00  0.00    -0.265 OA
ENDBRANCH   9  10
ENDBRANCH   1   9
BRANCH   6  20
HETATM   20  C   UNL     1      11.431  -4.386  -0.011  1.00  0.00     0.086 C 
HETATM   21  C   UNL     1      11.538  -4.978   1.396  1.00  0.00     0.025 C 
HETATM   22  C   UNL     1      12.875  -5.722   1.444  1.00  0.00     0.002 C 
HETATM   23  C   UNL     1      13.508  -5.553   0.069  1.00  0.00     0.002 C 
HETATM   24  C   UNL     1      12.883  -4.281  -0.473  1.00  0.00     0.025 C 
ENDBRANCH   6  20
TORSDOF 3
