REMARK  6 active torsions:
REMARK  status: ('A' for Active; 'I' for Inactive)
REMARK    1  A    between atoms: N_2  and  C_13 
REMARK    2  A    between atoms: C_6  and  N_8 
REMARK    3  A    between atoms: C_13  and  C_16 
REMARK    4  A    between atoms: N_14  and  C_19 
REMARK    5  A    between atoms: C_16  and  O_27 
REMARK    6  A    between atoms: C_19  and  C_24 
ROOT
HETATM    1  C   UNL     1       0.350  -0.725  -0.108  1.00  0.00     0.117 A 
HETATM    2  N   UNL     1       1.434   1.168  -0.083  1.00  0.00    -0.324 N 
HETATM    3  C   UNL     1       0.172   0.644  -0.125  1.00  0.00     0.140 A 
HETATM    4  N   UNL     1       1.698  -1.037  -0.107  1.00  0.00    -0.346 N 
ATOM      5  HN  UNL     1       2.121  -1.965  -0.145  1.00  0.00     0.167 HD
HETATM    6  C   UNL     1      -0.815  -1.518  -0.057  1.00  0.00     0.114 A 
HETATM    7  C   UNL     1       2.316   0.123  -0.047  1.00  0.00     0.185 A 
HETATM    8  N   UNL     1      -0.986   1.326  -0.142  1.00  0.00    -0.336 N 
ATOM      9  HN  UNL     1      -1.064   2.342  -0.186  1.00  0.00     0.168 HD
HETATM   10  N   UNL     1      -2.014  -0.871  -0.042  1.00  0.00    -0.341 N 
ATOM     11  HN  UNL     1      -2.886  -1.397   0.007  1.00  0.00     0.167 HD
HETATM   12  C   UNL     1      -2.028   0.476  -0.093  1.00  0.00     0.183 A 
ENDROOT
BRANCH   6  13
HETATM   13  N   UNL     1      -0.749  -2.908   0.045  1.00  0.00    -0.264 NA
HETATM   14  C   UNL     1      -1.872  -3.522   0.759  1.00  0.00     0.127 C 
HETATM   15  C   UNL     1      -1.575  -5.025   0.948  1.00  0.00     0.287 C 
HETATM   16  N   UNL     1      -1.336  -5.764  -0.317  1.00  0.00     0.091 N 
HETATM   17  C   UNL     1      -0.233  -5.073  -1.044  1.00  0.00     0.287 C 
HETATM   18  C   UNL     1      -0.427  -3.548  -1.242  1.00  0.00     0.127 C 
BRANCH  16  19
HETATM   19  C   UNL     1      -2.533  -5.862  -1.169  1.00  0.00     0.279 C 
BRANCH  19  20
HETATM   20  C   UNL     1      -3.699  -6.611  -0.515  1.00  0.00     0.040 C 
HETATM   21  C   UNL     1      -3.353  -8.040  -0.115  1.00  0.00     0.173 C 
HETATM   22  O   UNL     1      -4.435  -8.884  -0.539  1.00  0.00    -0.391 OA
HETATM   23  C   UNL     1      -5.519  -8.047  -0.944  1.00  0.00     0.168 C 
HETATM   24  C   UNL     1      -4.887  -6.771  -1.444  1.00  0.00     0.035 C 
ENDBRANCH  19  20
ENDBRANCH  16  19
ENDBRANCH   6  13
BRANCH   2  25
HETATM   25  C   UNL     1       1.760   2.572   0.053  1.00  0.00     0.169 C 
BRANCH  25  26
HETATM   26  C   UNL     1       2.117   3.293  -1.267  1.00  0.00     0.078 C 
HETATM   27  C   UNL     1       2.482   4.754  -0.950  1.00  0.00     0.066 C 
HETATM   28  C   UNL     1       1.248   5.613  -0.727  1.00  0.00     0.170 C 
HETATM   29  O   UNL     1       0.427   5.580  -1.888  1.00  0.00    -0.391 OA
HETATM   30  C   UNL     1      -0.088   4.277  -2.146  1.00  0.00     0.170 C 
HETATM   31  C   UNL     1       1.031   3.260  -2.360  1.00  0.00     0.066 C 
BRANCH  26  32
HETATM   32  O   UNL     1       3.317   2.685  -1.783  1.00  0.00    -0.388 OA
HETATM   33  H   UNL     1       3.113   1.779  -2.075  1.00  0.00     0.210 HD
ENDBRANCH  26  32
ENDBRANCH  25  26
ENDBRANCH   2  25
TORSDOF 6
