REMARK  4 active torsions:
REMARK  status: ('A' for Active; 'I' for Inactive)
REMARK    1  A    between atoms: N_4  and  C_5 
REMARK    2  A    between atoms: C_5  and  C_6 
REMARK    3  A    between atoms: C_6  and  N_7 
REMARK       I    between atoms: N_7  and  C_8 
REMARK       I    between atoms: C_8  and  N_10 
REMARK    4  A    between atoms: N_10  and  C_11 
ROOT
HETATM    1  N   UNL     1       3.322   4.204  -3.973  1.00  0.00    -0.341 N 
HETATM    2  C   UNL     1       3.398   5.514  -3.530  1.00  0.00     0.320 C 
HETATM    3  O   UNL     1       2.975   5.863  -2.435  1.00  0.00    -0.247 OA
HETATM    4  N   UNL     1       4.054   6.318  -4.429  1.00  0.00    -0.306 N 
HETATM    5  H   UNL     1       3.147   4.094  -4.962  1.00  0.00     0.164 HD
HETATM    6  H   UNL     1       4.518   5.882  -5.209  1.00  0.00     0.171 HD
ENDROOT
BRANCH   1   7
HETATM    7  C   UNL     1       2.721   3.221  -3.086  1.00  0.00     0.154 C 
BRANCH   7   8
HETATM    8  C   UNL     1       3.210   1.785  -3.350  1.00  0.00     0.292 C 
BRANCH   8   9
HETATM    9  N   UNL     1       2.644   0.791  -2.416  1.00  0.00     0.095 N 
HETATM   10  C   UNL     1       3.039   1.056  -1.012  1.00  0.00     0.303 C 
HETATM   11  C   UNL     1       2.486  -0.003  -0.036  1.00  0.00     0.146 C 
HETATM   12  C   UNL     1       0.970   0.090   0.138  1.00  0.00     0.041 C 
HETATM   13  O   UNL     1       2.896  -1.323  -0.422  1.00  0.00    -0.378 OA
HETATM   14  C   UNL     1       2.552  -1.632  -1.783  1.00  0.00     0.146 C 
HETATM   15  C   UNL     1       3.108  -0.573  -2.763  1.00  0.00     0.303 C 
HETATM   16  C   UNL     1       3.126  -3.010  -2.084  1.00  0.00     0.041 C 
ENDBRANCH   8   9
ENDBRANCH   7   8
ENDBRANCH   1   7
BRANCH   4  17
HETATM   17  C   UNL     1       4.359   7.641  -4.162  1.00  0.00     0.070 A 
HETATM   18  C   UNL     1       3.927   8.507  -3.133  1.00  0.00     0.138 A 
HETATM   19  N   UNL     1       4.499   9.714  -3.207  1.00  0.00    -0.310 N 
HETATM   20  N   UNL     1       5.306   9.611  -4.274  1.00  0.00    -0.310 N 
ATOM     21  HN  UNL     1       4.356  10.520  -2.598  1.00  0.00     0.186 HD
HETATM   22  C   UNL     1       5.233   8.401  -4.903  1.00  0.00     0.138 A 
HETATM   23  H   UNL     1       5.888  10.409  -4.510  1.00  0.00     0.186 HD
ENDBRANCH   4  17
TORSDOF 4
