REMARK  5 active torsions:
REMARK  status: ('A' for Active; 'I' for Inactive)
REMARK    1  A    between atoms: C_2  and  C_3 
REMARK       I    between atoms: N_8  and  C_9 
REMARK       I    between atoms: C_9  and  N_11 
REMARK    2  A    between atoms: N_11  and  C_12 
REMARK    3  A    between atoms: C_12  and  C_13 
REMARK    4  A    between atoms: C_13  and  C_14 
REMARK    5  A    between atoms: C_18  and  C_19 
ROOT
HETATM    1  C   UNL     1       3.205   1.477  -0.326  1.00  0.00     0.112 C 
HETATM    2  C   UNL     1       3.816   2.085   0.959  1.00  0.00     0.193 C 
HETATM    3  O   UNL     1       2.808   2.603   1.843  1.00  0.00    -0.388 OA
HETATM    4  C   UNL     1       2.060   3.643   1.191  1.00  0.00     0.187 C 
HETATM    5  C   UNL     1       1.350   3.101  -0.052  1.00  0.00     0.154 C 
HETATM    6  N   UNL     1       2.316   2.480  -0.965  1.00  0.00    -0.325 N 
HETATM    7  C   UNL     1       2.595   3.144  -2.148  1.00  0.00     0.318 C 
HETATM    8  O   UNL     1       2.051   4.199  -2.468  1.00  0.00    -0.247 OA
HETATM    9  N   UNL     1       3.548   2.558  -2.931  1.00  0.00    -0.343 N 
HETATM   10  H   UNL     1       3.561   1.544  -2.912  1.00  0.00     0.164 HD
ENDROOT
BRANCH   9  11
HETATM   11  C   UNL     1       3.905   3.114  -4.225  1.00  0.00     0.131 C 
BRANCH  11  12
HETATM   12  C   UNL     1       5.325   2.743  -4.643  1.00  0.00     0.084 C 
BRANCH  12  13
HETATM   13  C   UNL     1       5.512   1.266  -4.842  1.00  0.00     0.052 A 
HETATM   14  N   UNL     1       4.861   0.325  -4.186  1.00  0.00    -0.363 N 
HETATM   15  C   UNL     1       5.326  -0.917  -4.572  1.00  0.00     0.103 A 
ATOM     16  HN  UNL     1       4.126   0.489  -3.498  1.00  0.00     0.165 HD
HETATM   17  C   UNL     1       6.336  -0.916  -5.512  1.00  0.00    -0.001 A 
HETATM   18  S   UNL     1       6.703   0.701  -5.948  1.00  0.00    -0.080 SA
BRANCH  17  19
HETATM   19  C   UNL     1       7.074  -2.068  -6.112  1.00  0.00     0.043 C 
HETATM   20  C   UNL     1       6.398  -2.585  -7.372  1.00  0.00     0.010 C 
ENDBRANCH  17  19
ENDBRANCH  12  13
ENDBRANCH  11  12
ENDBRANCH   9  11
BRANCH   1  21
HETATM   21  C   UNL     1       2.473   0.159   0.006  1.00  0.00     0.023 C 
HETATM   22  C   UNL     1       1.892  -0.542  -1.213  1.00  0.00     0.007 C 
ENDBRANCH   1  21
TORSDOF 5
