REMARK  5 active torsions:
REMARK  status: ('A' for Active; 'I' for Inactive)
REMARK    1  A    between atoms: C_2  and  C_3 
REMARK    2  A    between atoms: C_3  and  C_5 
REMARK       I    between atoms: C_5  and  N_7 
REMARK    3  A    between atoms: N_7  and  C_8 
REMARK    4  A    between atoms: C_8  and  C_9 
REMARK    5  A    between atoms: C_15  and  N_16 
ROOT
HETATM    1  C   UNL     1       7.048   2.212   3.454  1.00  0.00    -0.002 A 
HETATM    2  C   UNL     1       7.128   3.604   3.649  1.00  0.00     0.013 A 
HETATM    3  C   UNL     1       7.409   4.115   4.905  1.00  0.00     0.018 A 
HETATM    4  C   UNL     1       7.587   3.212   5.934  1.00  0.00     0.089 A 
HETATM    5  N   UNL     1       7.523   1.871   5.783  1.00  0.00    -0.356 N 
ATOM      6  HN  UNL     1       7.671   1.252   6.580  1.00  0.00     0.166 HD
HETATM    7  C   UNL     1       7.259   1.363   4.556  1.00  0.00     0.090 A 
ENDROOT
BRANCH   1   8
HETATM    8  C   UNL     1       6.724   1.711   2.074  1.00  0.00     0.164 C 
BRANCH   8   9
HETATM    9  N   UNL     1       5.290   1.721   1.869  1.00  0.00    -0.356 N 
HETATM   10  C   UNL     1       4.720   1.336   0.680  1.00  0.00     0.221 C 
HETATM   11  O   UNL     1       5.382   1.045  -0.310  1.00  0.00    -0.273 OA
HETATM   12  H   UNL     1       4.703   1.813   2.687  1.00  0.00     0.162 HD
BRANCH  10  13
HETATM   13  C   UNL     1       3.189   1.279   0.731  1.00  0.00     0.073 C 
HETATM   14  C   UNL     1       2.636   0.683  -0.562  1.00  0.00     0.020 C 
BRANCH  13  15
HETATM   15  C   UNL     1       2.615   2.677   1.027  1.00  0.00     0.009 C 
HETATM   16  C   UNL     1       1.102   2.700   1.186  1.00  0.00     0.006 C 
ENDBRANCH  13  15
ENDBRANCH  10  13
ENDBRANCH   8   9
ENDBRANCH   1   8
BRANCH   7  17
HETATM   17  N   UNL     1       7.298  -0.023   4.389  1.00  0.00    -0.265 NA
HETATM   18  C   UNL     1       8.087  -0.749   5.408  1.00  0.00     0.123 C 
HETATM   19  C   UNL     1       8.299  -2.196   4.919  1.00  0.00     0.182 C 
HETATM   20  O   UNL     1       7.058  -2.862   4.611  1.00  0.00    -0.389 OA
HETATM   21  C   UNL     1       6.299  -2.104   3.653  1.00  0.00     0.182 C 
HETATM   22  C   UNL     1       6.001  -0.697   4.195  1.00  0.00     0.123 C 
ENDBRANCH   7  17
TORSDOF 5
