REMARK  4 active torsions:
REMARK  status: ('A' for Active; 'I' for Inactive)
REMARK    1  A    between atoms: N_5  and  C_6 
REMARK    2  A    between atoms: C_6  and  C_7 
REMARK    3  A    between atoms: C_7  and  O_8 
REMARK    4  A    between atoms: C_7  and  C_9 
ROOT
HETATM    1  C   UNL     1       0.979  -0.175  -0.121  1.00  0.00     0.161 C 
HETATM    2  N   UNL     1       2.411  -0.090  -0.126  1.00  0.00    -0.302 N 
HETATM    3  C   UNL     1       3.169   1.098  -0.143  1.00  0.00     0.329 A 
HETATM    4  O   UNL     1       2.756   2.248  -0.183  1.00  0.00    -0.246 OA
HETATM    5  N   UNL     1       4.520   0.705  -0.087  1.00  0.00    -0.295 N 
HETATM    6  C   UNL     1       4.593  -0.695  -0.081  1.00  0.00     0.066 A 
HETATM    7  C   UNL     1       5.686  -1.534  -0.053  1.00  0.00     0.032 A 
HETATM    8  C   UNL     1       5.433  -2.909  -0.038  1.00  0.00     0.002 A 
HETATM    9  C   UNL     1       4.114  -3.406  -0.044  1.00  0.00     0.002 A 
HETATM   10  C   UNL     1       3.016  -2.539  -0.073  1.00  0.00     0.032 A 
HETATM   11  C   UNL     1       3.285  -1.187  -0.095  1.00  0.00     0.065 A 
ENDROOT
BRANCH   5  12
HETATM   12  C   UNL     1       5.640   1.614  -0.030  1.00  0.00     0.170 C 
BRANCH  12  13
HETATM   13  C   UNL     1       6.235   1.948  -1.415  1.00  0.00     0.169 C 
BRANCH  13  14
HETATM   14  O   UNL     1       5.273   2.588  -2.260  1.00  0.00    -0.389 OA
HETATM   15  H   UNL     1       4.642   3.069  -1.693  1.00  0.00     0.210 HD
ENDBRANCH  13  14
BRANCH  13  16
HETATM   16  C   UNL     1       7.472   2.830  -1.400  1.00  0.00    -0.025 A 
HETATM   17  C   UNL     1       8.084   3.160  -2.626  1.00  0.00     0.010 A 
HETATM   18  C   UNL     1       9.226   3.964  -2.676  1.00  0.00     0.004 A 
HETATM   19  C   UNL     1       9.783   4.452  -1.498  1.00  0.00     0.042 A 
HETATM   20  C   UNL     1       9.189   4.133  -0.285  1.00  0.00     0.117 A 
HETATM   21  F   UNL     1       9.720   4.599   0.853  1.00  0.00    -0.206 F 
HETATM   22  C   UNL     1       8.047   3.335  -0.224  1.00  0.00     0.052 A 
ENDBRANCH  13  16
ENDBRANCH  12  13
ENDBRANCH   5  12
TORSDOF 4
