REMARK  7 active torsions:
REMARK  status: ('A' for Active; 'I' for Inactive)
REMARK    1  A    between atoms: C_5  and  N_8 
REMARK    2  A    between atoms: N_8  and  S_9 
REMARK    3  A    between atoms: S_9  and  C_12 
REMARK    4  A    between atoms: C_12  and  C_13 
REMARK       I    between atoms: C_13  and  N_15 
REMARK    5  A    between atoms: N_15  and  C_16 
REMARK    6  A    between atoms: C_16  and  C_17 
REMARK    7  A    between atoms: C_17  and  C_18 
ROOT
HETATM    1  C   UNL     1       6.951   0.445  -4.146  1.00  0.00     0.259 C 
ENDROOT
BRANCH   1   2
HETATM    2  S   UNL     1       5.175   0.598  -4.242  1.00  0.00     0.218 S 
HETATM    3  O   UNL     1       4.680  -0.019  -5.452  1.00  0.00    -0.211 OA
HETATM    4  O   UNL     1       4.827   1.946  -3.848  1.00  0.00    -0.211 OA
BRANCH   2   5
HETATM    5  N   UNL     1       4.629  -0.452  -2.995  1.00  0.00    -0.215 NA
HETATM    6  H   UNL     1       5.048  -1.373  -3.149  1.00  0.00     0.140 HD
BRANCH   5   7
HETATM    7  C   UNL     1       3.123  -0.626  -2.952  1.00  0.00     0.071 C 
HETATM    8  C   UNL     1       2.370   0.679  -2.682  1.00  0.00     0.021 C 
HETATM    9  C   UNL     1       2.650   1.215  -1.280  1.00  0.00     0.006 C 
HETATM   10  C   UNL     1       2.260   0.206  -0.194  1.00  0.00    -0.019 C 
HETATM   11  C   UNL     1       0.737   0.080  -0.076  1.00  0.00     0.010 C 
HETATM   12  C   UNL     1       2.932  -1.153  -0.448  1.00  0.00     0.006 C 
HETATM   13  C   UNL     1       2.761  -1.668  -1.881  1.00  0.00     0.021 C 
ENDBRANCH   5   7
ENDBRANCH   2   5
ENDBRANCH   1   2
BRANCH   1  14
HETATM   14  C   UNL     1       7.528   1.344  -5.206  1.00  0.00     0.232 C 
HETATM   15  O   UNL     1       6.995   1.531  -6.295  1.00  0.00    -0.273 OA
HETATM   16  N   UNL     1       8.748   1.935  -4.908  1.00  0.00    -0.360 N 
HETATM   17  H   UNL     1       9.261   1.705  -4.065  1.00  0.00     0.162 HD
BRANCH  16  18
HETATM   18  C   UNL     1       9.320   2.831  -5.901  1.00  0.00     0.128 C 
BRANCH  18  19
HETATM   19  C   UNL     1      10.674   3.427  -5.538  1.00  0.00     0.076 C 
BRANCH  19  20
HETATM   20  C   UNL     1      11.105   4.347  -6.655  1.00  0.00     0.010 A 
HETATM   21  C   UNL     1      10.762   5.698  -6.634  1.00  0.00     0.025 A 
HETATM   22  C   UNL     1      11.045   6.480  -7.750  1.00  0.00     0.003 A 
HETATM   23  C   UNL     1      11.656   5.898  -8.853  1.00  0.00     0.017 A 
HETATM   24  C   UNL     1      11.974   4.553  -8.788  1.00  0.00     0.088 A 
HETATM   25  N   UNL     1      11.716   3.769  -7.717  1.00  0.00    -0.369 N 
ATOM     26  HN  UNL     1      11.971   2.781  -7.709  1.00  0.00     0.165 HD
ENDBRANCH  19  20
ENDBRANCH  18  19
ENDBRANCH  16  18
ENDBRANCH   1  14
TORSDOF 7
