REMARK  5 active torsions:
REMARK  status: ('A' for Active; 'I' for Inactive)
REMARK    1  A    between atoms: O_1  and  C_2 
REMARK    2  A    between atoms: C_2  and  C_3 
REMARK    3  A    between atoms: C_3  and  N_4 
REMARK    4  A    between atoms: C_5  and  C_6 
REMARK    5  A    between atoms: C_6  and  N_7 
ROOT
HETATM    1  N   UNL     1       4.395   1.157  -0.587  1.00  0.00    -0.331 N 
HETATM    2  C   UNL     1       5.220   1.138  -1.698  1.00  0.00     0.113 A 
HETATM    3  N   UNL     1       6.483   1.069  -1.318  1.00  0.00    -0.342 N 
ATOM      4  HN  UNL     1       7.299   0.999  -1.926  1.00  0.00     0.167 HD
HETATM    5  C   UNL     1       6.485   1.110   0.045  1.00  0.00     0.060 A 
HETATM    6  C   UNL     1       7.576   1.112   0.926  1.00  0.00     0.033 A 
HETATM    7  C   UNL     1       7.328   1.166   2.301  1.00  0.00     0.026 A 
HETATM    8  C   UNL     1       6.018   1.214   2.779  1.00  0.00     0.036 A 
HETATM    9 CL   UNL     1       5.746   1.276   4.480  1.00  0.00    -0.084 Cl
HETATM   10  C   UNL     1       4.915   1.217   1.915  1.00  0.00     0.056 A 
HETATM   11  C   UNL     1       5.187   1.165   0.541  1.00  0.00     0.064 A 
ENDROOT
BRANCH   2  12
HETATM   12  C   UNL     1       4.703   1.226  -3.116  1.00  0.00     0.348 C 
BRANCH  12  13
HETATM   13  N   UNL     1       5.744   1.241  -4.161  1.00  0.00     0.095 N 
HETATM   14  C   UNL     1       6.663   2.388  -4.081  1.00  0.00     0.273 C 
HETATM   15  C   UNL     1       6.020   3.720  -4.466  1.00  0.00     0.030 C 
HETATM   16  C   UNL     1       5.411   3.643  -5.860  1.00  0.00     0.003 C 
HETATM   17  C   UNL     1       4.488   2.435  -5.990  1.00  0.00     0.030 C 
HETATM   18  C   UNL     1       5.169   1.148  -5.511  1.00  0.00     0.273 C 
ENDBRANCH  12  13
ENDBRANCH   2  12
BRANCH   1  19
HETATM   19  C   UNL     1       2.947   1.151  -0.591  1.00  0.00     0.156 C 
BRANCH  19  20
HETATM   20  C   UNL     1       2.345   2.550  -0.608  1.00  0.00     0.184 C 
BRANCH  20  21
HETATM   21  O   UNL     1       0.925   2.447  -0.638  1.00  0.00    -0.399 OA
HETATM   22  H   UNL     1       0.567   3.353  -0.652  1.00  0.00     0.209 HD
ENDBRANCH  20  21
ENDBRANCH  19  20
ENDBRANCH   1  19
TORSDOF 5
