REMARK  8 active torsions:
REMARK  status: ('A' for Active; 'I' for Inactive)
REMARK    1  A    between atoms: O_2  and  C_3 
REMARK    2  A    between atoms: C_3  and  C_4 
REMARK    3  A    between atoms: C_4  and  N_5 
REMARK    4  A    between atoms: C_7  and  C_16 
REMARK    5  A    between atoms: C_9  and  C_10 
REMARK    6  A    between atoms: C_10  and  N_11 
REMARK    7  A    between atoms: C_16  and  C_18 
REMARK    8  A    between atoms: C_23  and  O_24 
ROOT
HETATM    1  N   UNL     1       4.965   2.005   1.757  1.00  0.00    -0.320 N 
HETATM    2  C   UNL     1       5.636   1.777   2.953  1.00  0.00     0.109 A 
HETATM    3  C   UNL     1       5.951   2.780   3.792  1.00  0.00     0.032 A 
HETATM    4  C   UNL     1       5.515   4.124   3.466  1.00  0.00     0.044 A 
HETATM    5  C   UNL     1       4.875   4.377   2.317  1.00  0.00     0.095 A 
HETATM    6  C   UNL     1       4.585   3.285   1.347  1.00  0.00     0.267 A 
HETATM    7  O   UNL     1       4.054   3.538   0.268  1.00  0.00    -0.266 OA
ENDROOT
BRANCH   3   8
HETATM    8  C   UNL     1       6.646   2.557   5.097  1.00  0.00     0.196 C 
HETATM    9  O   UNL     1       6.363   3.275   6.058  1.00  0.00    -0.286 OA
BRANCH   8  10
HETATM   10  C   UNL     1       7.661   1.487   5.284  1.00  0.00     0.048 A 
HETATM   11  C   UNL     1       7.773   0.951   6.579  1.00  0.00     0.018 A 
HETATM   12  C   UNL     1       8.741  -0.009   6.872  1.00  0.00     0.001 A 
HETATM   13  C   UNL     1       9.610  -0.444   5.875  1.00  0.00     0.003 A 
HETATM   14  C   UNL     1       9.514   0.081   4.585  1.00  0.00     0.037 A 
HETATM   15  C   UNL     1       8.552   1.052   4.294  1.00  0.00     0.079 A 
BRANCH  15  16
HETATM   16  O   UNL     1       8.523   1.588   3.037  1.00  0.00    -0.360 OA
HETATM   17  H   UNL     1       9.214   1.178   2.489  1.00  0.00     0.217 HD
ENDBRANCH  15  16
ENDBRANCH   8  10
ENDBRANCH   3   8
BRANCH   1  18
HETATM   18  C   UNL     1       4.540   0.863   0.941  1.00  0.00     0.158 C 
BRANCH  18  19
HETATM   19  C   UNL     1       3.518  -0.019   1.665  1.00  0.00     0.187 C 
BRANCH  19  20
HETATM   20  O   UNL     1       2.407   0.778   2.087  1.00  0.00    -0.394 OA
HETATM   21  C   UNL     1       1.490   0.033   2.873  1.00  0.00     0.201 C 
ENDBRANCH  19  20
ENDBRANCH  18  19
ENDBRANCH   1  18
BRANCH   5  22
HETATM   22  C   UNL     1       4.450   5.786   1.937  1.00  0.00    -0.031 C 
BRANCH  22  23
HETATM   23  N   UNL     1       4.098   6.955   1.622  1.00  0.00    -0.365 N 
ATOM     24  HN2 UNL     1       4.405   6.019   1.886  1.00  0.00     0.165 HD
ATOM     25  HN1 UNL     1       3.813   7.901   1.367  1.00  0.00     0.165 HD
ENDBRANCH  22  23
ENDBRANCH   5  22
TORSDOF 8
