REMARK  3 active torsions:
REMARK  status: ('A' for Active; 'I' for Inactive)
REMARK       I    between atoms: C_2  and  N_3 
REMARK       I    between atoms: C_2  and  N_13 
REMARK    1  A    between atoms: N_3  and  C_4 
REMARK    2  A    between atoms: C_4  and  C_5 
REMARK    3  A    between atoms: C_5  and  C_6 
ROOT
HETATM    1  O   UNL     1       1.131  -0.066   0.267  1.00  0.00    -0.247 OA
HETATM    2  C   UNL     1       2.349   0.000   0.107  1.00  0.00     0.318 C 
HETATM    3  N   UNL     1       2.920  -0.254  -1.107  1.00  0.00    -0.343 N 
HETATM    4  N   UNL     1       3.240   0.305   1.133  1.00  0.00    -0.334 N 
HETATM    5  C   UNL     1       4.676   0.550   0.966  1.00  0.00     0.127 C 
HETATM    6  C   UNL     1       4.931   2.024   0.664  1.00  0.00     0.020 C 
HETATM    7  C   UNL     1       5.154   2.859   1.924  1.00  0.00     0.002 C 
HETATM    8  C   UNL     1       4.289   2.509   3.138  1.00  0.00     0.002 C 
HETATM    9  C   UNL     1       2.844   2.119   2.820  1.00  0.00     0.020 C 
HETATM   10  C   UNL     1       2.689   0.640   2.446  1.00  0.00     0.127 C 
HETATM   11  H   UNL     1       3.908  -0.142  -1.218  1.00  0.00     0.164 HD
ENDROOT
BRANCH   3  12
HETATM   12  C   UNL     1       2.166  -0.536  -2.317  1.00  0.00     0.130 C 
BRANCH  12  13
HETATM   13  C   UNL     1       3.102  -1.149  -3.354  1.00  0.00     0.076 C 
BRANCH  13  14
HETATM   14  C   UNL     1       2.407  -1.551  -4.621  1.00  0.00     0.010 A 
HETATM   15  C   UNL     1       1.823  -2.806  -4.736  1.00  0.00     0.025 A 
HETATM   16  C   UNL     1       1.248  -3.164  -5.952  1.00  0.00     0.003 A 
HETATM   17  C   UNL     1       1.272  -2.266  -7.011  1.00  0.00     0.017 A 
HETATM   18  C   UNL     1       1.863  -1.033  -6.806  1.00  0.00     0.088 A 
HETATM   19  N   UNL     1       2.430  -0.656  -5.639  1.00  0.00    -0.369 N 
ATOM     20  HN  UNL     1       2.857   0.264  -5.529  1.00  0.00     0.165 HD
ENDBRANCH  13  14
ENDBRANCH  12  13
ENDBRANCH   3  12
TORSDOF 3
