REMARK  5 active torsions:
REMARK  status: ('A' for Active; 'I' for Inactive)
REMARK    1  A    between atoms: C_2  and  C_3 
REMARK    2  A    between atoms: C_2  and  N_10 
REMARK    3  A    between atoms: C_3  and  N_4 
REMARK    4  A    between atoms: N_10  and  C_11 
REMARK    5  A    between atoms: C_11  and  C_12 
REMARK       I    between atoms: C_12  and  N_14 
ROOT
HETATM    1  N   UNL     1       2.984  -0.041   1.497  1.00  0.00     0.098 N 
HETATM    2  H   UNL     1       2.546  -0.794   2.035  1.00  0.00     0.317 HD
ENDROOT
BRANCH   1   3
HETATM    3  C   UNL     1       2.433   0.008   0.122  1.00  0.00     0.236 C 
HETATM    4  C   UNL     1       0.905   0.051   0.234  1.00  0.00     0.044 C 
BRANCH   3   5
HETATM    5  C   UNL     1       2.972   1.226  -0.659  1.00  0.00     0.183 C 
BRANCH   5   6
HETATM    6  N   UNL     1       2.487   1.329  -2.020  1.00  0.00    -0.302 N 
HETATM    7  C   UNL     1       1.867   2.408  -2.579  1.00  0.00     0.111 A 
HETATM    8  C   UNL     1       1.668   2.086  -3.901  1.00  0.00     0.037 A 
HETATM    9  C   UNL     1       2.217   0.800  -4.041  1.00  0.00     0.108 A 
HETATM   10  N   UNL     1       2.735   0.339  -2.899  1.00  0.00    -0.310 N 
ATOM     11  HN  UNL     1       3.206  -0.550  -2.733  1.00  0.00     0.186 HD
ENDBRANCH   5   6
ENDBRANCH   3   5
ENDBRANCH   1   3
BRANCH   1  12
HETATM   12  C   UNL     1       4.436  -0.266   1.484  1.00  0.00     0.372 C 
BRANCH  12  13
HETATM   13  C   UNL     1       5.034  -0.432   2.886  1.00  0.00     0.248 C 
HETATM   14  O   UNL     1       4.343  -0.441   3.902  1.00  0.00    -0.271 OA
HETATM   15  N   UNL     1       6.419  -0.576   2.920  1.00  0.00    -0.340 N 
HETATM   16  C   UNL     1       7.305  -0.607   1.753  1.00  0.00     0.146 C 
HETATM   17  C   UNL     1       7.101  -0.645   4.213  1.00  0.00     0.228 C 
HETATM   18  C   UNL     1       8.176  -1.862   1.797  1.00  0.00     0.142 C 
HETATM   19  N   UNL     1       8.822  -2.044   3.080  1.00  0.00    -0.358 N 
HETATM   20  C   UNL     1       8.219  -1.698   4.267  1.00  0.00     0.235 C 
HETATM   21  H   UNL     1       9.531  -2.762   3.180  1.00  0.00     0.162 HD
HETATM   22  O   UNL     1       8.689  -2.112   5.322  1.00  0.00    -0.272 OA
ENDBRANCH  12  13
ENDBRANCH   1  12
TORSDOF 5
