REMARK  5 active torsions:
REMARK  status: ('A' for Active; 'I' for Inactive)
REMARK    1  A    between atoms: C_2  and  C_3 
REMARK       I    between atoms: C_3  and  N_5 
REMARK    2  A    between atoms: C_10  and  C_11 
REMARK       I    between atoms: C_11  and  N_13 
REMARK    3  A    between atoms: N_13  and  C_14 
REMARK    4  A    between atoms: C_14  and  C_15 
REMARK    5  A    between atoms: C_15  and  N_16 
ROOT
HETATM    1  C   UNL     1       4.302  -3.958  -0.476  1.00  0.00     0.240 C 
HETATM    2  O   UNL     1       3.998  -4.791  -1.331  1.00  0.00    -0.271 OA
HETATM    3  N   UNL     1       4.033  -4.161   0.865  1.00  0.00    -0.358 N 
HETATM    4  H   UNL     1       4.014  -3.348   1.466  1.00  0.00     0.162 HD
ENDROOT
BRANCH   1   5
HETATM    5  C   UNL     1       5.152  -2.692  -0.793  1.00  0.00     0.179 C 
HETATM    6  N   UNL     1       4.576  -1.324  -0.810  1.00  0.00    -0.339 N 
HETATM    7  C   UNL     1       3.197  -1.114  -0.855  1.00  0.00     0.220 C 
HETATM    8  C   UNL     1       5.562  -0.265  -1.078  1.00  0.00     0.127 C 
HETATM    9  O   UNL     1       2.390  -2.021  -0.663  1.00  0.00    -0.273 OA
HETATM   10  C   UNL     1       6.287  -0.509  -2.399  1.00  0.00     0.020 C 
HETATM   11  C   UNL     1       6.955  -1.878  -2.388  1.00  0.00     0.004 C 
HETATM   12  C   UNL     1       5.923  -2.963  -2.105  1.00  0.00     0.035 C 
BRANCH   7  13
HETATM   13  C   UNL     1       2.733   0.314  -1.123  1.00  0.00     0.098 C 
HETATM   14  C   UNL     1       1.224   0.490  -1.086  1.00  0.00     0.014 C 
ENDBRANCH   7  13
ENDBRANCH   1   5
BRANCH   3  15
HETATM   15  C   UNL     1       3.341  -5.371   1.296  1.00  0.00     0.144 C 
BRANCH  15  16
HETATM   16  C   UNL     1       4.257  -6.593   1.322  1.00  0.00     0.167 C 
BRANCH  16  17
HETATM   17  N   UNL     1       3.536  -7.800   1.683  1.00  0.00    -0.302 N 
HETATM   18  C   UNL     1       2.944  -8.682   0.826  1.00  0.00     0.118 A 
HETATM   19  C   UNL     1       2.362  -9.657   1.609  1.00  0.00    -0.028 A 
HETATM   20  C   UNL     1       1.574 -10.833   1.177  1.00  0.00     0.051 C 
HETATM   21  C   UNL     1       2.688  -9.272   2.930  1.00  0.00     0.115 A 
HETATM   22  N   UNL     1       3.401  -8.144   2.978  1.00  0.00    -0.310 N 
ATOM     23  HN  UNL     1       3.759  -7.658   3.800  1.00  0.00     0.186 HD
ENDBRANCH  16  17
ENDBRANCH  15  16
ENDBRANCH   3  15
TORSDOF 5
