REMARK  5 active torsions:
REMARK  status: ('A' for Active; 'I' for Inactive)
REMARK    1  A    between atoms: C_2  and  C_4 
REMARK    2  A    between atoms: C_4  and  N_5 
REMARK    3  A    between atoms: C_4  and  C_9 
REMARK       I    between atoms: N_5  and  C_6 
REMARK       I    between atoms: C_9  and  N_11 
REMARK    4  A    between atoms: N_11  and  C_12 
REMARK    5  A    between atoms: C_15  and  N_19 
ROOT
HETATM    1  C   UNL     1       6.867   2.710   0.422  1.00  0.00     0.050 A 
HETATM    2  C   UNL     1       7.557   3.907   0.359  1.00  0.00     0.035 A 
HETATM    3  C   UNL     1       8.948   3.898   0.225  1.00  0.00     0.051 A 
HETATM    4  C   UNL     1       9.655   2.698   0.150  1.00  0.00     0.103 A 
HETATM    5  N   UNL     1       8.989   1.524   0.217  1.00  0.00    -0.350 N 
ATOM      6  HN  UNL     1       9.491   0.637   0.176  1.00  0.00     0.166 HD
HETATM    7  C   UNL     1       7.633   1.552   0.341  1.00  0.00     0.119 A 
ENDROOT
BRANCH   1   8
HETATM    8  N   UNL     1       5.466   2.625   0.524  1.00  0.00    -0.324 N 
HETATM    9  C   UNL     1       4.590   3.651   0.835  1.00  0.00     0.245 C 
HETATM   10  O   UNL     1       4.909   4.771   1.232  1.00  0.00    -0.271 OA
HETATM   11  H   UNL     1       5.053   1.693   0.432  1.00  0.00     0.169 HD
BRANCH   9  12
HETATM   12  C   UNL     1       3.092   3.298   0.638  1.00  0.00     0.180 C 
BRANCH  12  13
HETATM   13  C   UNL     1       2.750   2.942  -0.830  1.00  0.00     0.009 C 
HETATM   14  C   UNL     1       1.248   2.707  -1.022  1.00  0.00     0.012 C 
HETATM   15  C   UNL     1       3.198   4.056  -1.789  1.00  0.00     0.012 C 
ENDBRANCH  12  13
BRANCH  12  16
HETATM   16  N   UNL     1       2.667   2.313   1.642  1.00  0.00    -0.348 N 
HETATM   17  C   UNL     1       3.068   1.001   1.655  1.00  0.00     0.214 C 
HETATM   18  O   UNL     1       3.816   0.519   0.805  1.00  0.00    -0.274 OA
HETATM   19  C   UNL     1       2.602   0.216   2.848  1.00  0.00     0.117 C 
HETATM   20  H   UNL     1       2.210   2.680   2.468  1.00  0.00     0.163 HD
ENDBRANCH  12  16
ENDBRANCH   9  12
ENDBRANCH   1   8
BRANCH   4  21
HETATM   21  N   UNL     1      11.033   2.697   0.071  1.00  0.00    -0.362 N 
HETATM   22  C   UNL     1      11.774   3.702  -0.703  1.00  0.00     0.156 C 
HETATM   23  C   UNL     1      12.435   3.060  -1.943  1.00  0.00     0.136 C 
HETATM   24  C   UNL     1      13.338   4.062  -2.651  1.00  0.00     0.041 C 
HETATM   25  O   UNL     1      13.249   1.933  -1.573  1.00  0.00    -0.378 OA
HETATM   26  C   UNL     1      12.448   0.919  -0.931  1.00  0.00     0.136 C 
HETATM   27  C   UNL     1      13.381  -0.240  -0.602  1.00  0.00     0.041 C 
HETATM   28  C   UNL     1      11.785   1.466   0.350  1.00  0.00     0.156 C 
ENDBRANCH   4  21
TORSDOF 5
