REMARK  5 active torsions:
REMARK  status: ('A' for Active; 'I' for Inactive)
REMARK    1  A    between atoms: C_2  and  C_3 
REMARK    2  A    between atoms: C_2  and  N_15 
REMARK    3  A    between atoms: C_3  and  N_4 
REMARK       I    between atoms: N_4  and  C_5 
REMARK    4  A    between atoms: C_5  and  C_7 
REMARK    5  A    between atoms: C_7  and  N_8 
ROOT
HETATM    1  N   UNL     1       2.527   2.393   0.219  1.00  0.00    -0.358 N 
HETATM    2  C   UNL     1       2.406   3.504   1.022  1.00  0.00     0.235 C 
HETATM    3  O   UNL     1       2.625   3.467   2.234  1.00  0.00    -0.272 OA
HETATM    4  H   UNL     1       2.450   2.460  -0.791  1.00  0.00     0.162 HD
ENDROOT
BRANCH   1   5
HETATM    5  C   UNL     1       2.985   1.124   0.754  1.00  0.00     0.158 C 
BRANCH   5   6
HETATM    6  C   UNL     1       2.491  -0.082  -0.083  1.00  0.00     0.236 C 
HETATM    7  C   UNL     1       2.943  -1.372   0.618  1.00  0.00     0.044 C 
BRANCH   6   8
HETATM    8  N   UNL     1       2.865   0.038  -1.507  1.00  0.00     0.094 N 
HETATM    9  C   UNL     1       2.255  -0.968  -2.383  1.00  0.00     0.273 C 
HETATM   10  C   UNL     1       3.243  -1.185  -3.524  1.00  0.00     0.032 C 
HETATM   11  C   UNL     1       4.335  -0.157  -3.298  1.00  0.00     0.032 C 
HETATM   12  C   UNL     1       4.296   0.075  -1.799  1.00  0.00     0.273 C 
ENDBRANCH   6   8
ENDBRANCH   5   6
ENDBRANCH   1   5
BRANCH   2  13
HETATM   13  C   UNL     1       1.962   4.784   0.312  1.00  0.00     0.234 C 
BRANCH  13  14
HETATM   14  N   UNL     1       0.671   5.276   0.793  1.00  0.00    -0.316 N 
HETATM   15  C   UNL     1       0.565   5.772   2.084  1.00  0.00     0.095 A 
HETATM   16  C   UNL     1      -0.599   6.233   2.559  1.00  0.00     0.017 A 
HETATM   17  C   UNL     1      -1.762   6.258   1.710  1.00  0.00     0.007 A 
HETATM   18  C   UNL     1      -1.703   5.763   0.467  1.00  0.00     0.074 A 
HETATM   19  C   UNL     1      -0.432   5.188  -0.053  1.00  0.00     0.247 A 
HETATM   20  O   UNL     1      -0.411   4.702  -1.183  1.00  0.00    -0.268 OA
ENDBRANCH  13  14
ENDBRANCH   2  13
TORSDOF 5
