REMARK  5 active torsions:
REMARK  status: ('A' for Active; 'I' for Inactive)
REMARK    1  A    between atoms: N_6  and  C_7 
REMARK    2  A    between atoms: C_7  and  C_8 
REMARK    3  A    between atoms: C_8  and  N_9 
REMARK       I    between atoms: N_9  and  C_10 
REMARK    4  A    between atoms: C_10  and  C_12 
REMARK    5  A    between atoms: C_12  and  N_13 
ROOT
HETATM    1  N   UNL     1       3.181  -4.905  -3.649  1.00  0.00    -0.358 N 
HETATM    2  C   UNL     1       2.641  -5.973  -2.958  1.00  0.00     0.237 C 
HETATM    3  O   UNL     1       1.866  -5.841  -2.012  1.00  0.00    -0.272 OA
HETATM    4  H   UNL     1       3.592  -5.115  -4.559  1.00  0.00     0.162 HD
ENDROOT
BRANCH   1   5
HETATM    5  C   UNL     1       2.749  -3.540  -3.398  1.00  0.00     0.152 C 
BRANCH   5   6
HETATM    6  C   UNL     1       3.238  -2.981  -2.044  1.00  0.00     0.292 C 
BRANCH   6   7
HETATM    7  N   UNL     1       2.767  -1.611  -1.738  1.00  0.00     0.090 N 
HETATM    8  C   UNL     1       3.286  -0.618  -2.689  1.00  0.00     0.272 C 
HETATM    9  C   UNL     1       2.801   0.797  -2.368  1.00  0.00     0.031 C 
HETATM   10  C   UNL     1       3.115   1.186  -0.927  1.00  0.00     0.007 C 
HETATM   11  C   UNL     1       2.614   0.126   0.060  1.00  0.00     0.010 C 
HETATM   12  C   UNL     1       1.086   0.137   0.180  1.00  0.00     0.011 C 
HETATM   13  C   UNL     1       3.140  -1.259  -0.355  1.00  0.00     0.276 C 
ENDBRANCH   6   7
ENDBRANCH   5   6
ENDBRANCH   1   5
BRANCH   2  14
HETATM   14  C   UNL     1       3.123  -7.332  -3.399  1.00  0.00     0.251 C 
BRANCH  14  15
HETATM   15  N   UNL     1       2.681  -7.640  -4.744  1.00  0.00    -0.288 N 
HETATM   16  N   UNL     1       3.503  -7.348  -5.777  1.00  0.00    -0.303 N 
HETATM   17  C   UNL     1       2.866  -7.833  -6.849  1.00  0.00     0.024 A 
ATOM     18  HN  UNL     1       4.402  -6.868  -5.746  1.00  0.00     0.186 HD
HETATM   19  C   UNL     1       3.474  -7.756  -8.198  1.00  0.00     0.070 C 
HETATM   20  C   UNL     1       1.615  -8.387  -6.503  1.00  0.00     0.052 A 
HETATM   21  C   UNL     1       1.509  -8.235  -5.137  1.00  0.00     0.027 A 
HETATM   22  C   UNL     1       0.411  -8.615  -4.215  1.00  0.00     0.070 C 
ENDBRANCH  14  15
ENDBRANCH   2  14
TORSDOF 5
