REMARK  6 active torsions:
REMARK  status: ('A' for Active; 'I' for Inactive)
REMARK    1  A    between atoms: N_2  and  C_4 
REMARK    2  A    between atoms: C_4  and  C_5 
REMARK    3  A    between atoms: C_5  and  C_8 
REMARK    4  A    between atoms: C_8  and  N_9 
REMARK       I    between atoms: N_9  and  C_10 
REMARK    5  A    between atoms: C_10  and  C_12 
REMARK    6  A    between atoms: C_18  and  N_19 
ROOT
HETATM    1  C   UNL     1       8.765  -3.352  -2.265  1.00  0.00     0.070 A 
HETATM    2  C   UNL     1       9.465  -4.572  -2.299  1.00  0.00     0.022 A 
HETATM    3  C   UNL     1      10.835  -4.580  -2.449  1.00  0.00     0.018 A 
HETATM    4  C   UNL     1      11.458  -3.361  -2.560  1.00  0.00     0.089 A 
HETATM    5  N   UNL     1      10.813  -2.160  -2.509  1.00  0.00    -0.356 N 
ATOM      6  HN  UNL     1      11.336  -1.287  -2.579  1.00  0.00     0.166 HD
HETATM    7  C   UNL     1       9.462  -2.146  -2.363  1.00  0.00     0.098 A 
ENDROOT
BRANCH   1   8
HETATM    8  C   UNL     1       7.309  -3.495  -2.208  1.00  0.00     0.254 C 
HETATM    9  N   UNL     1       6.564  -2.607  -1.457  1.00  0.00    -0.356 N 
HETATM   10  H   UNL     1       7.099  -1.859  -1.024  1.00  0.00     0.162 HD
HETATM   11  O   UNL     1       6.878  -4.433  -2.873  1.00  0.00    -0.268 OA
BRANCH   9  12
HETATM   12  C   UNL     1       5.091  -2.451  -1.445  1.00  0.00     0.133 C 
BRANCH  12  13
HETATM   13  C   UNL     1       4.228  -3.588  -2.074  1.00  0.00    -0.005 C 
HETATM   14  C   UNL     1       4.533  -4.903  -1.310  1.00  0.00     0.018 C 
HETATM   15  C   UNL     1       4.502  -3.563  -3.602  1.00  0.00     0.018 C 
BRANCH  13  16
HETATM   16  C   UNL     1       2.693  -3.317  -1.864  1.00  0.00     0.281 C 
BRANCH  16  17
HETATM   17  N   UNL     1       1.761  -4.412  -2.247  1.00  0.00     0.080 N 
HETATM   18  C   UNL     1       0.385  -4.061  -1.906  1.00  0.00     0.309 C 
HETATM   19  C   UNL     1       1.819  -4.818  -3.652  1.00  0.00     0.309 C 
ENDBRANCH  16  17
ENDBRANCH  13  16
ENDBRANCH  12  13
ENDBRANCH   9  12
ENDBRANCH   1   8
BRANCH   7  20
HETATM   20  N   UNL     1       8.831  -0.909  -2.211  1.00  0.00    -0.265 NA
HETATM   21  C   UNL     1       9.734   0.198  -1.837  1.00  0.00     0.123 C 
HETATM   22  C   UNL     1       8.861   1.330  -1.274  1.00  0.00     0.182 C 
HETATM   23  O   UNL     1       7.889   1.779  -2.239  1.00  0.00    -0.389 OA
HETATM   24  C   UNL     1       7.057   0.689  -2.680  1.00  0.00     0.182 C 
HETATM   25  C   UNL     1       7.900  -0.463  -3.273  1.00  0.00     0.123 C 
ENDBRANCH   7  20
TORSDOF 6
