REMARK  6 active torsions:
REMARK  status: ('A' for Active; 'I' for Inactive)
REMARK    1  A    between atoms: C_8  and  C_9 
REMARK    2  A    between atoms: C_9  and  N_10 
REMARK    3  A    between atoms: N_10  and  C_11 
REMARK    4  A    between atoms: C_11  and  C_12 
REMARK    5  A    between atoms: C_12  and  O_14 
REMARK    6  A    between atoms: C_12  and  C_15 
ROOT
HETATM    1  C   UNL     1      -0.389  -3.163   0.073  1.00  0.00     0.311 C 
ENDROOT
BRANCH   1   2
HETATM    2  N   UNL     1       0.790  -2.336   0.377  1.00  0.00     0.087 N 
HETATM    3  H   UNL     1       0.464  -1.437   0.737  1.00  0.00     0.316 HD
BRANCH   2   4
HETATM    4  C   UNL     1       1.587  -2.074  -0.822  1.00  0.00     0.279 C 
BRANCH   4   5
HETATM    5  C   UNL     1       2.798  -1.144  -0.516  1.00  0.00     0.045 C 
HETATM    6  C   UNL     1       3.988  -1.825   0.245  1.00  0.00    -0.009 C 
HETATM    7  C   UNL     1       3.937  -3.362   0.326  1.00  0.00     0.011 C 
HETATM    8  C   UNL     1       4.383  -1.276   1.629  1.00  0.00     0.009 C 
HETATM    9  C   UNL     1       3.741   0.005   2.134  1.00  0.00     0.028 C 
HETATM   10  C   UNL     1       2.774   0.676   1.231  1.00  0.00    -0.024 C 
HETATM   11  C   UNL     1       2.343   0.198   0.055  1.00  0.00    -0.081 C 
HETATM   12  C   UNL     1       1.348   0.995  -0.752  1.00  0.00     0.043 C 
ENDBRANCH   4   5
ENDBRANCH   2   4
ENDBRANCH   1   2
BRANCH   1  13
HETATM   13  C   UNL     1      -1.215  -3.472   1.361  1.00  0.00     0.110 C 
HETATM   14  C   UNL     1      -0.362  -4.243   2.383  1.00  0.00     0.053 C 
BRANCH  13  15
HETATM   15  O   UNL     1      -1.574  -2.211   1.967  1.00  0.00    -0.383 OA
HETATM   16  H   UNL     1      -0.770  -1.881   2.402  1.00  0.00     0.211 HD
ENDBRANCH  13  15
BRANCH  13  17
HETATM   17  C   UNL     1      -2.462  -4.239   1.016  1.00  0.00     0.011 A 
HETATM   18  C   UNL     1      -2.573  -5.525   0.437  1.00  0.00     0.119 A 
HETATM   19  N   UNL     1      -3.837  -5.907   0.251  1.00  0.00    -0.310 N 
HETATM   20  N   UNL     1      -4.549  -4.870   0.716  1.00  0.00    -0.307 N 
ATOM     21  HN  UNL     1      -4.180  -6.780  -0.150  1.00  0.00     0.186 HD
HETATM   22  C   UNL     1      -5.987  -4.894   0.676  1.00  0.00     0.177 C 
HETATM   23  C   UNL     1      -3.777  -3.851   1.186  1.00  0.00     0.121 A 
ENDBRANCH  13  17
ENDBRANCH   1  13
TORSDOF 6
