REMARK  4 active torsions:
REMARK  status: ('A' for Active; 'I' for Inactive)
REMARK       I    between atoms: C_2  and  N_3 
REMARK       I    between atoms: C_2  and  N_11 
REMARK    1  A    between atoms: N_3  and  C_4 
REMARK    2  A    between atoms: C_4  and  C_5 
REMARK    3  A    between atoms: C_5  and  N_6 
REMARK    4  A    between atoms: N_11  and  C_12 
ROOT
HETATM    1  O   UNL     1       3.705   1.049  -0.358  1.00  0.00    -0.247 OA
HETATM    2  C   UNL     1       3.138   0.405  -1.233  1.00  0.00     0.320 C 
HETATM    3  N   UNL     1       2.710  -0.851  -0.922  1.00  0.00    -0.341 N 
HETATM    4  N   UNL     1       2.876   0.814  -2.512  1.00  0.00    -0.309 N 
HETATM    5  H   UNL     1       2.923  -1.101   0.036  1.00  0.00     0.164 HD
HETATM    6  H   UNL     1       2.380   0.165  -3.099  1.00  0.00     0.170 HD
ENDROOT
BRANCH   3   7
HETATM    7  C   UNL     1       2.031  -1.830  -1.749  1.00  0.00     0.154 C 
BRANCH   7   8
HETATM    8  C   UNL     1       2.999  -2.622  -2.652  1.00  0.00     0.292 C 
BRANCH   8   9
HETATM    9  N   UNL     1       2.305  -3.480  -3.634  1.00  0.00     0.096 N 
HETATM   10  C   UNL     1       1.493  -4.535  -2.978  1.00  0.00     0.300 C 
HETATM   11  C   UNL     1       2.281  -5.788  -3.097  1.00  0.00     0.001 C 
HETATM   12  C   UNL     1       3.304  -5.611  -3.933  1.00  0.00     0.001 C 
HETATM   13  C   UNL     1       3.300  -4.217  -4.460  1.00  0.00     0.300 C 
ENDBRANCH   8   9
ENDBRANCH   7   8
ENDBRANCH   3   7
BRANCH   4  14
HETATM   14  C   UNL     1       3.187   2.054  -3.102  1.00  0.00     0.038 A 
HETATM   15  C   UNL     1       3.891   3.065  -2.460  1.00  0.00     0.046 A 
HETATM   16  C   UNL     1       4.133   4.241  -3.155  1.00  0.00     0.090 A 
HETATM   17  N   UNL     1       3.725   4.467  -4.422  1.00  0.00    -0.375 N 
HETATM   18  C   UNL     1       3.043   3.470  -5.022  1.00  0.00     0.090 A 
ATOM     19  HN  UNL     1       3.922   5.346  -4.901  1.00  0.00     0.164 HD
HETATM   20  C   UNL     1       2.755   2.260  -4.412  1.00  0.00     0.046 A 
ENDBRANCH   4  14
TORSDOF 4
