REMARK  6 active torsions:
REMARK  status: ('A' for Active; 'I' for Inactive)
REMARK    1  A    between atoms: N_6  and  C_7 
REMARK    2  A    between atoms: C_7  and  C_8 
REMARK       I    between atoms: C_8  and  N_10 
REMARK    3  A    between atoms: N_10  and  C_11 
REMARK    4  A    between atoms: C_11  and  C_13 
REMARK    5  A    between atoms: C_11  and  C_15 
REMARK    6  A    between atoms: C_13  and  O_14 
ROOT
HETATM    1  C   UNL     1       5.621  -3.225   1.482  1.00  0.00     0.238 C 
HETATM    2  O   UNL     1       5.176  -3.628   2.551  1.00  0.00    -0.272 OA
HETATM    3  N   UNL     1       5.824  -4.008   0.358  1.00  0.00    -0.348 N 
HETATM    4  H   UNL     1       6.099  -3.510  -0.485  1.00  0.00     0.163 HD
ENDROOT
BRANCH   3   5
HETATM    5  C   UNL     1       5.630  -5.472   0.219  1.00  0.00     0.054 C 
HETATM    6  C   UNL     1       4.904  -6.115   1.431  1.00  0.00     0.041 C 
BRANCH   5   7
HETATM    7  C   UNL     1       4.691  -5.696  -1.011  1.00  0.00     0.195 C 
BRANCH   7   8
HETATM    8  O   UNL     1       3.419  -5.072  -0.829  1.00  0.00    -0.398 OA
HETATM    9  H   UNL     1       3.594  -4.169  -0.504  1.00  0.00     0.209 HD
ENDBRANCH   7   8
ENDBRANCH   5   7
BRANCH   5  10
HETATM   10  C   UNL     1       7.013  -6.217   0.006  1.00  0.00     0.015 C 
HETATM   11  C   UNL     1       8.042  -6.012   1.144  1.00  0.00     0.007 C 
HETATM   12  C   UNL     1       8.883  -4.743   1.021  1.00  0.00     0.000 C 
HETATM   13  C   UNL     1       9.573  -4.653  -0.331  1.00  0.00     0.000 C 
HETATM   14  C   UNL     1       8.582  -4.776  -1.480  1.00  0.00     0.000 C 
HETATM   15  C   UNL     1       7.718  -6.029  -1.358  1.00  0.00     0.007 C 
ENDBRANCH   5  10
ENDBRANCH   3   5
BRANCH   1  16
HETATM   16  C   UNL     1       6.021  -1.777   1.313  1.00  0.00     0.251 C 
BRANCH  16  17
HETATM   17  N   UNL     1       4.935  -1.013   0.741  1.00  0.00    -0.288 N 
HETATM   18  C   UNL     1       3.957  -0.312   1.396  1.00  0.00     0.027 A 
HETATM   19  C   UNL     1       3.174   0.243   0.402  1.00  0.00     0.052 A 
HETATM   20  C   UNL     1       3.836  -0.233   2.874  1.00  0.00     0.070 C 
HETATM   21  C   UNL     1       3.763  -0.171  -0.811  1.00  0.00     0.024 A 
HETATM   22  C   UNL     1       3.327   0.148  -2.190  1.00  0.00     0.070 C 
HETATM   23  N   UNL     1       4.835  -0.944  -0.602  1.00  0.00    -0.303 N 
ATOM     24  HN  UNL     1       5.438  -1.381  -1.299  1.00  0.00     0.186 HD
ENDBRANCH  16  17
ENDBRANCH   1  16
TORSDOF 6
