REMARK  3 active torsions:
REMARK  status: ('A' for Active; 'I' for Inactive)
REMARK    1  A    between atoms: C_9  and  N_11 
REMARK       I    between atoms: N_11  and  C_12 
REMARK       I    between atoms: C_12  and  N_14 
REMARK    2  A    between atoms: N_14  and  C_15 
REMARK    3  A    between atoms: C_18  and  N_22 
ROOT
HETATM    1  N   UNL     1       6.396   0.106   0.319  1.00  0.00    -0.338 N 
HETATM    2  C   UNL     1       7.156   1.242   0.450  1.00  0.00     0.321 C 
HETATM    3  O   UNL     1       7.043   2.180  -0.327  1.00  0.00    -0.247 OA
HETATM    4  N   UNL     1       8.047   1.154   1.504  1.00  0.00    -0.308 N 
HETATM    5  H   UNL     1       6.193  -0.376   1.187  1.00  0.00     0.164 HD
HETATM    6  H   UNL     1       8.262   0.223   1.829  1.00  0.00     0.170 HD
ENDROOT
BRANCH   1   7
HETATM    7  C   UNL     1       5.319   0.039  -0.697  1.00  0.00     0.090 C 
HETATM    8  C   UNL     1       5.064  -1.426  -1.064  1.00  0.00     0.061 C 
HETATM    9  C   UNL     1       3.604  -1.829  -1.306  1.00  0.00     0.225 C 
HETATM   10  N   UNL     1       2.751  -1.183  -0.306  1.00  0.00     0.093 N 
HETATM   11  C   UNL     1       3.129  -1.620  -2.751  1.00  0.00     0.036 C 
HETATM   12  C   UNL     1       1.413  -1.765  -0.243  1.00  0.00     0.310 C 
HETATM   13  C   UNL     1       2.725   0.262  -0.547  1.00  0.00     0.225 C 
HETATM   14  C   UNL     1       2.203   0.656  -1.934  1.00  0.00     0.036 C 
HETATM   15  C   UNL     1       4.103   0.841  -0.208  1.00  0.00     0.061 C 
HETATM   16  C   UNL     1       2.637  -0.221  -3.104  1.00  0.00     0.004 C 
ENDBRANCH   1   7
BRANCH   4  17
HETATM   17  C   UNL     1       8.943   2.194   1.866  1.00  0.00     0.051 A 
HETATM   18  C   UNL     1       8.756   3.509   1.490  1.00  0.00     0.035 A 
HETATM   19  C   UNL     1       9.735   4.469   1.768  1.00  0.00     0.051 A 
HETATM   20  C   UNL     1      10.912   4.108   2.411  1.00  0.00     0.103 A 
HETATM   21  N   UNL     1      11.058   2.845   2.879  1.00  0.00    -0.350 N 
HETATM   22  C   UNL     1      10.089   1.925   2.607  1.00  0.00     0.119 A 
ATOM     23  HN  UNL     1      11.879   2.587   3.426  1.00  0.00     0.166 HD
BRANCH  20  24
HETATM   24  N   UNL     1      11.933   5.023   2.600  1.00  0.00    -0.367 N 
HETATM   25  C   UNL     1      13.201   4.553   3.149  1.00  0.00     0.124 C 
HETATM   26  C   UNL     1      14.252   5.526   2.611  1.00  0.00     0.021 C 
HETATM   27  C   UNL     1      13.599   6.180   1.406  1.00  0.00     0.021 C 
HETATM   28  C   UNL     1      12.117   6.195   1.752  1.00  0.00     0.124 C 
ENDBRANCH  20  24
ENDBRANCH   4  17
TORSDOF 3
