REMARK  5 active torsions:
REMARK  status: ('A' for Active; 'I' for Inactive)
REMARK       I    between atoms: C_2  and  N_3 
REMARK    1  A    between atoms: C_2  and  C_13 
REMARK    2  A    between atoms: N_3  and  C_4 
REMARK    3  A    between atoms: C_4  and  C_5 
REMARK    4  A    between atoms: C_5  and  C_6 
REMARK       I    between atoms: N_17  and  C_18 
REMARK    5  A    between atoms: C_18  and  C_20 
ROOT
HETATM    1  C   UNL     1       2.979   0.943  -0.115  1.00  0.00     0.179 C 
HETATM    2  C   UNL     1       4.528   0.968  -0.055  1.00  0.00     0.037 C 
HETATM    3  C   UNL     1       4.928   2.408   0.265  1.00  0.00     0.022 C 
HETATM    4  C   UNL     1       3.679   3.205   0.003  1.00  0.00     0.127 C 
HETATM    5  N   UNL     1       2.596   2.290   0.326  1.00  0.00    -0.338 N 
HETATM    6  C   UNL     1       1.348   2.858   0.487  1.00  0.00     0.224 C 
HETATM    7  O   UNL     1       1.291   4.093   0.526  1.00  0.00    -0.273 OA
ENDROOT
BRANCH   1   8
HETATM    8  C   UNL     1       2.479  -0.224   0.727  1.00  0.00     0.240 C 
HETATM    9  O   UNL     1       2.092  -1.269   0.209  1.00  0.00    -0.271 OA
HETATM   10  N   UNL     1       2.643  -0.066   2.085  1.00  0.00    -0.359 N 
HETATM   11  H   UNL     1       2.809   0.876   2.423  1.00  0.00     0.162 HD
BRANCH  10  12
HETATM   12  C   UNL     1       2.152  -1.068   3.008  1.00  0.00     0.128 C 
BRANCH  12  13
HETATM   13  C   UNL     1       3.035  -1.175   4.243  1.00  0.00     0.076 C 
BRANCH  13  14
HETATM   14  C   UNL     1       2.522  -2.264   5.142  1.00  0.00     0.010 A 
HETATM   15  C   UNL     1       2.964  -3.577   4.981  1.00  0.00     0.025 A 
HETATM   16  C   UNL     1       2.402  -4.571   5.778  1.00  0.00     0.003 A 
HETATM   17  C   UNL     1       1.422  -4.233   6.712  1.00  0.00     0.017 A 
HETATM   18  C   UNL     1       1.045  -2.903   6.799  1.00  0.00     0.088 A 
HETATM   19  N   UNL     1       1.569  -1.916   6.034  1.00  0.00    -0.369 N 
ATOM     20  HN  UNL     1       1.257  -0.949   6.127  1.00  0.00     0.165 HD
ENDBRANCH  13  14
ENDBRANCH  12  13
ENDBRANCH  10  12
ENDBRANCH   1   8
BRANCH   6  21
HETATM   21  C   UNL     1       0.084   2.023   0.777  1.00  0.00     0.078 C 
HETATM   22  C   UNL     1      -0.508   1.191  -0.368  1.00  0.00     0.014 C 
HETATM   23  C   UNL     1      -1.163   2.025  -1.469  1.00  0.00     0.001 C 
HETATM   24  C   UNL     1      -2.147   3.072  -0.948  1.00  0.00     0.000 C 
HETATM   25  C   UNL     1      -1.582   3.879   0.210  1.00  0.00     0.001 C 
HETATM   26  C   UNL     1      -1.023   2.966   1.306  1.00  0.00     0.014 C 
ENDBRANCH   6  21
TORSDOF 5
