REMARK  5 active torsions:
REMARK  status: ('A' for Active; 'I' for Inactive)
REMARK    1  A    between atoms: C_2  and  C_4 
REMARK    2  A    between atoms: C_4  and  N_5 
REMARK    3  A    between atoms: C_9  and  C_10 
REMARK    4  A    between atoms: C_10  and  N_11 
REMARK    5  A    between atoms: N_11  and  C_12 
ROOT
HETATM    1  C   UNL     1       5.290  -3.528  -3.172  1.00  0.00     0.116 A 
HETATM    2  N   UNL     1       5.821  -4.515  -2.428  1.00  0.00    -0.289 N 
ATOM      3  HN  UNL     1       6.040  -4.342  -1.447  1.00  0.00     0.188 HD
HETATM    4  N   UNL     1       6.073  -5.755  -2.970  1.00  0.00    -0.303 N 
ATOM      5  HN  UNL     1       6.489  -6.483  -2.389  1.00  0.00     0.186 HD
HETATM    6  C   UNL     1       5.777  -6.019  -4.260  1.00  0.00     0.029 A 
HETATM    7  C   UNL     1       6.074  -7.412  -4.724  1.00  0.00     0.070 C 
HETATM    8  C   UNL     1       5.218  -5.045  -5.083  1.00  0.00    -0.014 A 
HETATM    9  C   UNL     1       4.882  -5.306  -6.527  1.00  0.00     0.052 C 
HETATM   10  C   UNL     1       4.969  -3.781  -4.510  1.00  0.00     0.092 A 
HETATM   11  C   UNL     1       4.364  -2.744  -5.296  1.00  0.00     0.103 C 
HETATM   12  N   UNL     1       3.889  -1.914  -5.956  1.00  0.00    -0.191 NA
ENDROOT
BRANCH   1  13
HETATM   13  N   UNL     1       4.981  -2.293  -2.592  1.00  0.00    -0.274 NA
HETATM   14  H   UNL     1       5.323  -1.512  -3.155  1.00  0.00     0.129 HD
BRANCH  13  15
HETATM   15  C   UNL     1       5.339  -2.082  -1.184  1.00  0.00     0.127 C 
BRANCH  15  16
HETATM   16  C   UNL     1       4.825  -0.681  -0.804  1.00  0.00     0.163 C 
HETATM   17  O   UNL     1       5.618   0.297  -1.517  1.00  0.00    -0.381 OA
HETATM   18  C   UNL     1       5.128   1.620  -1.267  1.00  0.00     0.198 C 
HETATM   19  C   UNL     1       5.051   1.943   0.241  1.00  0.00     0.298 C 
HETATM   20  N   UNL     1       4.336   0.928   1.059  1.00  0.00     0.093 N 
HETATM   21  C   UNL     1       4.897  -0.400   0.706  1.00  0.00     0.305 C 
BRANCH  20  22
HETATM   22  C   UNL     1       2.873   1.042   0.873  1.00  0.00     0.276 C 
BRANCH  22  23
HETATM   23  C   UNL     1       2.005   0.020   1.647  1.00  0.00     0.006 C 
HETATM   24  C   UNL     1       2.209   0.109   3.160  1.00  0.00     0.011 C 
HETATM   25  C   UNL     1       0.520   0.231   1.327  1.00  0.00     0.011 C 
ENDBRANCH  22  23
ENDBRANCH  20  22
ENDBRANCH  15  16
ENDBRANCH  13  15
ENDBRANCH   1  13
TORSDOF 5
