REMARK  5 active torsions:
REMARK  status: ('A' for Active; 'I' for Inactive)
REMARK    1  A    between atoms: C_2  and  C_5 
REMARK    2  A    between atoms: C_7  and  N_8 
REMARK       I    between atoms: N_8  and  C_9 
REMARK       I    between atoms: C_9  and  N_11 
REMARK    3  A    between atoms: N_11  and  C_12 
REMARK    4  A    between atoms: C_17  and  C_18 
REMARK    5  A    between atoms: C_18  and  O_19 
ROOT
HETATM    1  N   UNL     1       3.047   4.687   1.592  1.00  0.00    -0.293 N 
HETATM    2  C   UNL     1       2.424   5.403   0.607  1.00  0.00     0.322 C 
HETATM    3  O   UNL     1       2.078   4.845  -0.432  1.00  0.00    -0.247 OA
HETATM    4  N   UNL     1       2.182   6.715   0.876  1.00  0.00    -0.338 N 
HETATM    5  H   UNL     1       3.154   3.706   1.391  1.00  0.00     0.172 HD
HETATM    6  H   UNL     1       2.695   7.092   1.668  1.00  0.00     0.164 HD
ENDROOT
BRANCH   1   7
HETATM    7  C   UNL     1       3.489   5.158   2.813  1.00  0.00     0.132 A 
HETATM    8  C   UNL     1       4.043   4.359   3.839  1.00  0.00     0.086 A 
HETATM    9  C   UNL     1       4.295   5.238   4.869  1.00  0.00     0.087 A 
HETATM   10  O   UNL     1       3.960   6.491   4.463  1.00  0.00    -0.240 OA
HETATM   11  N   UNL     1       3.453   6.441   3.191  1.00  0.00    -0.245 N 
ATOM     12  HN  UNL     1       3.114   7.229   2.639  1.00  0.00     0.196 HD
BRANCH   9  13
HETATM   13  C   UNL     1       4.862   5.113   6.255  1.00  0.00     0.000 C 
HETATM   14  C   UNL     1       6.392   5.235   6.178  1.00  0.00     0.021 C 
HETATM   15  C   UNL     1       4.481   3.750   6.860  1.00  0.00     0.021 C 
HETATM   16  C   UNL     1       4.310   6.219   7.176  1.00  0.00     0.021 C 
ENDBRANCH   9  13
ENDBRANCH   1   7
BRANCH   4  17
HETATM   17  C   UNL     1       1.553   7.654  -0.034  1.00  0.00     0.092 C 
HETATM   18  C   UNL     1       2.604   8.271  -0.968  1.00  0.00     0.026 C 
HETATM   19  C   UNL     1       3.522   9.266  -0.256  1.00  0.00     0.002 C 
HETATM   20  C   UNL     1       2.727  10.340   0.475  1.00  0.00     0.001 C 
HETATM   21  C   UNL     1       1.724   9.733   1.450  1.00  0.00     0.009 C 
HETATM   22  C   UNL     1       0.777   8.741   0.747  1.00  0.00     0.032 C 
BRANCH  22  23
HETATM   23  C   UNL     1      -0.219   8.120   1.738  1.00  0.00     0.170 C 
BRANCH  23  24
HETATM   24  O   UNL     1      -1.090   9.114   2.268  1.00  0.00    -0.400 OA
HETATM   25  H   UNL     1      -0.568   9.670   2.871  1.00  0.00     0.209 HD
ENDBRANCH  23  24
ENDBRANCH  22  23
ENDBRANCH   4  17
TORSDOF 5
