REMARK  5 active torsions:
REMARK  status: ('A' for Active; 'I' for Inactive)
REMARK    1  A    between atoms: N_2  and  C_4 
REMARK    2  A    between atoms: C_4  and  C_5 
REMARK    3  A    between atoms: C_4  and  C_16 
REMARK    4  A    between atoms: C_5  and  N_6 
REMARK       I    between atoms: N_6  and  C_7 
REMARK       I    between atoms: C_7  and  N_9 
REMARK    5  A    between atoms: N_9  and  C_10 
ROOT
HETATM    1  C   UNL     1       2.280  -2.400  -0.580  1.00  0.00     0.165 C 
ENDROOT
BRANCH   1   2
HETATM    2  C   UNL     1       2.792  -1.302   0.402  1.00  0.00     0.275 C 
BRANCH   2   3
HETATM    3  N   UNL     1       2.418  -1.529   1.835  1.00  0.00     0.090 N 
HETATM    4  C   UNL     1       2.946  -2.813   2.320  1.00  0.00     0.310 C 
HETATM    5  C   UNL     1       2.956  -0.465   2.705  1.00  0.00     0.310 C 
ENDBRANCH   2   3
BRANCH   2   6
HETATM    6  C   UNL     1       2.314   0.060  -0.038  1.00  0.00     0.011 A 
HETATM    7  C   UNL     1       0.992   0.567  -0.058  1.00  0.00     0.118 A 
HETATM    8  N   UNL     1       0.930   1.839  -0.456  1.00  0.00    -0.310 N 
HETATM    9  N   UNL     1       2.212   2.159  -0.689  1.00  0.00    -0.308 N 
ATOM     10  HN  UNL     1       0.104   2.428  -0.559  1.00  0.00     0.186 HD
HETATM   11  C   UNL     1       2.566   3.506  -1.066  1.00  0.00     0.177 C 
HETATM   12  C   UNL     1       3.078   1.125  -0.478  1.00  0.00     0.120 A 
ENDBRANCH   2   6
ENDBRANCH   1   2
BRANCH   1  13
HETATM   13  N   UNL     1       0.834  -2.594  -0.563  1.00  0.00    -0.341 N 
HETATM   14  C   UNL     1       0.247  -3.435  -1.474  1.00  0.00     0.316 C 
HETATM   15  O   UNL     1       0.861  -4.032  -2.346  1.00  0.00    -0.247 OA
HETATM   16  N   UNL     1      -1.109  -3.518  -1.288  1.00  0.00    -0.335 N 
HETATM   17  H   UNL     1      -1.545  -2.777  -0.762  1.00  0.00     0.164 HD
HETATM   18  H   UNL     1       0.384  -2.502   0.335  1.00  0.00     0.164 HD
BRANCH  16  19
HETATM   19  C   UNL     1      -1.948  -4.284  -2.195  1.00  0.00     0.109 C 
HETATM   20  C   UNL     1      -2.263  -3.518  -3.492  1.00  0.00     0.029 C 
HETATM   21  C   UNL     1      -3.698  -3.036  -3.737  1.00  0.00     0.006 C 
HETATM   22  C   UNL     1      -4.798  -3.456  -2.763  1.00  0.00     0.027 C 
HETATM   23  C   UNL     1      -4.394  -4.350  -1.643  1.00  0.00    -0.029 C 
HETATM   24  C   UNL     1      -3.133  -4.716  -1.397  1.00  0.00    -0.006 C 
ENDBRANCH  16  19
ENDBRANCH   1  13
TORSDOF 5
