REMARK  7 active torsions:
REMARK  status: ('A' for Active; 'I' for Inactive)
REMARK    1  A    between atoms: O_2  and  C_3 
REMARK    2  A    between atoms: C_3  and  C_4 
REMARK    3  A    between atoms: C_4  and  N_5 
REMARK    4  A    between atoms: N_5  and  C_6 
REMARK    5  A    between atoms: N_18  and  C_19 
REMARK    6  A    between atoms: C_19  and  C_20 
REMARK    7  A    between atoms: C_20  and  O_21 
ROOT
HETATM    1  C   UNL     1       6.417  -1.572   2.574  1.00  0.00     0.682 A 
HETATM    2  N   UNL     1       7.252  -0.557   2.621  1.00  0.00    -0.174 N 
ATOM      3  HN  UNL     1       7.040   0.430   2.478  1.00  0.00     0.186 HD
HETATM    4  C   UNL     1       8.461  -1.114   2.903  1.00  0.00     0.160 A 
HETATM    5  N   UNL     1       9.646  -0.431   3.098  1.00  0.00    -0.287 N 
HETATM    6  C   UNL     1       9.717   1.013   3.093  1.00  0.00     0.163 C 
HETATM    7  C   UNL     1      10.805  -1.161   3.341  1.00  0.00     0.330 A 
HETATM    8  O   UNL     1      11.911  -0.644   3.531  1.00  0.00    -0.246 OA
HETATM    9  N   UNL     1      10.694  -2.536   3.365  1.00  0.00    -0.273 N 
HETATM   10  C   UNL     1       9.545  -3.283   3.211  1.00  0.00     0.280 A 
HETATM   11  O   UNL     1       9.556  -4.506   3.288  1.00  0.00    -0.265 OA
HETATM   12  C   UNL     1       8.395  -2.480   2.974  1.00  0.00     0.164 A 
HETATM   13  N   UNL     1       7.074  -2.777   2.765  1.00  0.00    -0.172 N 
HETATM   14  H   UNL     1      11.544  -3.047   3.538  1.00  0.00     0.173 HD
ENDROOT
BRANCH   1  15
HETATM   15  N   UNL     1       5.096  -1.567   2.303  1.00  0.00    -0.224 N 
HETATM   16  H   UNL     1       4.476  -1.778   3.089  1.00  0.00     0.177 HD
BRANCH  15  17
HETATM   17  C   UNL     1       4.542  -0.483   1.498  1.00  0.00     0.164 C 
BRANCH  17  18
HETATM   18  C   UNL     1       3.039  -0.731   1.297  1.00  0.00     0.187 C 
BRANCH  18  19
HETATM   19  O   UNL     1       2.386  -0.687   2.573  1.00  0.00    -0.394 OA
HETATM   20  C   UNL     1       0.981  -0.862   2.450  1.00  0.00     0.201 C 
ENDBRANCH  18  19
ENDBRANCH  17  18
ENDBRANCH  15  17
ENDBRANCH   1  15
BRANCH  13  21
HETATM   21  C   UNL     1       6.451  -4.086   2.641  1.00  0.00     0.174 C 
BRANCH  21  22
HETATM   22  C   UNL     1       5.810  -4.293   1.268  1.00  0.00     0.187 C 
BRANCH  22  23
HETATM   23  O   UNL     1       5.146  -5.555   1.179  1.00  0.00    -0.394 OA
HETATM   24  C   UNL     1       4.437  -5.641  -0.057  1.00  0.00     0.201 C 
ENDBRANCH  22  23
ENDBRANCH  21  22
ENDBRANCH  13  21
TORSDOF 7
