REMARK  6 active torsions:
REMARK  status: ('A' for Active; 'I' for Inactive)
REMARK    1  A    between atoms: C_2  and  C_3 
REMARK    2  A    between atoms: C_6  and  C_7 
REMARK    3  A    between atoms: C_7  and  C_8 
REMARK    4  A    between atoms: C_8  and  N_9 
REMARK       I    between atoms: N_9  and  C_10 
REMARK    5  A    between atoms: C_10  and  C_12 
REMARK    6  A    between atoms: C_12  and  C_13 
ROOT
HETATM    1  C   UNL     1       6.401   2.609   2.365  1.00  0.00     0.129 C 
ENDROOT
BRANCH   1   2
HETATM    2  C   UNL     1       5.504   3.733   1.856  1.00  0.00     0.084 C 
BRANCH   2   3
HETATM    3  C   UNL     1       4.365   3.189   1.053  1.00  0.00     0.053 A 
HETATM    4  N   UNL     1       3.194   2.859   1.553  1.00  0.00    -0.356 N 
HETATM    5  C   UNL     1       2.360   2.386   0.548  1.00  0.00     0.022 A 
ATOM      6  HN  UNL     1       2.936   2.939   2.537  1.00  0.00     0.166 HD
HETATM    7  C   UNL     1       2.930   2.360  -0.715  1.00  0.00     0.003 A 
HETATM    8  S   UNL     1       4.534   2.956  -0.639  1.00  0.00    -0.080 SA
HETATM    9  C   UNL     1       2.346   1.921  -2.010  1.00  0.00     0.058 C 
BRANCH   5  10
HETATM   10  C   UNL     1       0.968   1.982   0.919  1.00  0.00     0.054 C 
HETATM   11  C   UNL     1       0.868   0.520   1.323  1.00  0.00     0.011 C 
ENDBRANCH   5  10
ENDBRANCH   2   3
ENDBRANCH   1   2
BRANCH   1  12
HETATM   12  N   UNL     1       7.582   3.110   3.051  1.00  0.00    -0.361 N 
HETATM   13  C   UNL     1       8.693   2.305   3.196  1.00  0.00     0.218 C 
HETATM   14  O   UNL     1       8.799   1.197   2.680  1.00  0.00    -0.274 OA
HETATM   15  H   UNL     1       7.460   3.854   3.727  1.00  0.00     0.162 HD
BRANCH  13  16
HETATM   16  C   UNL     1       9.802   2.911   4.037  1.00  0.00     0.111 C 
BRANCH  16  17
HETATM   17  C   UNL     1       9.842   2.430   5.488  1.00  0.00     0.017 C 
HETATM   18  C   UNL     1       9.976   0.906   5.656  1.00  0.00     0.012 C 
HETATM   19  C   UNL     1       8.624   0.399   6.160  1.00  0.00     0.027 C 
HETATM   20  C   UNL     1       7.956   1.640   6.649  1.00  0.00    -0.030 C 
HETATM   21  C   UNL     1       8.609   2.746   6.281  1.00  0.00    -0.026 C 
ENDBRANCH  16  17
ENDBRANCH  13  16
ENDBRANCH   1  12
TORSDOF 6
