REMARK  5 active torsions:
REMARK  status: ('A' for Active; 'I' for Inactive)
REMARK    1  A    between atoms: C_2  and  C_3 
REMARK    2  A    between atoms: C_3  and  C_5 
REMARK    3  A    between atoms: C_3  and  N_16 
REMARK    4  A    between atoms: C_5  and  N_6 
REMARK       I    between atoms: N_6  and  C_7 
REMARK       I    between atoms: C_7  and  N_9 
REMARK    5  A    between atoms: N_9  and  C_10 
ROOT
HETATM    1  N   UNL     1       2.429  -3.579  -1.214  1.00  0.00    -0.340 N 
HETATM    2  C   UNL     1       1.728  -4.307  -2.167  1.00  0.00     0.322 C 
HETATM    3  O   UNL     1       0.896  -3.761  -2.889  1.00  0.00    -0.247 OA
HETATM    4  N   UNL     1       2.019  -5.643  -2.138  1.00  0.00    -0.289 N 
HETATM    5  H   UNL     1       3.410  -3.807  -1.105  1.00  0.00     0.164 HD
HETATM    6  H   UNL     1       2.426  -6.033  -1.305  1.00  0.00     0.172 HD
ENDROOT
BRANCH   1   7
HETATM    7  C   UNL     1       2.078  -2.172  -1.099  1.00  0.00     0.165 C 
BRANCH   7   8
HETATM    8  C   UNL     1       2.798  -1.357   0.033  1.00  0.00     0.172 C 
HETATM    9  C   UNL     1       2.436  -2.048   1.376  1.00  0.00     0.051 C 
BRANCH   8  10
HETATM   10  C   UNL     1       2.204   0.087   0.034  1.00  0.00     0.038 C 
HETATM   11  C   UNL     1       0.693   0.243   0.185  1.00  0.00     0.007 C 
ENDBRANCH   8  10
BRANCH   8  12
HETATM   12  N   UNL     1       4.293  -1.385  -0.127  1.00  0.00     0.103 N 
HETATM   13  C   UNL     1       5.104  -0.745   0.938  1.00  0.00     0.299 C 
HETATM   14  C   UNL     1       5.364   0.764   0.767  1.00  0.00     0.198 C 
HETATM   15  O   UNL     1       5.960   1.049  -0.501  1.00  0.00    -0.388 OA
HETATM   16  C   UNL     1       5.154   0.552  -1.574  1.00  0.00     0.198 C 
HETATM   17  C   UNL     1       4.857  -0.954  -1.427  1.00  0.00     0.299 C 
ENDBRANCH   8  12
ENDBRANCH   7   8
ENDBRANCH   1   7
BRANCH   4  18
HETATM   18  C   UNL     1       1.370  -6.507  -2.988  1.00  0.00     0.152 A 
HETATM   19  N   UNL     1       0.722  -6.241  -4.094  1.00  0.00    -0.346 N 
HETATM   20  C   UNL     1       0.161  -7.395  -4.596  1.00  0.00     0.097 A 
ATOM     21  HN  UNL     1       0.644  -5.318  -4.520  1.00  0.00     0.167 HD
HETATM   22  C   UNL     1       0.413  -8.538  -3.867  1.00  0.00     0.070 A 
HETATM   23  S   UNL     1       1.414  -8.152  -2.523  1.00  0.00    -0.064 SA
ENDBRANCH   4  18
TORSDOF 5
