REMARK  4 active torsions:
REMARK  status: ('A' for Active; 'I' for Inactive)
REMARK    1  A    between atoms: C_2  and  N_3 
REMARK    2  A    between atoms: C_2  and  C_15 
REMARK       I    between atoms: N_3  and  C_4 
REMARK    3  A    between atoms: C_4  and  C_6 
REMARK    4  A    between atoms: C_6  and  N_7 
ROOT
HETATM    1  N   UNL     1       2.969   1.430  -0.118  1.00  0.00    -0.353 N 
HETATM    2  C   UNL     1       3.154   2.067  -1.331  1.00  0.00     0.237 C 
HETATM    3  O   UNL     1       2.879   1.531  -2.404  1.00  0.00    -0.272 OA
HETATM    4  H   UNL     1       3.053   1.941   0.754  1.00  0.00     0.163 HD
ENDROOT
BRANCH   2   5
HETATM    5  C   UNL     1       3.680   3.505  -1.235  1.00  0.00     0.255 C 
BRANCH   5   6
HETATM    6  N   UNL     1       4.486   3.827  -2.406  1.00  0.00    -0.246 N 
HETATM    7  N   UNL     1       3.827   4.484  -3.458  1.00  0.00    -0.261 N 
HETATM    8  C   UNL     1       4.398   4.662  -4.686  1.00  0.00     0.260 A 
HETATM    9  H   UNL     1       2.878   4.811  -3.330  1.00  0.00     0.190 HD
HETATM   10  O   UNL     1       3.825   5.236  -5.606  1.00  0.00    -0.267 OA
HETATM   11  C   UNL     1       5.763   4.140  -4.858  1.00  0.00     0.081 A 
HETATM   12  C   UNL     1       6.403   3.534  -3.855  1.00  0.00     0.081 A 
HETATM   13  C   UNL     1       5.767   3.336  -2.537  1.00  0.00     0.262 A 
HETATM   14  O   UNL     1       6.377   2.749  -1.649  1.00  0.00    -0.267 OA
ENDBRANCH   5   6
ENDBRANCH   2   5
BRANCH   1  15
HETATM   15  C   UNL     1       2.446   0.062  -0.042  1.00  0.00     0.109 C 
HETATM   16  C   UNL     1       0.916   0.100  -0.042  1.00  0.00     0.035 C 
BRANCH  15  17
HETATM   17  C   UNL     1       3.029  -0.679   1.181  1.00  0.00     0.143 C 
HETATM   18  C   UNL     1       2.754  -2.181   1.192  1.00  0.00     0.036 C 
HETATM   19  C   UNL     1       2.309  -2.492   2.603  1.00  0.00     0.029 C 
HETATM   20  C   UNL     1       2.533  -1.210   3.371  1.00  0.00     0.168 C 
HETATM   21  O   UNL     1       2.493  -0.152   2.408  1.00  0.00    -0.384 OA
ENDBRANCH  15  17
ENDBRANCH   1  15
TORSDOF 4
