REMARK  4 active torsions:
REMARK  status: ('A' for Active; 'I' for Inactive)
REMARK    1  A    between atoms: C_2  and  C_5 
REMARK    2  A    between atoms: N_10  and  C_11 
REMARK    3  A    between atoms: C_11  and  C_12 
REMARK       I    between atoms: C_12  and  N_14 
REMARK    4  A    between atoms: N_14  and  C_15 
ROOT
HETATM    1  C   UNL     1      -0.584  -6.147   0.194  1.00  0.00     0.236 C 
HETATM    2  O   UNL     1      -1.338  -7.076   0.468  1.00  0.00    -0.272 OA
HETATM    3  N   UNL     1      -1.002  -4.963  -0.384  1.00  0.00    -0.353 N 
HETATM    4  H   UNL     1      -0.292  -4.446  -0.901  1.00  0.00     0.163 HD
ENDROOT
BRANCH   1   5
HETATM    5  C   UNL     1       0.923  -6.225   0.444  1.00  0.00     0.234 C 
BRANCH   5   6
HETATM    6  N   UNL     1       1.637  -6.925  -0.622  1.00  0.00    -0.315 N 
HETATM    7  C   UNL     1       2.024  -6.184  -1.735  1.00  0.00     0.247 A 
HETATM    8  C   UNL     1       2.867  -6.903  -2.728  1.00  0.00     0.075 A 
HETATM    9  O   UNL     1       1.716  -5.010  -1.919  1.00  0.00    -0.268 OA
HETATM   10  C   UNL     1       3.178  -8.193  -2.545  1.00  0.00     0.023 A 
HETATM   11  C   UNL     1       2.703  -8.922  -1.380  1.00  0.00     0.063 A 
HETATM   12  C   UNL     1       1.957  -8.267  -0.472  1.00  0.00     0.110 A 
BRANCH  11  13
HETATM   13  C   UNL     1       3.081 -10.369  -1.205  1.00  0.00     0.418 C 
HETATM   14  F   UNL     1       3.857 -10.842  -2.214  1.00  0.00    -0.166 F 
HETATM   15  F   UNL     1       1.988 -11.170  -1.142  1.00  0.00    -0.166 F 
HETATM   16  F   UNL     1       3.778 -10.565  -0.056  1.00  0.00    -0.166 F 
ENDBRANCH  11  13
ENDBRANCH   5   6
ENDBRANCH   1   5
BRANCH   3  17
HETATM   17  C   UNL     1      -2.399  -4.732  -0.742  1.00  0.00     0.119 C 
HETATM   18  C   UNL     1      -2.742  -3.232  -0.776  1.00  0.00     0.057 C 
HETATM   19  C   UNL     1      -3.426  -2.983  -2.123  1.00  0.00     0.275 C 
HETATM   20  N   UNL     1      -3.834  -4.313  -2.556  1.00  0.00     0.095 N 
HETATM   21  C   UNL     1      -4.116  -4.434  -3.983  1.00  0.00     0.273 C 
HETATM   22  C   UNL     1      -2.729  -5.200  -2.162  1.00  0.00     0.245 C 
HETATM   23  C   UNL     1      -4.523  -5.878  -4.310  1.00  0.00     0.030 C 
HETATM   24  C   UNL     1      -3.516  -6.906  -3.782  1.00  0.00     0.004 C 
HETATM   25  C   UNL     1      -3.177  -6.648  -2.312  1.00  0.00     0.038 C 
ENDBRANCH   3  17
TORSDOF 4
