REMARK  5 active torsions:
REMARK  status: ('A' for Active; 'I' for Inactive)
REMARK    1  A    between atoms: S_2  and  C_3 
REMARK    2  A    between atoms: C_8  and  N_9 
REMARK       I    between atoms: N_9  and  C_10 
REMARK       I    between atoms: C_10  and  N_12 
REMARK    3  A    between atoms: N_12  and  C_13 
REMARK    4  A    between atoms: C_13  and  C_14 
REMARK    5  A    between atoms: C_14  and  C_15 
ROOT
HETATM    1  N   UNL     1       1.279  -2.038   1.833  1.00  0.00    -0.337 N 
HETATM    2  C   UNL     1       0.690  -2.995   2.619  1.00  0.00     0.316 C 
HETATM    3  O   UNL     1       1.258  -3.988   3.049  1.00  0.00    -0.247 OA
HETATM    4  N   UNL     1      -0.622  -2.701   2.893  1.00  0.00    -0.343 N 
HETATM    5  H   UNL     1       0.669  -1.486   1.245  1.00  0.00     0.164 HD
HETATM    6  H   UNL     1      -0.840  -1.711   2.893  1.00  0.00     0.164 HD
ENDROOT
BRANCH   1   7
HETATM    7  C   UNL     1       2.657  -2.208   1.386  1.00  0.00     0.099 C 
HETATM    8  C   UNL     1       3.443  -0.874   1.276  1.00  0.00     0.069 C 
HETATM    9  C   UNL     1       4.907  -1.224   0.954  1.00  0.00     0.017 C 
HETATM   10  C   UNL     1       5.054  -2.054  -0.322  1.00  0.00     0.001 C 
HETATM   11  C   UNL     1       4.201  -3.321  -0.280  1.00  0.00     0.002 C 
HETATM   12  C   UNL     1       2.745  -3.043   0.096  1.00  0.00     0.026 C 
BRANCH   8  13
HETATM   13  S   UNL     1       2.697   0.290   0.042  1.00  0.00    -0.167 SA
HETATM   14  C   UNL     1       3.807   1.715   0.223  1.00  0.00     0.090 C 
ENDBRANCH   8  13
ENDBRANCH   1   7
BRANCH   4  15
HETATM   15  C   UNL     1      -1.385  -3.525   3.822  1.00  0.00     0.132 C 
BRANCH  15  16
HETATM   16  C   UNL     1      -1.169  -3.146   5.290  1.00  0.00     0.106 C 
BRANCH  16  17
HETATM   17  C   UNL     1      -1.685  -1.784   5.570  1.00  0.00     0.149 A 
HETATM   18  N   UNL     1      -1.334  -0.635   5.036  1.00  0.00    -0.327 N 
HETATM   19  C   UNL     1      -2.152   0.246   5.692  1.00  0.00     0.100 A 
ATOM     20  HN  UNL     1      -0.633  -0.448   4.319  1.00  0.00     0.169 HD
HETATM   21  C   UNL     1      -2.108   1.698   5.445  1.00  0.00     0.091 C 
HETATM   22  N   UNL     1      -2.994  -0.311   6.575  1.00  0.00    -0.248 N 
HETATM   23  O   UNL     1      -2.682  -1.671   6.496  1.00  0.00    -0.223 OA
ATOM     24  HN  UNL     1      -3.692   0.147   7.161  1.00  0.00     0.196 HD
ENDBRANCH  16  17
ENDBRANCH  15  16
ENDBRANCH   4  15
TORSDOF 5
