REMARK  4 active torsions:
REMARK  status: ('A' for Active; 'I' for Inactive)
REMARK    1  A    between atoms: C_2  and  C_4 
REMARK    2  A    between atoms: C_4  and  N_5 
REMARK       I    between atoms: N_5  and  C_6 
REMARK       I    between atoms: C_6  and  N_8 
REMARK    3  A    between atoms: N_8  and  C_9 
REMARK    4  A    between atoms: C_12  and  C_16 
REMARK       I    between atoms: C_16  and  N_18 
ROOT
HETATM    1  C   UNL     1       7.931  -1.145  -2.841  1.00  0.00     0.051 A 
HETATM    2  C   UNL     1       8.671  -0.156  -3.480  1.00  0.00     0.033 A 
HETATM    3  C   UNL     1       9.481  -0.507  -4.561  1.00  0.00     0.037 A 
HETATM    4  C   UNL     1       9.580  -1.848  -4.931  1.00  0.00     0.100 A 
HETATM    5  N   UNL     1       8.923  -2.840  -4.281  1.00  0.00    -0.359 N 
ATOM      6  HN  UNL     1       9.034  -3.819  -4.544  1.00  0.00     0.165 HD
HETATM    7  C   UNL     1       8.109  -2.463  -3.261  1.00  0.00     0.118 A 
ENDROOT
BRANCH   1   8
HETATM    8  N   UNL     1       6.990  -0.764  -1.859  1.00  0.00    -0.308 N 
HETATM    9  C   UNL     1       5.716  -1.299  -1.858  1.00  0.00     0.321 C 
HETATM   10  N   UNL     1       4.907  -0.659  -0.947  1.00  0.00    -0.339 N 
HETATM   11  O   UNL     1       5.312  -2.172  -2.614  1.00  0.00    -0.247 OA
HETATM   12  H   UNL     1       5.332  -0.514  -0.044  1.00  0.00     0.164 HD
HETATM   13  H   UNL     1       7.007   0.202  -1.563  1.00  0.00     0.170 HD
BRANCH  10  14
HETATM   14  C   UNL     1       3.498  -0.982  -0.943  1.00  0.00     0.157 C 
BRANCH  14  15
HETATM   15  C   UNL     1       2.672   0.082  -0.258  1.00  0.00    -0.075 C 
HETATM   16  C   UNL     1       1.189  -0.186  -0.309  1.00  0.00     0.044 C 
HETATM   17  C   UNL     1       3.139   1.200   0.326  1.00  0.00     0.015 C 
ENDBRANCH  14  15
ENDBRANCH  10  14
ENDBRANCH   1   8
BRANCH   4  18
HETATM   18  C   UNL     1      10.343  -2.179  -6.180  1.00  0.00     0.270 C 
HETATM   19  O   UNL     1      10.356  -1.316  -7.065  1.00  0.00    -0.266 OA
HETATM   20  N   UNL     1      11.012  -3.398  -6.334  1.00  0.00    -0.347 N 
HETATM   21  C   UNL     1      11.311  -4.358  -5.273  1.00  0.00     0.126 C 
HETATM   22  C   UNL     1      11.711  -3.656  -7.592  1.00  0.00     0.126 C 
HETATM   23  C   UNL     1      12.815  -4.373  -4.989  1.00  0.00     0.020 C 
HETATM   24  C   UNL     1      13.618  -4.636  -6.260  1.00  0.00     0.003 C 
HETATM   25  C   UNL     1      13.224  -3.666  -7.374  1.00  0.00     0.020 C 
ENDBRANCH   4  18
TORSDOF 4
