REMARK  9 active torsions:
REMARK  status: ('A' for Active; 'I' for Inactive)
REMARK    1  A    between atoms: N_2  and  C_15 
REMARK    2  A    between atoms: C_6  and  N_9 
REMARK    3  A    between atoms: N_9  and  C_16 
REMARK    4  A    between atoms: C_10  and  C_16 
REMARK    5  A    between atoms: C_15  and  C_18 
REMARK    6  A    between atoms: C_18  and  C_23 
REMARK    7  A    between atoms: C_18  and  C_27 
REMARK    8  A    between atoms: C_21  and  O_25 
REMARK    9  A    between atoms: C_27  and  O_29 
ROOT
HETATM    1  C   UNL     1       1.297  -5.005  -0.284  1.00  0.00     0.122 A 
HETATM    2  N   UNL     1       0.725  -5.756  -2.261  1.00  0.00    -0.327 N 
HETATM    3  C   UNL     1       1.419  -6.098  -1.130  1.00  0.00     0.140 A 
HETATM    4  N   UNL     1       0.518  -4.025  -0.880  1.00  0.00    -0.346 N 
ATOM      5  HN  UNL     1       0.258  -3.119  -0.491  1.00  0.00     0.167 HD
HETATM    6  C   UNL     1       1.953  -5.071   0.974  1.00  0.00     0.135 A 
HETATM    7  C   UNL     1       0.186  -4.514  -2.053  1.00  0.00     0.185 A 
HETATM    8  N   UNL     1       2.068  -7.248  -0.880  1.00  0.00    -0.336 N 
ATOM      9  HN  UNL     1       2.118  -8.038  -1.524  1.00  0.00     0.168 HD
HETATM   10  N   UNL     1       2.641  -6.216   1.253  1.00  0.00    -0.337 N 
ATOM     11  HN  UNL     1       3.144  -6.317   2.134  1.00  0.00     0.168 HD
HETATM   12  C   UNL     1       2.644  -7.214   0.340  1.00  0.00     0.183 A 
ENDROOT
BRANCH   6  13
HETATM   13  N   UNL     1       1.921  -4.006   1.882  1.00  0.00    -0.368 N 
HETATM   14  C   UNL     1       0.594  -3.820   2.465  1.00  0.00     0.151 C 
BRANCH  13  15
HETATM   15  C   UNL     1       3.032  -3.889   2.840  1.00  0.00     0.159 C 
BRANCH  15  16
HETATM   16  C   UNL     1       4.424  -3.575   2.213  1.00  0.00     0.242 C 
HETATM   17  N   UNL     1       4.647  -2.406   1.323  1.00  0.00     0.093 N 
HETATM   18  C   UNL     1       5.507  -1.453   2.019  1.00  0.00     0.304 C 
HETATM   19  C   UNL     1       3.482  -1.782   0.728  1.00  0.00     0.310 C 
HETATM   20  C   UNL     1       6.440  -2.357   2.813  1.00  0.00     0.151 C 
HETATM   21  C   UNL     1       5.451  -3.381   3.351  1.00  0.00     0.071 C 
BRANCH  20  22
HETATM   22  O   UNL     1       7.103  -1.699   3.889  1.00  0.00    -0.389 OA
HETATM   23  C   UNL     1       8.160  -0.858   3.438  1.00  0.00     0.202 C 
ENDBRANCH  20  22
ENDBRANCH  15  16
ENDBRANCH  13  15
ENDBRANCH   6  13
BRANCH   2  24
HETATM   24  C   UNL     1       0.454  -6.606  -3.403  1.00  0.00     0.138 C 
BRANCH  24  25
HETATM   25  C   UNL     1       1.009  -6.120  -4.769  1.00  0.00     0.034 C 
BRANCH  25  26
HETATM   26  C   UNL     1       2.566  -6.087  -4.791  1.00  0.00     0.019 C 
HETATM   27  C   UNL     1       3.194  -5.524  -6.067  1.00  0.00     0.172 C 
HETATM   28  O   UNL     1       3.804  -6.618  -6.751  1.00  0.00    -0.391 OA
HETATM   29  C   UNL     1       4.248  -7.529  -5.748  1.00  0.00     0.168 C 
HETATM   30  C   UNL     1       3.226  -7.450  -4.631  1.00  0.00     0.033 C 
ENDBRANCH  25  26
BRANCH  25  31
HETATM   31  C   UNL     1       0.346  -6.992  -5.859  1.00  0.00     0.170 C 
BRANCH  31  32
HETATM   32  O   UNL     1       0.704  -6.621  -7.176  1.00  0.00    -0.400 OA
HETATM   33  H   UNL     1       0.435  -5.701  -7.332  1.00  0.00     0.209 HD
ENDBRANCH  31  32
ENDBRANCH  25  31
ENDBRANCH  24  25
ENDBRANCH   2  24
TORSDOF 9
