REMARK  4 active torsions:
REMARK  status: ('A' for Active; 'I' for Inactive)
REMARK    1  A    between atoms: C_5  and  N_6 
REMARK       I    between atoms: N_6  and  C_7 
REMARK       I    between atoms: C_7  and  N_9 
REMARK    2  A    between atoms: N_9  and  C_10 
REMARK    3  A    between atoms: C_10  and  C_11 
REMARK    4  A    between atoms: C_10  and  C_16 
ROOT
HETATM    1  N   UNL     1       6.545  -1.617   0.841  1.00  0.00    -0.294 N 
HETATM    2  C   UNL     1       6.503  -2.964   1.100  1.00  0.00     0.322 C 
HETATM    3  O   UNL     1       6.473  -3.395   2.248  1.00  0.00    -0.247 OA
HETATM    4  N   UNL     1       6.397  -3.760   0.004  1.00  0.00    -0.329 N 
HETATM    5  H   UNL     1       6.461  -1.021   1.650  1.00  0.00     0.172 HD
HETATM    6  H   UNL     1       6.713  -3.293  -0.846  1.00  0.00     0.165 HD
ENDROOT
BRANCH   4   7
HETATM    7  C   UNL     1       6.331  -5.220   0.008  1.00  0.00     0.197 C 
BRANCH   7   8
HETATM    8  C   UNL     1       5.540  -5.703  -1.232  1.00  0.00     0.017 C 
HETATM    9  C   UNL     1       6.163  -5.375  -2.599  1.00  0.00     0.007 C 
HETATM   10  C   UNL     1       4.997  -5.253  -3.582  1.00  0.00     0.000 C 
HETATM   11  C   UNL     1       3.721  -5.411  -2.765  1.00  0.00     0.000 C 
HETATM   12  C   UNL     1       4.134  -5.099  -1.336  1.00  0.00     0.007 C 
ENDBRANCH   7   8
BRANCH   7  13
HETATM   13  C   UNL     1       7.715  -5.901   0.153  1.00  0.00     0.407 C 
HETATM   14  F   UNL     1       8.734  -5.009   0.131  1.00  0.00    -0.169 F 
HETATM   15  F   UNL     1       7.803  -6.587   1.317  1.00  0.00    -0.169 F 
HETATM   16  F   UNL     1       7.956  -6.790  -0.840  1.00  0.00    -0.169 F 
ENDBRANCH   7  13
ENDBRANCH   4   7
BRANCH   1  17
HETATM   17  C   UNL     1       6.622  -1.024  -0.405  1.00  0.00     0.125 A 
HETATM   18  C   UNL     1       6.415   0.346  -0.684  1.00  0.00     0.069 A 
HETATM   19  C   UNL     1       6.552   0.463  -2.050  1.00  0.00     0.113 A 
HETATM   20  N   UNL     1       6.869  -0.782  -2.497  1.00  0.00    -0.306 N 
HETATM   21  C   UNL     1       7.153  -1.194  -3.851  1.00  0.00     0.177 C 
HETATM   22  N   UNL     1       6.903  -1.702  -1.525  1.00  0.00    -0.284 N 
ATOM     23  HN  UNL     1       7.099  -2.699  -1.617  1.00  0.00     0.188 HD
ENDBRANCH   1  17
TORSDOF 4
