REMARK  5 active torsions:
REMARK  status: ('A' for Active; 'I' for Inactive)
REMARK    1  A    between atoms: C_2  and  O_3 
REMARK    2  A    between atoms: O_3  and  C_4 
REMARK    3  A    between atoms: C_10  and  N_11 
REMARK       I    between atoms: N_11  and  C_12 
REMARK       I    between atoms: C_12  and  N_14 
REMARK    4  A    between atoms: N_14  and  C_15 
REMARK    5  A    between atoms: N_18  and  S_21 
ROOT
HETATM    1  N   UNL     1       4.383  -2.100  -2.469  1.00  0.00    -0.305 N 
HETATM    2  C   UNL     1       3.029  -1.979  -2.247  1.00  0.00     0.321 C 
HETATM    3  O   UNL     1       2.431  -0.923  -2.062  1.00  0.00    -0.247 OA
HETATM    4  N   UNL     1       2.395  -3.204  -2.306  1.00  0.00    -0.338 N 
HETATM    5  H   UNL     1       4.641  -2.811  -3.143  1.00  0.00     0.171 HD
HETATM    6  H   UNL     1       2.911  -3.908  -1.795  1.00  0.00     0.164 HD
ENDROOT
BRANCH   1   7
HETATM    7  C   UNL     1       5.258  -0.988  -2.401  1.00  0.00     0.087 A 
HETATM    8  C   UNL     1       6.285  -0.816  -3.334  1.00  0.00     0.169 A 
HETATM    9  N   UNL     1       7.172   0.212  -3.292  1.00  0.00    -0.345 N 
HETATM   10  C   UNL     1       7.021   1.119  -2.307  1.00  0.00     0.090 A 
ATOM     11  HN  UNL     1       7.922   0.294  -3.978  1.00  0.00     0.167 HD
HETATM   12  C   UNL     1       6.021   1.052  -1.354  1.00  0.00     0.019 A 
HETATM   13  C   UNL     1       5.131  -0.020  -1.403  1.00  0.00     0.035 A 
BRANCH   8  14
HETATM   14  O   UNL     1       6.368  -1.717  -4.388  1.00  0.00    -0.334 OA
BRANCH  14  15
HETATM   15  C   UNL     1       6.941  -1.091  -5.545  1.00  0.00     0.173 C 
HETATM   16  C   UNL     1       7.007  -2.091  -6.683  1.00  0.00     0.034 C 
ENDBRANCH  14  15
ENDBRANCH   8  14
ENDBRANCH   1   7
BRANCH   4  17
HETATM   17  C   UNL     1       0.930  -3.266  -2.206  1.00  0.00     0.089 C 
HETATM   18  C   UNL     1       0.437  -4.713  -2.049  1.00  0.00     0.045 C 
HETATM   19  C   UNL     1       0.504  -5.518  -3.348  1.00  0.00     0.137 C 
HETATM   20  N   UNL     1      -0.120  -4.797  -4.487  1.00  0.00    -0.311 N 
HETATM   21  C   UNL     1       0.468  -3.445  -4.670  1.00  0.00     0.137 C 
HETATM   22  C   UNL     1       0.246  -2.612  -3.418  1.00  0.00     0.045 C 
BRANCH  20  23
HETATM   23  S   UNL     1      -1.806  -4.916  -4.692  1.00  0.00     0.224 S 
HETATM   24  O   UNL     1      -2.422  -4.976  -3.386  1.00  0.00    -0.206 OA
HETATM   25  O   UNL     1      -2.216  -3.932  -5.672  1.00  0.00    -0.206 OA
HETATM   26  C   UNL     1      -1.964  -6.510  -5.463  1.00  0.00     0.186 C 
ENDBRANCH  20  23
ENDBRANCH   4  17
TORSDOF 5
