REMARK  6 active torsions:
REMARK  status: ('A' for Active; 'I' for Inactive)
REMARK    1  A    between atoms: C_2  and  C_3 
REMARK       I    between atoms: C_2  and  N_19 
REMARK    2  A    between atoms: C_3  and  N_4 
REMARK    3  A    between atoms: C_7  and  C_8 
REMARK    4  A    between atoms: C_8  and  N_9 
REMARK    5  A    between atoms: N_13  and  C_14 
REMARK    6  A    between atoms: N_19  and  C_20 
ROOT
HETATM    1  N   UNL     1       2.178   1.464  -1.981  1.00  0.00    -0.256 N 
HETATM    2  C   UNL     1       2.276   2.843  -2.072  1.00  0.00     0.273 A 
HETATM    3  O   UNL     1       3.043   3.514  -1.387  1.00  0.00    -0.266 OA
HETATM    4  C   UNL     1       1.366   3.497  -3.036  1.00  0.00     0.110 A 
HETATM    5  C   UNL     1       0.499   2.748  -3.720  1.00  0.00     0.123 A 
HETATM    6  N   UNL     1       0.432   1.380  -3.567  1.00  0.00    -0.303 N 
HETATM    7  C   UNL     1       1.312   0.674  -2.737  1.00  0.00     0.332 A 
HETATM    8  O   UNL     1       1.311  -0.555  -2.651  1.00  0.00    -0.246 OA
ENDROOT
BRANCH   1   9
HETATM    9  C   UNL     1       3.093   0.776  -1.083  1.00  0.00     0.239 C 
BRANCH   9  10
HETATM   10  C   UNL     1       4.376   0.374  -1.813  1.00  0.00     0.236 C 
HETATM   11  O   UNL     1       4.593   0.630  -2.995  1.00  0.00    -0.272 OA
HETATM   12  N   UNL     1       5.266  -0.306  -0.995  1.00  0.00    -0.355 N 
HETATM   13  H   UNL     1       5.062  -0.391  -0.006  1.00  0.00     0.162 HD
BRANCH  12  14
HETATM   14  C   UNL     1       6.530  -0.778  -1.459  1.00  0.00     0.084 A 
HETATM   15  C   UNL     1       6.675  -2.154  -2.046  1.00  0.00     0.027 A 
HETATM   16  C   UNL     1       7.259  -1.854  -0.698  1.00  0.00     0.027 A 
ENDBRANCH  12  14
ENDBRANCH   9  10
ENDBRANCH   1   9
BRANCH   4  17
HETATM   17  C   UNL     1       1.427   5.006  -3.209  1.00  0.00    -0.030 C 
BRANCH  17  18
HETATM   18  N   UNL     1       1.477   6.258  -3.352  1.00  0.00    -0.365 N 
ATOM     19  HN2 UNL     1       1.412   5.249  -3.215  1.00  0.00     0.165 HD
ATOM     20  HN1 UNL     1       1.518   7.271  -3.468  1.00  0.00     0.165 HD
ENDBRANCH  17  18
ENDBRANCH   4  17
BRANCH   6  21
HETATM   21  C   UNL     1      -0.541   0.668  -4.366  1.00  0.00     0.094 A 
HETATM   22  C   UNL     1      -2.023   0.937  -4.233  1.00  0.00     0.028 A 
HETATM   23  C   UNL     1      -1.462  -0.369  -3.768  1.00  0.00     0.028 A 
ENDBRANCH   6  21
TORSDOF 6
