REMARK  6 active torsions:
REMARK  status: ('A' for Active; 'I' for Inactive)
REMARK    1  A    between atoms: C_5  and  C_6 
REMARK    2  A    between atoms: C_6  and  C_7 
REMARK       I    between atoms: C_7  and  N_9 
REMARK    3  A    between atoms: N_9  and  C_10 
REMARK    4  A    between atoms: C_10  and  C_11 
REMARK    5  A    between atoms: C_11  and  N_12 
REMARK       I    between atoms: N_12  and  C_13 
REMARK    6  A    between atoms: C_13  and  C_15 
ROOT
HETATM    1  C   UNL     1       7.811   1.862  -1.144  1.00  0.00     0.223 C 
HETATM    2  O   UNL     1       8.373   1.628  -2.215  1.00  0.00    -0.273 OA
HETATM    3  N   UNL     1       8.331   1.448   0.059  1.00  0.00    -0.359 N 
HETATM    4  H   UNL     1       7.848   1.734   0.911  1.00  0.00     0.162 HD
ENDROOT
BRANCH   3   5
HETATM    5  C   UNL     1       9.581   0.719   0.158  1.00  0.00     0.142 C 
BRANCH   5   6
HETATM    6  C   UNL     1      10.816   1.622   0.084  1.00  0.00     0.142 C 
BRANCH   6   7
HETATM    7  N   UNL     1      12.058   0.866   0.140  1.00  0.00    -0.359 N 
HETATM    8  C   UNL     1      12.608   0.478   1.336  1.00  0.00     0.221 C 
HETATM    9  O   UNL     1      12.111   0.745   2.423  1.00  0.00    -0.273 OA
HETATM   10  H   UNL     1      12.482   0.579  -0.730  1.00  0.00     0.162 HD
BRANCH   8  11
HETATM   11  C   UNL     1      13.880  -0.297   1.289  1.00  0.00     0.078 A 
HETATM   12  C   UNL     1      15.115   0.335   0.692  1.00  0.00     0.015 A 
HETATM   13  C   UNL     1      14.516  -0.886   0.057  1.00  0.00     0.015 A 
ENDBRANCH   8  11
ENDBRANCH   6   7
ENDBRANCH   5   6
ENDBRANCH   3   5
BRANCH   1  14
HETATM   14  C   UNL     1       6.445   2.526  -1.101  1.00  0.00     0.160 C 
BRANCH  14  15
HETATM   15  C   UNL     1       6.237   3.456   0.051  1.00  0.00     0.025 A 
HETATM   16  N   UNL     1       6.223   2.943   1.345  1.00  0.00    -0.357 N 
HETATM   17  C   UNL     1       5.964   3.902   2.210  1.00  0.00     0.047 A 
ATOM     18  HN  UNL     1       6.389   1.966   1.588  1.00  0.00     0.166 HD
HETATM   19  C   UNL     1       5.852   3.709   3.682  1.00  0.00     0.076 C 
HETATM   20  S   UNL     1       5.747   5.467   1.536  1.00  0.00    -0.087 SA
HETATM   21  C   UNL     1       6.001   4.816  -0.027  1.00  0.00     0.077 A 
ENDBRANCH  14  15
ENDBRANCH   1  14
TORSDOF 6
