REMARK  3 active torsions:
REMARK  status: ('A' for Active; 'I' for Inactive)
REMARK       I    between atoms: C_2  and  N_3 
REMARK    1  A    between atoms: C_2  and  C_15 
REMARK    2  A    between atoms: N_3  and  C_4 
REMARK    3  A    between atoms: C_8  and  N_9 
ROOT
HETATM    1  C   UNL     1       2.317   2.209   1.295  1.00  0.00     0.107 C 
HETATM    2  C   UNL     1       2.600   3.606   0.742  1.00  0.00     0.027 C 
HETATM    3  C   UNL     1       2.443   4.560   1.925  1.00  0.00     0.004 C 
HETATM    4  C   UNL     1       2.243   3.688   3.168  1.00  0.00     0.028 C 
HETATM    5  C   UNL     1       2.732   2.287   2.778  1.00  0.00     0.113 C 
ENDROOT
BRANCH   1   6
HETATM    6  N   UNL     1       2.961   1.167   0.514  1.00  0.00    -0.354 N 
HETATM    7  C   UNL     1       2.252   0.144  -0.075  1.00  0.00     0.222 C 
HETATM    8  O   UNL     1       1.040   0.017   0.081  1.00  0.00    -0.273 OA
HETATM    9  H   UNL     1       3.973   1.169   0.445  1.00  0.00     0.162 HD
BRANCH   7  10
HETATM   10  C   UNL     1       3.109  -0.846  -0.878  1.00  0.00     0.078 C 
HETATM   11  C   UNL     1       3.949  -0.177  -1.978  1.00  0.00     0.014 C 
HETATM   12  C   UNL     1       3.121   0.265  -3.182  1.00  0.00     0.001 C 
HETATM   13  C   UNL     1       2.263  -0.865  -3.741  1.00  0.00     0.000 C 
HETATM   14  C   UNL     1       1.406  -1.513  -2.659  1.00  0.00     0.001 C 
HETATM   15  C   UNL     1       2.258  -1.978  -1.474  1.00  0.00     0.014 C 
ENDBRANCH   7  10
ENDBRANCH   1   6
BRANCH   5  16
HETATM   16  N   UNL     1       4.144   2.039   3.021  1.00  0.00    -0.345 N 
HETATM   17  C   UNL     1       5.190   2.918   2.982  1.00  0.00     0.109 A 
HETATM   18  C   UNL     1       6.309   2.164   3.246  1.00  0.00     0.106 A 
HETATM   19  N   UNL     1       5.972   0.853   3.447  1.00  0.00    -0.361 N 
HETATM   20  C   UNL     1       4.665   0.811   3.329  1.00  0.00     0.183 A 
ATOM     21  HN  UNL     1       6.601   0.075   3.646  1.00  0.00     0.166 HD
ENDBRANCH   5  16
TORSDOF 3
