REMARK  5 active torsions:
REMARK  status: ('A' for Active; 'I' for Inactive)
REMARK    1  A    between atoms: C_5  and  C_6 
REMARK    2  A    between atoms: C_6  and  N_7 
REMARK    3  A    between atoms: N_7  and  C_8 
REMARK    4  A    between atoms: C_8  and  C_9 
REMARK    5  A    between atoms: C_9  and  C_10 
ROOT
HETATM    1  N   UNL     1       5.192   0.280  -3.858  1.00  0.00     0.084 N 
HETATM    2  H   UNL     1       4.911   1.217  -3.565  1.00  0.00     0.315 HD
ENDROOT
BRANCH   1   3
HETATM    3  C   UNL     1       4.652  -0.698  -2.911  1.00  0.00     0.274 C 
BRANCH   3   4
HETATM    4  C   UNL     1       3.108  -0.663  -2.884  1.00  0.00     0.014 C 
HETATM    5  C   UNL     1       2.560  -1.664  -1.850  1.00  0.00     0.007 C 
HETATM    6  C   UNL     1       2.718  -3.121  -2.290  1.00  0.00     0.005 C 
HETATM    7  C   UNL     1       2.132  -3.397  -3.682  1.00  0.00    -0.019 C 
HETATM    8  C   UNL     1       0.602  -3.436  -3.645  1.00  0.00     0.010 C 
HETATM    9  C   UNL     1       2.642  -2.381  -4.714  1.00  0.00     0.005 C 
HETATM   10  C   UNL     1       2.470  -0.932  -4.258  1.00  0.00     0.007 C 
ENDBRANCH   3   4
ENDBRANCH   1   3
BRANCH   1  11
HETATM   11  C   UNL     1       6.656   0.202  -3.913  1.00  0.00     0.277 C 
BRANCH  11  12
HETATM   12  C   UNL     1       7.207   1.202  -4.935  1.00  0.00     0.108 C 
BRANCH  12  13
HETATM   13  C   UNL     1       8.694   1.154  -4.979  1.00  0.00     0.100 A 
HETATM   14  N   UNL     1       9.519   1.858  -4.229  1.00  0.00    -0.340 N 
HETATM   15  C   UNL     1      10.752   1.436  -4.631  1.00  0.00     0.199 A 
ATOM     16  HN  UNL     1       9.290   2.552  -3.518  1.00  0.00     0.168 HD
HETATM   17  N   UNL     1      10.750   0.503  -5.584  1.00  0.00    -0.293 N 
HETATM   18  N   UNL     1       9.431   0.343  -5.802  1.00  0.00    -0.284 N 
ATOM     19  HN  UNL     1      11.539   0.035  -6.030  1.00  0.00     0.188 HD
HETATM   20  C   UNL     1       8.971  -0.613  -6.775  1.00  0.00     0.179 C 
ENDBRANCH  12  13
ENDBRANCH  11  12
ENDBRANCH   1  11
TORSDOF 5
