REMARK  6 active torsions:
REMARK  status: ('A' for Active; 'I' for Inactive)
REMARK    1  A    between atoms: N_3  and  C_7 
REMARK    2  A    between atoms: C_4  and  C_12 
REMARK    3  A    between atoms: C_10  and  C_14 
REMARK    4  A    between atoms: C_10  and  O_13 
REMARK    5  A    between atoms: N_11  and  C_12 
REMARK    6  A    between atoms: N_11  and  C_14 
ROOT
HETATM    1  C   UNL     1      -1.474   0.060   0.012  1.00  0.00     0.330 C 
HETATM    2  N   UNL     1      -0.715   1.203   0.082  1.00  0.00    -0.275 N 
HETATM    3  N   UNL     1      -0.760  -1.140  -0.018  1.00  0.00    -0.300 N 
HETATM    4  C   UNL     1       1.366   0.008  -0.017  1.00  0.00     0.053 C 
HETATM    5  C   UNL     1       0.633  -1.111   0.020  1.00  0.00     0.111 C 
HETATM    6  C   UNL     1       0.637   1.292  -0.032  1.00  0.00     0.258 C 
HETATM    7  O   UNL     1      -2.693   0.189  -0.036  1.00  0.00    -0.246 OA
HETATM    8  O   UNL     1       1.215   2.367  -0.151  1.00  0.00    -0.267 OA
HETATM    9  H   UNL     1      -1.231   2.067   0.053  1.00  0.00     0.173 HD
ENDROOT
BRANCH   4  10
HETATM   10  C   UNL     1       2.865   0.093  -0.098  1.00  0.00     0.315 C 
BRANCH  10  11
HETATM   11  N   UNL     1       3.520  -1.224  -0.219  1.00  0.00     0.090 N 
HETATM   12  H   UNL     1       3.259  -1.602  -1.132  1.00  0.00     0.316 HD
BRANCH  11  13
HETATM   13  C   UNL     1       4.985  -1.060  -0.240  1.00  0.00     0.307 C 
BRANCH  13  14
HETATM   14  C   UNL     1       5.679  -2.423  -0.383  1.00  0.00     0.084 C 
HETATM   15  C   UNL     1       5.798  -3.310   0.897  1.00  0.00     0.039 C 
HETATM   16  C   UNL     1       7.220  -3.673   0.416  1.00  0.00     0.006 C 
HETATM   17  C   UNL     1       7.231  -2.325  -0.330  1.00  0.00     0.039 C 
BRANCH  14  18
HETATM   18  O   UNL     1       5.149  -3.117  -1.544  1.00  0.00    -0.388 OA
HETATM   19  H   UNL     1       4.291  -3.458  -1.235  1.00  0.00     0.210 HD
ENDBRANCH  14  18
ENDBRANCH  13  14
ENDBRANCH  11  13
ENDBRANCH  10  11
ENDBRANCH   4  10
BRANCH   3  20
HETATM   20  C   UNL     1      -1.422  -2.495  -0.174  1.00  0.00     0.030 C 
HETATM   21  C   UNL     1      -2.960  -2.454  -0.306  1.00  0.00     0.038 C 
HETATM   22  C   UNL     1      -0.900  -3.184  -1.461  1.00  0.00     0.038 C 
HETATM   23  C   UNL     1      -1.111  -3.395   1.044  1.00  0.00     0.038 C 
ENDBRANCH   3  20
TORSDOF 6
