REMARK  5 active torsions:
REMARK  status: ('A' for Active; 'I' for Inactive)
REMARK    1  A    between atoms: O_2  and  C_3 
REMARK    2  A    between atoms: C_3  and  C_4 
REMARK    3  A    between atoms: C_4  and  N_6 
REMARK       I    between atoms: N_6  and  C_7 
REMARK    4  A    between atoms: C_7  and  C_9 
REMARK    5  A    between atoms: C_12  and  N_16 
ROOT
HETATM    1  C   UNL     1       6.839  -1.921   3.989  1.00  0.00     0.047 A 
HETATM    2  C   UNL     1       7.564  -1.161   4.897  1.00  0.00     0.022 A 
HETATM    3  C   UNL     1       8.014  -1.758   6.077  1.00  0.00     0.049 A 
HETATM    4  C   UNL     1       7.742  -3.100   6.351  1.00  0.00     0.103 A 
HETATM    5  N   UNL     1       6.992  -3.821   5.486  1.00  0.00    -0.351 N 
ATOM      6  HN  UNL     1       6.758  -4.793   5.688  1.00  0.00     0.166 HD
HETATM    7  C   UNL     1       6.554  -3.228   4.340  1.00  0.00     0.106 A 
ENDROOT
BRANCH   1   8
HETATM    8  C   UNL     1       6.373  -1.384   2.690  1.00  0.00     0.253 C 
HETATM    9  N   UNL     1       7.209  -0.461   2.094  1.00  0.00    -0.351 N 
HETATM   10  H   UNL     1       8.087  -0.224   2.534  1.00  0.00     0.163 HD
HETATM   11  O   UNL     1       5.329  -1.785   2.194  1.00  0.00    -0.268 OA
BRANCH   9  12
HETATM   12  C   UNL     1       6.921   0.141   0.793  1.00  0.00     0.104 C 
HETATM   13  C   UNL     1       8.236   0.429   0.064  1.00  0.00     0.034 C 
BRANCH  12  14
HETATM   14  C   UNL     1       6.075   1.420   0.941  1.00  0.00     0.191 C 
BRANCH  14  15
HETATM   15  O   UNL     1       5.785   1.962  -0.350  1.00  0.00    -0.394 OA
HETATM   16  C   UNL     1       4.998   3.142  -0.265  1.00  0.00     0.201 C 
ENDBRANCH  14  15
ENDBRANCH  12  14
ENDBRANCH   9  12
ENDBRANCH   1   8
BRANCH   4  17
HETATM   17  N   UNL     1       8.192  -3.695   7.508  1.00  0.00    -0.362 N 
HETATM   18  C   UNL     1       9.458  -3.332   8.155  1.00  0.00     0.156 C 
HETATM   19  C   UNL     1      10.422  -4.540   8.186  1.00  0.00     0.136 C 
HETATM   20  C   UNL     1      11.662  -4.218   9.011  1.00  0.00     0.041 C 
HETATM   21  O   UNL     1       9.797  -5.692   8.777  1.00  0.00    -0.378 OA
HETATM   22  C   UNL     1       8.636  -6.083   8.014  1.00  0.00     0.136 C 
HETATM   23  C   UNL     1       8.066  -7.329   8.679  1.00  0.00     0.041 C 
HETATM   24  C   UNL     1       7.591  -4.949   7.981  1.00  0.00     0.156 C 
ENDBRANCH   4  17
TORSDOF 5
