REMARK  5 active torsions:
REMARK  status: ('A' for Active; 'I' for Inactive)
REMARK    1  A    between atoms: C_2  and  N_3 
REMARK    2  A    between atoms: C_2  and  C_13 
REMARK    3  A    between atoms: N_3  and  C_4 
REMARK    4  A    between atoms: C_4  and  C_5 
REMARK       I    between atoms: C_5  and  N_7 
REMARK    5  A    between atoms: C_13  and  N_15 
ROOT
HETATM    1  N   UNL     1       2.783  -0.933   1.267  1.00  0.00     0.098 N 
HETATM    2  H   UNL     1       2.453  -0.536   2.148  1.00  0.00     0.317 HD
ENDROOT
BRANCH   1   3
HETATM    3  C   UNL     1       2.386  -0.087   0.116  1.00  0.00     0.241 C 
HETATM    4  C   UNL     1       0.855   0.045   0.064  1.00  0.00     0.045 C 
BRANCH   3   5
HETATM    5  C   UNL     1       2.988  -0.539  -1.256  1.00  0.00     0.136 C 
HETATM    6  C   UNL     1       2.594   0.363  -2.431  1.00  0.00     0.036 C 
BRANCH   5   7
HETATM    7  N   UNL     1       4.447  -0.661  -1.199  1.00  0.00    -0.297 N 
HETATM    8  C   UNL     1       5.176  -1.799  -1.415  1.00  0.00     0.118 A 
HETATM    9  C   UNL     1       6.501  -1.450  -1.270  1.00  0.00    -0.028 A 
HETATM   10  C   UNL     1       7.697  -2.313  -1.381  1.00  0.00     0.051 C 
HETATM   11  C   UNL     1       6.459  -0.065  -0.991  1.00  0.00     0.115 A 
HETATM   12  N   UNL     1       5.219   0.426  -0.989  1.00  0.00    -0.309 N 
ATOM     13  HN  UNL     1       4.924   1.394  -0.859  1.00  0.00     0.186 HD
ENDBRANCH   5   7
ENDBRANCH   3   5
ENDBRANCH   1   3
BRANCH   1  14
HETATM   14  C   UNL     1       2.348  -2.331   1.165  1.00  0.00     0.372 C 
BRANCH  14  15
HETATM   15  C   UNL     1       2.819  -3.169   2.358  1.00  0.00     0.256 C 
HETATM   16  O   UNL     1       3.127  -2.680   3.448  1.00  0.00    -0.271 OA
HETATM   17  N   UNL     1       2.793  -4.545   2.148  1.00  0.00    -0.267 N 
HETATM   18  C   UNL     1       3.253  -5.466   3.165  1.00  0.00     0.156 A 
HETATM   19  C   UNL     1       2.117  -5.242   1.133  1.00  0.00     0.325 A 
HETATM   20  C   UNL     1       2.863  -6.845   2.656  1.00  0.00     0.145 A 
HETATM   21  N   UNL     1       2.171  -6.591   1.431  1.00  0.00    -0.341 N 
HETATM   22  H   UNL     1       1.735  -7.275   0.824  1.00  0.00     0.164 HD
HETATM   23  O   UNL     1       1.568  -4.802   0.140  1.00  0.00    -0.247 OA
ENDBRANCH  14  15
ENDBRANCH   1  14
TORSDOF 5
