REMARK  5 active torsions:
REMARK  status: ('A' for Active; 'I' for Inactive)
REMARK    1  A    between atoms: C_2  and  C_3 
REMARK    2  A    between atoms: C_6  and  C_7 
REMARK    3  A    between atoms: C_7  and  C_8 
REMARK    4  A    between atoms: C_8  and  N_9 
REMARK       I    between atoms: N_9  and  C_10 
REMARK    5  A    between atoms: C_10  and  C_12 
ROOT
HETATM    1  C   UNL     1       3.892   1.884  -4.387  1.00  0.00     0.077 C 
ENDROOT
BRANCH   1   2
HETATM    2  C   UNL     1       3.584   0.837  -3.362  1.00  0.00     0.018 A 
HETATM    3  N   UNL     1       3.157  -0.416  -3.776  1.00  0.00    -0.357 N 
HETATM    4  C   UNL     1       2.978  -1.204  -2.737  1.00  0.00     0.050 A 
ATOM      5  HN  UNL     1       3.004  -0.688  -4.747  1.00  0.00     0.166 HD
HETATM    6  S   UNL     1       3.246  -0.473  -1.205  1.00  0.00    -0.087 SA
HETATM    7  C   UNL     1       3.676   0.986  -1.991  1.00  0.00     0.076 A 
BRANCH   4   8
HETATM    8  C   UNL     1       2.581  -2.644  -2.834  1.00  0.00     0.060 C 
HETATM    9  C   UNL     1       3.799  -3.552  -2.912  1.00  0.00     0.012 C 
ENDBRANCH   4   8
ENDBRANCH   1   2
BRANCH   1  10
HETATM   10  C   UNL     1       4.391   1.292  -5.705  1.00  0.00     0.128 C 
BRANCH  10  11
HETATM   11  N   UNL     1       4.747   2.311  -6.680  1.00  0.00    -0.360 N 
HETATM   12  C   UNL     1       6.014   2.857  -6.735  1.00  0.00     0.221 C 
HETATM   13  O   UNL     1       6.876   2.566  -5.905  1.00  0.00    -0.273 OA
HETATM   14  H   UNL     1       4.053   2.587  -7.362  1.00  0.00     0.162 HD
BRANCH  12  15
HETATM   15  C   UNL     1       6.230   3.839  -7.924  1.00  0.00     0.078 C 
HETATM   16  C   UNL     1       7.352   3.479  -8.936  1.00  0.00     0.014 C 
HETATM   17  C   UNL     1       7.675   4.981  -9.025  1.00  0.00     0.002 C 
HETATM   18  C   UNL     1       7.032   5.137  -7.635  1.00  0.00     0.014 C 
ENDBRANCH  12  15
ENDBRANCH  10  11
ENDBRANCH   1  10
TORSDOF 5
