REMARK  5 active torsions:
REMARK  status: ('A' for Active; 'I' for Inactive)
REMARK    1  A    between atoms: O_2  and  C_3 
REMARK    2  A    between atoms: C_6  and  N_7 
REMARK       I    between atoms: N_7  and  C_8 
REMARK       I    between atoms: C_8  and  N_10 
REMARK    3  A    between atoms: N_10  and  C_11 
REMARK    4  A    between atoms: C_11  and  C_12 
REMARK    5  A    between atoms: C_12  and  N_14 
ROOT
HETATM    1  N   UNL     1       4.604  -2.411  -4.491  1.00  0.00    -0.308 N 
HETATM    2  C   UNL     1       4.490  -3.758  -4.738  1.00  0.00     0.320 C 
HETATM    3  O   UNL     1       4.157  -4.601  -3.916  1.00  0.00    -0.247 OA
HETATM    4  N   UNL     1       4.810  -4.107  -6.040  1.00  0.00    -0.341 N 
HETATM    5  H   UNL     1       5.250  -1.910  -5.085  1.00  0.00     0.170 HD
HETATM    6  H   UNL     1       4.551  -3.421  -6.734  1.00  0.00     0.164 HD
ENDROOT
BRANCH   1   7
HETATM    7  C   UNL     1       4.254  -1.820  -3.249  1.00  0.00     0.051 A 
HETATM    8  C   UNL     1       3.344  -2.398  -2.361  1.00  0.00     0.035 A 
HETATM    9  C   UNL     1       3.099  -1.807  -1.124  1.00  0.00     0.058 A 
HETATM   10  C   UNL     1       3.763  -0.635  -0.815  1.00  0.00     0.141 A 
HETATM   11  N   UNL     1       4.611  -0.009  -1.660  1.00  0.00    -0.345 N 
HETATM   12  C   UNL     1       4.830  -0.615  -2.856  1.00  0.00     0.119 A 
ATOM     13  HN  UNL     1       5.063   0.872  -1.413  1.00  0.00     0.167 HD
BRANCH  10  14
HETATM   14  O   UNL     1       3.505  -0.111   0.436  1.00  0.00    -0.341 OA
HETATM   15  C   UNL     1       4.297   1.031   0.736  1.00  0.00     0.211 C 
ENDBRANCH  10  14
ENDBRANCH   1   7
BRANCH   4  16
HETATM   16  C   UNL     1       4.555  -5.507  -6.365  1.00  0.00     0.159 C 
BRANCH  16  17
HETATM   17  C   UNL     1       4.932  -5.986  -7.788  1.00  0.00     0.236 C 
HETATM   18  C   UNL     1       6.445  -5.826  -8.000  1.00  0.00     0.044 C 
BRANCH  17  19
HETATM   19  N   UNL     1       4.518  -7.398  -7.982  1.00  0.00     0.094 N 
HETATM   20  C   UNL     1       4.824  -7.953  -9.306  1.00  0.00     0.273 C 
HETATM   21  C   UNL     1       3.721  -8.961  -9.616  1.00  0.00     0.032 C 
HETATM   22  C   UNL     1       2.862  -9.004  -8.369  1.00  0.00     0.032 C 
HETATM   23  C   UNL     1       3.092  -7.646  -7.742  1.00  0.00     0.273 C 
ENDBRANCH  17  19
ENDBRANCH  16  17
ENDBRANCH   4  16
TORSDOF 5
