REMARK  4 active torsions:
REMARK  status: ('A' for Active; 'I' for Inactive)
REMARK    1  A    between atoms: C_2  and  N_3 
REMARK    2  A    between atoms: C_2  and  C_19 
REMARK       I    between atoms: N_3  and  C_4 
REMARK    3  A    between atoms: C_4  and  C_6 
REMARK    4  A    between atoms: C_8  and  N_13 
ROOT
HETATM    1  C   UNL     1       3.139  -3.906  -0.143  1.00  0.00     0.102 A 
HETATM    2  C   UNL     1       3.876  -4.031  -1.322  1.00  0.00     0.064 A 
HETATM    3  C   UNL     1       4.170  -5.297  -1.842  1.00  0.00     0.034 A 
HETATM    4  C   UNL     1       3.687  -6.380  -1.097  1.00  0.00     0.046 A 
HETATM    5  C   UNL     1       2.969  -6.173   0.078  1.00  0.00     0.090 A 
HETATM    6  N   UNL     1       2.679  -4.958   0.580  1.00  0.00    -0.361 N 
ATOM      7  HN  UNL     1       2.150  -4.837   1.444  1.00  0.00     0.165 HD
ENDROOT
BRANCH   1   8
HETATM    8  C   UNL     1       2.798  -2.536   0.372  1.00  0.00     0.268 C 
HETATM    9  N   UNL     1       1.995  -2.515   1.493  1.00  0.00    -0.348 N 
HETATM   10  H   UNL     1       1.771  -3.416   1.905  1.00  0.00     0.163 HD
HETATM   11  O   UNL     1       3.210  -1.526  -0.191  1.00  0.00    -0.266 OA
BRANCH   9  12
HETATM   12  C   UNL     1       1.590  -1.282   2.131  1.00  0.00     0.103 C 
HETATM   13  C   UNL     1       2.635  -0.798   3.133  1.00  0.00     0.036 C 
BRANCH  12  14
HETATM   14  C   UNL     1       0.274  -1.532   2.818  1.00  0.00    -0.013 C 
HETATM   15  C   UNL     1      -0.869  -0.904   2.504  1.00  0.00     0.009 C 
ENDBRANCH  12  14
ENDBRANCH   9  12
ENDBRANCH   1   8
BRANCH   3  16
HETATM   16  N   UNL     1       4.858  -5.477  -3.026  1.00  0.00    -0.377 N 
HETATM   17  C   UNL     1       5.681  -6.670  -3.310  1.00  0.00     0.149 C 
HETATM   18  C   UNL     1       7.153  -6.257  -3.499  1.00  0.00     0.187 C 
HETATM   19  O   UNL     1       7.304  -5.244  -4.508  1.00  0.00    -0.388 OA
HETATM   20  C   UNL     1       6.538  -4.076  -4.163  1.00  0.00     0.187 C 
HETATM   21  C   UNL     1       5.046  -4.414  -4.034  1.00  0.00     0.149 C 
ENDBRANCH   3  16
TORSDOF 4
