REMARK  6 active torsions:
REMARK  status: ('A' for Active; 'I' for Inactive)
REMARK    1  A    between atoms: C_2  and  C_3 
REMARK    2  A    between atoms: C_2  and  N_10 
REMARK    3  A    between atoms: C_3  and  N_4 
REMARK    4  A    between atoms: N_10  and  C_11 
REMARK    5  A    between atoms: C_11  and  C_12 
REMARK       I    between atoms: C_12  and  N_14 
REMARK    6  A    between atoms: N_14  and  C_15 
ROOT
HETATM    1  N   UNL     1       3.025  -0.879  -1.175  1.00  0.00     0.098 N 
HETATM    2  H   UNL     1       2.683  -0.402  -2.015  1.00  0.00     0.317 HD
ENDROOT
BRANCH   1   3
HETATM    3  C   UNL     1       2.558  -0.108   0.004  1.00  0.00     0.236 C 
HETATM    4  C   UNL     1       1.027  -0.056  -0.102  1.00  0.00     0.044 C 
BRANCH   3   5
HETATM    5  C   UNL     1       3.004  -0.732   1.342  1.00  0.00     0.183 C 
BRANCH   5   6
HETATM    6  N   UNL     1       2.511  -0.037   2.516  1.00  0.00    -0.302 N 
HETATM    7  C   UNL     1       1.721  -0.560   3.501  1.00  0.00     0.111 A 
HETATM    8  C   UNL     1       1.565   0.440   4.432  1.00  0.00     0.037 A 
HETATM    9  C   UNL     1       2.302   1.523   3.919  1.00  0.00     0.108 A 
HETATM   10  N   UNL     1       2.882   1.237   2.750  1.00  0.00    -0.310 N 
ATOM     11  HN  UNL     1       3.467   1.840   2.172  1.00  0.00     0.186 HD
ENDBRANCH   5   6
ENDBRANCH   3   5
ENDBRANCH   1   3
BRANCH   1  12
HETATM   12  C   UNL     1       4.503  -0.929  -1.280  1.00  0.00     0.372 C 
BRANCH  12  13
HETATM   13  C   UNL     1       4.914  -1.742  -2.516  1.00  0.00     0.246 C 
HETATM   14  O   UNL     1       5.972  -1.551  -3.108  1.00  0.00    -0.272 OA
HETATM   15  N   UNL     1       4.005  -2.732  -2.837  1.00  0.00    -0.355 N 
HETATM   16  H   UNL     1       3.155  -2.749  -2.279  1.00  0.00     0.162 HD
BRANCH  15  17
HETATM   17  C   UNL     1       4.176  -3.631  -3.926  1.00  0.00     0.084 A 
HETATM   18  C   UNL     1       3.111  -4.635  -4.275  1.00  0.00     0.027 A 
HETATM   19  C   UNL     1       4.404  -5.095  -3.668  1.00  0.00     0.027 A 
ENDBRANCH  15  17
ENDBRANCH  12  13
ENDBRANCH   1  12
TORSDOF 6
