REMARK  5 active torsions:
REMARK  status: ('A' for Active; 'I' for Inactive)
REMARK    1  A    between atoms: C_2  and  N_3 
REMARK    2  A    between atoms: C_2  and  C_17 
REMARK       I    between atoms: N_3  and  C_4 
REMARK    3  A    between atoms: C_4  and  C_6 
REMARK    4  A    between atoms: C_6  and  N_7 
REMARK    5  A    between atoms: C_11  and  N_12 
ROOT
HETATM    1  N   UNL     1       2.881  -1.303   0.570  1.00  0.00    -0.355 N 
HETATM    2  C   UNL     1       4.050  -1.451   1.292  1.00  0.00     0.236 C 
HETATM    3  O   UNL     1       4.779  -0.515   1.615  1.00  0.00    -0.272 OA
HETATM    4  H   UNL     1       2.224  -2.081   0.566  1.00  0.00     0.162 HD
ENDROOT
BRANCH   2   5
HETATM    5  C   UNL     1       4.330  -2.873   1.754  1.00  0.00     0.234 C 
BRANCH   5   6
HETATM    6  N   UNL     1       3.980  -2.979   3.165  1.00  0.00    -0.314 N 
HETATM    7  C   UNL     1       4.920  -2.656   4.131  1.00  0.00     0.095 C 
HETATM    8  C   UNL     1       4.613  -2.689   5.434  1.00  0.00     0.020 C 
HETATM    9  C   UNL     1       3.305  -3.135   5.852  1.00  0.00     0.043 C 
HETATM   10  C   UNL     1       2.371  -3.418   4.927  1.00  0.00     0.170 C 
HETATM   11  C   UNL     1       2.636  -3.247   3.477  1.00  0.00     0.281 C 
HETATM   12  O   UNL     1       1.766  -3.300   2.613  1.00  0.00    -0.265 OA
BRANCH  10  13
HETATM   13  N   UNL     1       1.108  -3.958   5.362  1.00  0.00    -0.110 N 
HETATM   14  O   UNL     1       0.544  -4.777   4.628  1.00  0.00    -0.532 OA
HETATM   15  O   UNL     1       0.693  -3.617   6.481  1.00  0.00    -0.532 OA
ENDBRANCH  10  13
ENDBRANCH   5   6
ENDBRANCH   2   5
BRANCH   1  16
HETATM   16  C   UNL     1       2.427  -0.001   0.095  1.00  0.00     0.084 C 
HETATM   17  C   UNL     1       0.908   0.099   0.257  1.00  0.00     0.032 C 
BRANCH  16  18
HETATM   18  C   UNL     1       2.852   0.244  -1.371  1.00  0.00     0.012 C 
HETATM   19  C   UNL     1       4.374   0.132  -1.641  1.00  0.00     0.011 C 
HETATM   20  C   UNL     1       4.725   1.492  -2.257  1.00  0.00    -0.014 C 
HETATM   21  C   UNL     1       4.606   2.574  -1.165  1.00  0.00     0.005 C 
HETATM   22  C   UNL     1       3.498   1.752  -3.123  1.00  0.00     0.010 C 
HETATM   23  C   UNL     1       3.089   2.770  -1.038  1.00  0.00     0.005 C 
HETATM   24  C   UNL     1       2.529   1.659  -1.940  1.00  0.00    -0.008 C 
ENDBRANCH  16  18
ENDBRANCH   1  16
TORSDOF 5
