REMARK  4 active torsions:
REMARK  status: ('A' for Active; 'I' for Inactive)
REMARK    1  A    between atoms: O_2  and  C_3 
REMARK    2  A    between atoms: C_6  and  N_7 
REMARK       I    between atoms: N_7  and  C_8 
REMARK       I    between atoms: C_8  and  N_10 
REMARK    3  A    between atoms: N_10  and  C_11 
REMARK    4  A    between atoms: C_11  and  C_12 
ROOT
HETATM    1  N   UNL     1       4.382   3.379  -4.103  1.00  0.00    -0.308 N 
HETATM    2  C   UNL     1       5.026   2.942  -5.236  1.00  0.00     0.320 C 
HETATM    3  O   UNL     1       5.326   1.779  -5.486  1.00  0.00    -0.247 OA
HETATM    4  N   UNL     1       5.360   3.971  -6.093  1.00  0.00    -0.342 N 
HETATM    5  H   UNL     1       4.448   4.364  -3.904  1.00  0.00     0.170 HD
HETATM    6  H   UNL     1       4.745   4.769  -6.100  1.00  0.00     0.164 HD
ENDROOT
BRANCH   1   7
HETATM    7  C   UNL     1       3.937   2.526  -3.058  1.00  0.00     0.051 A 
HETATM    8  C   UNL     1       3.766   1.151  -3.209  1.00  0.00     0.035 A 
HETATM    9  C   UNL     1       3.403   0.367  -2.117  1.00  0.00     0.058 A 
HETATM   10  C   UNL     1       3.175   0.991  -0.906  1.00  0.00     0.141 A 
HETATM   11  N   UNL     1       3.286   2.324  -0.717  1.00  0.00    -0.345 N 
HETATM   12  C   UNL     1       3.664   3.055  -1.797  1.00  0.00     0.119 A 
ATOM     13  HN  UNL     1       3.096   2.757   0.187  1.00  0.00     0.167 HD
BRANCH  10  14
HETATM   14  O   UNL     1       2.850   0.163   0.148  1.00  0.00    -0.341 OA
HETATM   15  C   UNL     1       2.207   0.857   1.208  1.00  0.00     0.211 C 
ENDBRANCH  10  14
ENDBRANCH   1   7
BRANCH   4  16
HETATM   16  C   UNL     1       5.941   3.576  -7.358  1.00  0.00     0.129 C 
BRANCH  16  17
HETATM   17  C   UNL     1       6.259   4.759  -8.206  1.00  0.00     0.003 A 
HETATM   18  C   UNL     1       5.180   5.590  -8.852  1.00  0.00     0.007 A 
HETATM   19  C   UNL     1       6.019   4.669  -9.694  1.00  0.00     0.007 A 
ENDBRANCH  16  17
ENDBRANCH   4  16
TORSDOF 4
