REMARK  5 active torsions:
REMARK  status: ('A' for Active; 'I' for Inactive)
REMARK       I    between atoms: N_1  and  C_2 
REMARK    1  A    between atoms: C_2  and  C_4 
REMARK    2  A    between atoms: C_4  and  N_5 
REMARK       I    between atoms: N_5  and  C_6 
REMARK    3  A    between atoms: C_6  and  C_8 
REMARK    4  A    between atoms: C_8  and  N_9 
REMARK    5  A    between atoms: C_13  and  C_16 
ROOT
HETATM    1  N   UNL     1       7.742   2.184   2.556  1.00  0.00    -0.315 N 
HETATM    2  C   UNL     1       7.939   3.530   2.306  1.00  0.00     0.095 C 
HETATM    3  C   UNL     1       8.514   4.325   3.216  1.00  0.00     0.018 C 
HETATM    4  C   UNL     1       8.868   3.790   4.504  1.00  0.00     0.023 C 
HETATM    5  C   UNL     1       8.720   2.484   4.788  1.00  0.00     0.115 C 
HETATM    6  C   UNL     1       8.201   1.580   3.733  1.00  0.00     0.263 C 
HETATM    7  O   UNL     1       8.200   0.368   3.919  1.00  0.00    -0.267 OA
ENDROOT
BRANCH   1   8
HETATM    8  C   UNL     1       7.062   1.380   1.529  1.00  0.00     0.234 C 
BRANCH   8   9
HETATM    9  C   UNL     1       5.540   1.349   1.761  1.00  0.00     0.236 C 
HETATM   10  N   UNL     1       4.981   0.352   2.514  1.00  0.00    -0.351 N 
HETATM   11  H   UNL     1       3.974   0.411   2.621  1.00  0.00     0.163 HD
HETATM   12  O   UNL     1       4.815   2.251   1.333  1.00  0.00    -0.272 OA
BRANCH  10  13
HETATM   13  C   UNL     1       5.669  -0.715   3.210  1.00  0.00     0.225 C 
BRANCH  13  14
HETATM   14  C   UNL     1       5.222  -2.134   2.906  1.00  0.00     0.233 C 
HETATM   15  N   UNL     1       6.097  -3.081   3.378  1.00  0.00    -0.369 N 
HETATM   16  H   UNL     1       5.926  -4.050   3.149  1.00  0.00     0.159 HD
HETATM   17  H   UNL     1       6.974  -2.834   3.824  1.00  0.00     0.159 HD
HETATM   18  O   UNL     1       4.201  -2.435   2.304  1.00  0.00    -0.272 OA
ENDBRANCH  13  14
ENDBRANCH  10  13
ENDBRANCH   8   9
ENDBRANCH   1   8
BRANCH   5  19
HETATM   19  C   UNL     1       9.052   1.889   6.110  1.00  0.00     0.422 C 
HETATM   20  F   UNL     1       8.713   0.589   6.295  1.00  0.00    -0.166 F 
HETATM   21  F   UNL     1      10.388   1.976   6.359  1.00  0.00    -0.166 F 
HETATM   22  F   UNL     1       8.441   2.574   7.118  1.00  0.00    -0.166 F 
ENDBRANCH   5  19
TORSDOF 5
