REMARK  4 active torsions:
REMARK  status: ('A' for Active; 'I' for Inactive)
REMARK    1  A    between atoms: C_7  and  N_8 
REMARK       I    between atoms: N_8  and  C_9 
REMARK       I    between atoms: C_9  and  N_11 
REMARK    2  A    between atoms: N_11  and  C_12 
REMARK    3  A    between atoms: C_12  and  C_13 
REMARK    4  A    between atoms: C_13  and  C_17 
ROOT
HETATM    1  N   UNL     1       5.877  -3.093   1.176  1.00  0.00    -0.290 N 
HETATM    2  C   UNL     1       5.139  -4.255   1.214  1.00  0.00     0.321 C 
HETATM    3  O   UNL     1       4.783  -4.735   2.285  1.00  0.00    -0.247 OA
HETATM    4  N   UNL     1       4.932  -4.839   0.003  1.00  0.00    -0.342 N 
HETATM    5  H   UNL     1       6.159  -2.758   2.091  1.00  0.00     0.172 HD
HETATM    6  H   UNL     1       5.136  -4.257  -0.806  1.00  0.00     0.164 HD
ENDROOT
BRANCH   1   7
HETATM    7  C   UNL     1       6.358  -2.389   0.084  1.00  0.00     0.178 A 
HETATM    8  N   UNL     1       5.975  -2.641  -1.135  1.00  0.00    -0.346 N 
HETATM    9  C   UNL     1       6.500  -1.838  -2.114  1.00  0.00     0.107 A 
ATOM     10  HN  UNL     1       5.321  -3.394  -1.349  1.00  0.00     0.167 HD
HETATM   11  C   UNL     1       7.355  -0.832  -1.902  1.00  0.00     0.111 A 
HETATM   12  N   UNL     1       7.797  -0.533  -0.632  1.00  0.00    -0.325 N 
HETATM   13  C   UNL     1       8.750   0.527  -0.400  1.00  0.00     0.159 C 
HETATM   14  C   UNL     1       7.372  -1.296   0.449  1.00  0.00     0.291 A 
HETATM   15  O   UNL     1       7.739  -1.194   1.609  1.00  0.00    -0.264 OA
ENDBRANCH   1   7
BRANCH   4  16
HETATM   16  C   UNL     1       4.429  -6.173  -0.210  1.00  0.00     0.134 C 
BRANCH  16  17
HETATM   17  C   UNL     1       5.560  -7.121  -0.715  1.00  0.00    -0.021 C 
HETATM   18  C   UNL     1       6.719  -7.333   0.331  1.00  0.00     0.011 C 
HETATM   19  C   UNL     1       7.742  -7.176  -0.807  1.00  0.00     0.002 C 
HETATM   20  C   UNL     1       6.667  -6.451  -1.628  1.00  0.00     0.011 C 
BRANCH  17  21
HETATM   21  C   UNL     1       4.898  -8.431  -1.220  1.00  0.00    -0.004 A 
HETATM   22  C   UNL     1       5.612  -9.664  -1.710  1.00  0.00     0.006 A 
HETATM   23  C   UNL     1       4.808  -8.836  -2.670  1.00  0.00     0.006 A 
ENDBRANCH  17  21
ENDBRANCH  16  17
ENDBRANCH   4  16
TORSDOF 4
