REMARK  5 active torsions:
REMARK  status: ('A' for Active; 'I' for Inactive)
REMARK    1  A    between atoms: O_2  and  C_3 
REMARK    2  A    between atoms: C_9  and  N_10 
REMARK       I    between atoms: N_10  and  C_11 
REMARK       I    between atoms: C_11  and  N_13 
REMARK    3  A    between atoms: N_13  and  C_14 
REMARK    4  A    between atoms: C_14  and  C_15 
REMARK    5  A    between atoms: C_15  and  N_18 
ROOT
HETATM    1  N   UNL     1       4.716  -0.785   1.666  1.00  0.00    -0.305 N 
HETATM    2  C   UNL     1       4.482  -1.724   0.691  1.00  0.00     0.320 C 
HETATM    3  O   UNL     1       4.286  -1.499  -0.494  1.00  0.00    -0.247 OA
HETATM    4  N   UNL     1       4.529  -3.010   1.176  1.00  0.00    -0.340 N 
HETATM    5  H   UNL     1       5.056  -1.094   2.568  1.00  0.00     0.171 HD
HETATM    6  H   UNL     1       4.512  -3.157   2.171  1.00  0.00     0.164 HD
ENDROOT
BRANCH   1   7
HETATM    7  C   UNL     1       4.709   0.620   1.471  1.00  0.00     0.087 A 
HETATM    8  C   UNL     1       5.232   1.472   2.451  1.00  0.00     0.169 A 
HETATM    9  N   UNL     1       5.228   2.826   2.361  1.00  0.00    -0.345 N 
HETATM   10  C   UNL     1       4.719   3.359   1.234  1.00  0.00     0.090 A 
ATOM     11  HN  UNL     1       5.593   3.412   3.112  1.00  0.00     0.167 HD
HETATM   12  C   UNL     1       4.214   2.606   0.196  1.00  0.00     0.019 A 
HETATM   13  C   UNL     1       4.200   1.222   0.320  1.00  0.00     0.035 A 
BRANCH   8  14
HETATM   14  O   UNL     1       5.820   0.894   3.565  1.00  0.00    -0.339 OA
HETATM   15  C   UNL     1       6.770   1.783   4.160  1.00  0.00     0.211 C 
ENDBRANCH   8  14
ENDBRANCH   1   7
BRANCH   4  16
HETATM   16  C   UNL     1       4.275  -4.122   0.266  1.00  0.00     0.165 C 
BRANCH  16  17
HETATM   17  C   UNL     1       4.868  -5.501   0.715  1.00  0.00     0.168 C 
HETATM   18  C   UNL     1       6.354  -5.288   1.061  1.00  0.00     0.050 C 
HETATM   19  C   UNL     1       4.131  -5.896   2.025  1.00  0.00     0.050 C 
BRANCH  17  20
HETATM   20  N   UNL     1       4.601  -6.557  -0.309  1.00  0.00     0.103 N 
HETATM   21  C   UNL     1       5.084  -7.926  -0.026  1.00  0.00     0.299 C 
HETATM   22  C   UNL     1       6.534  -8.201  -0.461  1.00  0.00     0.198 C 
HETATM   23  O   UNL     1       6.734  -7.913  -1.848  1.00  0.00    -0.388 OA
HETATM   24  C   UNL     1       6.365  -6.562  -2.150  1.00  0.00     0.198 C 
HETATM   25  C   UNL     1       4.916  -6.266  -1.727  1.00  0.00     0.299 C 
ENDBRANCH  17  20
ENDBRANCH  16  17
ENDBRANCH   4  16
TORSDOF 5
