REMARK  6 active torsions:
REMARK  status: ('A' for Active; 'I' for Inactive)
REMARK    1  A    between atoms: O_1  and  C_2 
REMARK    2  A    between atoms: C_2  and  C_3 
REMARK    3  A    between atoms: C_3  and  C_4 
REMARK    4  A    between atoms: C_4  and  N_5 
REMARK       I    between atoms: N_5  and  C_6 
REMARK       I    between atoms: C_6  and  N_8 
REMARK    5  A    between atoms: N_8  and  C_9 
REMARK    6  A    between atoms: C_13  and  C_17 
ROOT
HETATM    1  N   UNL     1       5.055  -0.726  -1.803  1.00  0.00    -0.342 N 
HETATM    2  C   UNL     1       5.819   0.223  -2.442  1.00  0.00     0.320 C 
HETATM    3  O   UNL     1       5.709   1.404  -2.122  1.00  0.00    -0.247 OA
HETATM    4  N   UNL     1       6.679  -0.238  -3.414  1.00  0.00    -0.306 N 
HETATM    5  H   UNL     1       4.795  -1.578  -2.287  1.00  0.00     0.164 HD
HETATM    6  H   UNL     1       6.801  -1.238  -3.505  1.00  0.00     0.171 HD
ENDROOT
BRANCH   4   7
HETATM    7  C   UNL     1       7.477   0.635  -4.206  1.00  0.00     0.067 A 
HETATM    8  C   UNL     1       7.422   2.018  -4.160  1.00  0.00     0.120 A 
HETATM    9  N   UNL     1       8.158   2.853  -4.922  1.00  0.00    -0.353 N 
HETATM   10  C   UNL     1       9.018   2.303  -5.790  1.00  0.00     0.085 A 
ATOM     11  HN  UNL     1       8.063   3.865  -4.841  1.00  0.00     0.166 HD
HETATM   12  N   UNL     1       9.160   0.965  -5.919  1.00  0.00    -0.353 N 
HETATM   13  C   UNL     1       8.392   0.169  -5.129  1.00  0.00     0.120 A 
ATOM     14  HN  UNL     1       9.821   0.566  -6.586  1.00  0.00     0.166 HD
BRANCH  10  15
HETATM   15  C   UNL     1       9.801   3.254  -6.661  1.00  0.00     0.053 A 
HETATM   16  C   UNL     1      11.305   3.321  -6.590  1.00  0.00     0.013 A 
HETATM   17  C   UNL     1      10.493   4.453  -6.036  1.00  0.00     0.013 A 
ENDBRANCH  10  15
ENDBRANCH   4   7
BRANCH   1  18
HETATM   18  C   UNL     1       4.047  -0.153  -0.929  1.00  0.00     0.136 C 
BRANCH  18  19
HETATM   19  C   UNL     1       3.181  -1.134  -0.191  1.00  0.00    -0.003 A 
HETATM   20  C   UNL     1       3.618  -1.623   1.178  1.00  0.00     0.014 A 
HETATM   21  C   UNL     1       2.539  -0.586   1.077  1.00  0.00     0.014 A 
BRANCH  19  22
HETATM   22  C   UNL     1       2.274  -1.965  -1.060  1.00  0.00     0.175 C 
BRANCH  22  23
HETATM   23  O   UNL     1       3.051  -2.792  -1.918  1.00  0.00    -0.400 OA
HETATM   24  H   UNL     1       2.412  -3.242  -2.499  1.00  0.00     0.209 HD
ENDBRANCH  22  23
ENDBRANCH  19  22
ENDBRANCH  18  19
ENDBRANCH   1  18
TORSDOF 6
