REMARK  5 active torsions:
REMARK  status: ('A' for Active; 'I' for Inactive)
REMARK    1  A    between atoms: N_7  and  C_8 
REMARK    2  A    between atoms: C_8  and  C_9 
REMARK    3  A    between atoms: C_9  and  C_10 
REMARK    4  A    between atoms: C_10  and  N_11 
REMARK       I    between atoms: N_11  and  C_12 
REMARK       I    between atoms: C_12  and  N_14 
REMARK    5  A    between atoms: N_14  and  C_15 
ROOT
HETATM    1  N   UNL     1       2.854  -4.580   2.628  1.00  0.00    -0.343 N 
HETATM    2  C   UNL     1       4.056  -4.967   3.132  1.00  0.00     0.321 C 
HETATM    3  O   UNL     1       4.755  -4.326   3.896  1.00  0.00    -0.247 OA
HETATM    4  N   UNL     1       4.452  -6.220   2.602  1.00  0.00    -0.293 N 
HETATM    5  H   UNL     1       2.334  -5.136   1.970  1.00  0.00     0.164 HD
HETATM    6  H   UNL     1       3.899  -6.640   1.874  1.00  0.00     0.172 HD
ENDROOT
BRANCH   1   7
HETATM    7  C   UNL     1       2.351  -3.252   2.920  1.00  0.00     0.126 C 
BRANCH   7   8
HETATM    8  C   UNL     1       2.927  -2.201   1.969  1.00  0.00     0.050 C 
BRANCH   8   9
HETATM    9  C   UNL     1       2.449  -2.361   0.517  1.00  0.00     0.274 C 
BRANCH   9  10
HETATM   10  N   UNL     1       0.985  -2.392   0.376  1.00  0.00     0.092 N 
HETATM   11  C   UNL     1       0.552  -2.859  -0.962  1.00  0.00     0.219 C 
HETATM   12  C   UNL     1       1.092  -2.044  -2.148  1.00  0.00     0.043 C 
HETATM   13  C   UNL     1      -0.985  -2.958  -1.018  1.00  0.00     0.035 C 
HETATM   14  C   UNL     1      -1.666  -1.647  -0.639  1.00  0.00     0.004 C 
HETATM   15  C   UNL     1      -1.155  -1.168   0.710  1.00  0.00     0.030 C 
HETATM   16  C   UNL     1       0.370  -1.104   0.746  1.00  0.00     0.273 C 
ENDBRANCH   9  10
ENDBRANCH   8   9
ENDBRANCH   7   8
ENDBRANCH   1   7
BRANCH   4  17
HETATM   17  C   UNL     1       5.616  -6.862   3.012  1.00  0.00     0.127 A 
HETATM   18  C   UNL     1       6.371  -6.609   4.136  1.00  0.00     0.076 A 
HETATM   19  C   UNL     1       7.445  -7.523   4.088  1.00  0.00     0.025 A 
HETATM   20  C   UNL     1       8.563  -7.651   5.053  1.00  0.00     0.070 C 
HETATM   21  N   UNL     1       7.369  -8.316   3.014  1.00  0.00    -0.302 N 
HETATM   22  N   UNL     1       6.259  -7.897   2.376  1.00  0.00    -0.281 N 
ATOM     23  HN  UNL     1       8.005  -9.065   2.741  1.00  0.00     0.186 HD
HETATM   24  C   UNL     1       5.927  -8.470   1.095  1.00  0.00     0.179 C 
ENDBRANCH   4  17
TORSDOF 5
