REMARK  4 active torsions:
REMARK  status: ('A' for Active; 'I' for Inactive)
REMARK       I    between atoms: C_2  and  N_3 
REMARK    1  A    between atoms: C_2  and  C_13 
REMARK    2  A    between atoms: N_3  and  C_4 
REMARK    3  A    between atoms: C_4  and  C_5 
REMARK    4  A    between atoms: C_5  and  C_6 
ROOT
HETATM    1  O   UNL     1       1.073   0.072   0.134  1.00  0.00    -0.273 OA
HETATM    2  C   UNL     1       2.303   0.052   0.136  1.00  0.00     0.222 C 
HETATM    3  N   UNL     1       3.060   0.593   1.152  1.00  0.00    -0.360 N 
HETATM    4  H   UNL     1       4.038   0.783   0.963  1.00  0.00     0.162 HD
ENDROOT
BRANCH   3   5
HETATM    5  C   UNL     1       2.398   1.283   2.243  1.00  0.00     0.128 C 
BRANCH   5   6
HETATM    6  C   UNL     1       3.363   1.717   3.335  1.00  0.00     0.076 C 
BRANCH   6   7
HETATM    7  C   UNL     1       2.618   2.365   4.470  1.00  0.00     0.010 A 
HETATM    8  C   UNL     1       2.159   1.604   5.543  1.00  0.00     0.025 A 
HETATM    9  C   UNL     1       1.426   2.232   6.546  1.00  0.00     0.003 A 
HETATM   10  C   UNL     1       1.168   3.594   6.450  1.00  0.00     0.017 A 
HETATM   11  C   UNL     1       1.659   4.275   5.350  1.00  0.00     0.088 A 
HETATM   12  N   UNL     1       2.375   3.693   4.362  1.00  0.00    -0.369 N 
ATOM     13  HN  UNL     1       2.718   4.232   3.567  1.00  0.00     0.165 HD
ENDBRANCH   6   7
ENDBRANCH   5   6
ENDBRANCH   3   5
BRANCH   2  14
HETATM   14  C   UNL     1       3.086  -0.600  -0.997  1.00  0.00     0.081 C 
HETATM   15  C   UNL     1       3.879  -1.813  -0.483  1.00  0.00     0.018 C 
HETATM   16  C   UNL     1       5.402  -1.697  -0.411  1.00  0.00     0.027 C 
HETATM   17  C   UNL     1       6.019  -0.629  -1.245  1.00  0.00    -0.031 C 
HETATM   18  C   UNL     1       5.323   0.326  -1.870  1.00  0.00    -0.030 C 
HETATM   19  C   UNL     1       3.836   0.449  -1.825  1.00  0.00     0.041 C 
ENDBRANCH   2  14
TORSDOF 4
