REMARK  6 active torsions:
REMARK  status: ('A' for Active; 'I' for Inactive)
REMARK    1  A    between atoms: N_4  and  C_5 
REMARK    2  A    between atoms: C_5  and  C_6 
REMARK    3  A    between atoms: C_6  and  O_9 
REMARK       I    between atoms: N_12  and  C_13 
REMARK       I    between atoms: C_13  and  N_15 
REMARK    4  A    between atoms: N_15  and  C_16 
REMARK    5  A    between atoms: C_16  and  C_17 
REMARK    6  A    between atoms: C_17  and  C_18 
ROOT
HETATM    1  C   UNL     1       0.877  -0.100   0.202  1.00  0.00     0.034 C 
HETATM    2  C   UNL     1       2.403  -0.173   0.074  1.00  0.00     0.113 C 
HETATM    3  C   UNL     1       2.934   0.855  -0.969  1.00  0.00     0.297 C 
HETATM    4  N   UNL     1       2.562   0.525  -2.373  1.00  0.00     0.095 N 
HETATM    5  C   UNL     1       3.046  -0.847  -2.670  1.00  0.00     0.292 C 
HETATM    6  C   UNL     1       2.522  -1.901  -1.677  1.00  0.00     0.158 C 
HETATM    7  N   UNL     1       2.833  -1.539  -0.296  1.00  0.00    -0.327 N 
HETATM    8  C   UNL     1       3.712  -2.352   0.389  1.00  0.00     0.318 C 
HETATM    9  O   UNL     1       4.171  -3.382  -0.090  1.00  0.00    -0.247 OA
HETATM   10  N   UNL     1       4.062  -1.930   1.644  1.00  0.00    -0.343 N 
HETATM   11  H   UNL     1       3.292  -1.532   2.159  1.00  0.00     0.164 HD
ENDROOT
BRANCH  10  12
HETATM   12  C   UNL     1       4.986  -2.732   2.437  1.00  0.00     0.129 C 
BRANCH  12  13
HETATM   13  C   UNL     1       6.411  -2.766   1.862  1.00  0.00     0.060 C 
BRANCH  13  14
HETATM   14  C   UNL     1       7.332  -3.603   2.703  1.00  0.00    -0.041 A 
HETATM   15  C   UNL     1       7.454  -4.978   2.500  1.00  0.00     0.010 A 
HETATM   16  C   UNL     1       8.286  -5.728   3.328  1.00  0.00     0.025 A 
HETATM   17  C   UNL     1       8.976  -5.080   4.349  1.00  0.00     0.005 A 
HETATM   18  C   UNL     1       9.835  -5.850   5.306  1.00  0.00     0.068 C 
HETATM   19  N   UNL     1       8.880  -3.747   4.561  1.00  0.00    -0.369 N 
HETATM   20  C   UNL     1       8.071  -3.042   3.737  1.00  0.00     0.095 A 
ATOM     21  HN  UNL     1       9.397  -3.291   5.313  1.00  0.00     0.165 HD
ENDBRANCH  13  14
ENDBRANCH  12  13
ENDBRANCH  10  12
BRANCH   4  22
HETATM   22  C   UNL     1       3.152   1.532  -3.298  1.00  0.00     0.309 C 
BRANCH  22  23
HETATM   23  C   UNL     1       2.759   1.435  -4.809  1.00  0.00     0.077 C 
HETATM   24  C   UNL     1       1.239   1.468  -5.002  1.00  0.00     0.047 C 
HETATM   25  C   UNL     1       3.399   2.587  -5.595  1.00  0.00     0.047 C 
BRANCH  23  26
HETATM   26  O   UNL     1       3.302   0.248  -5.398  1.00  0.00    -0.389 OA
HETATM   27  H   UNL     1       2.582  -0.400  -5.479  1.00  0.00     0.210 HD
ENDBRANCH  23  26
ENDBRANCH  22  23
ENDBRANCH   4  22
TORSDOF 6
