REMARK  5 active torsions:
REMARK  status: ('A' for Active; 'I' for Inactive)
REMARK    1  A    between atoms: N_5  and  C_6 
REMARK    2  A    between atoms: C_6  and  C_7 
REMARK       I    between atoms: C_7  and  N_9 
REMARK    3  A    between atoms: N_9  and  C_10 
REMARK    4  A    between atoms: C_22  and  C_23 
REMARK    5  A    between atoms: C_23  and  N_24 
ROOT
HETATM    1  C   UNL     1       7.107  -3.344  -0.490  1.00  0.00     0.255 C 
ENDROOT
BRANCH   1   2
HETATM    2  N   UNL     1       7.605  -3.454   0.881  1.00  0.00    -0.247 N 
HETATM    3  N   UNL     1       6.958  -2.754   1.875  1.00  0.00    -0.299 N 
HETATM    4  C   UNL     1       7.450  -2.790   3.081  1.00  0.00     0.029 A 
ATOM      5  HN  UNL     1       6.113  -2.220   1.672  1.00  0.00     0.187 HD
HETATM    6  C   UNL     1       6.746  -1.980   4.144  1.00  0.00     0.070 C 
HETATM    7  C   UNL     1       8.656  -3.564   3.482  1.00  0.00    -0.013 A 
HETATM    8  C   UNL     1       9.234  -4.243   2.484  1.00  0.00     0.103 A 
HETATM    9  C   UNL     1       9.133  -3.535   4.899  1.00  0.00     0.052 C 
HETATM   10  C   UNL     1       8.722  -4.240   1.098  1.00  0.00     0.282 A 
HETATM   11  O   UNL     1       9.283  -4.883   0.221  1.00  0.00    -0.265 OA
BRANCH   8  12
HETATM   12  C   UNL     1      10.497  -5.066   2.678  1.00  0.00    -0.031 C 
BRANCH  12  13
HETATM   13  N   UNL     1      11.545  -5.748   2.839  1.00  0.00    -0.365 N 
ATOM     14  HN2 UNL     1      10.714  -5.170   2.712  1.00  0.00     0.165 HD
ATOM     15  HN1 UNL     1      12.393  -6.300   2.969  1.00  0.00     0.165 HD
ENDBRANCH  12  13
ENDBRANCH   8  12
ENDBRANCH   1   2
BRANCH   1  16
HETATM   16  C   UNL     1       6.130  -4.462  -0.855  1.00  0.00     0.237 C 
HETATM   17  O   UNL     1       5.924  -4.795  -2.017  1.00  0.00    -0.272 OA
HETATM   18  N   UNL     1       5.361  -4.910   0.207  1.00  0.00    -0.354 N 
HETATM   19  H   UNL     1       5.599  -4.498   1.101  1.00  0.00     0.162 HD
BRANCH  18  20
HETATM   20  C   UNL     1       4.150  -5.723   0.081  1.00  0.00     0.092 C 
HETATM   21  C   UNL     1       3.099  -5.088  -0.874  1.00  0.00     0.009 C 
HETATM   22  C   UNL     1       1.843  -5.979  -0.946  1.00  0.00     0.011 C 
HETATM   23  C   UNL     1       2.700  -3.703  -0.335  1.00  0.00     0.011 C 
HETATM   24  C   UNL     1       1.205  -6.112   0.443  1.00  0.00    -0.013 C 
HETATM   25  C   UNL     1       2.231  -6.775   1.376  1.00  0.00     0.011 C 
HETATM   26  C   UNL     1       0.833  -4.713   0.973  1.00  0.00     0.009 C 
HETATM   27  C   UNL     1       3.496  -5.901   1.480  1.00  0.00     0.009 C 
HETATM   28  C   UNL     1       3.077  -4.522   2.038  1.00  0.00     0.011 C 
HETATM   29  C   UNL     1       2.091  -3.839   1.073  1.00  0.00    -0.013 C 
ENDBRANCH  18  20
ENDBRANCH   1  16
TORSDOF 5
