REMARK  9 active torsions:
REMARK  status: ('A' for Active; 'I' for Inactive)
REMARK    1  A    between atoms: N_2  and  C_10 
REMARK    2  A    between atoms: C_6  and  N_9 
REMARK    3  A    between atoms: C_8  and  C_10 
REMARK    4  A    between atoms: C_8  and  O_24 
REMARK    5  A    between atoms: N_9  and  C_17 
REMARK    6  A    between atoms: N_15  and  C_21 
REMARK    7  A    between atoms: C_17  and  C_19 
REMARK    8  A    between atoms: C_19  and  C_21 
REMARK    9  A    between atoms: C_19  and  O_26 
ROOT
HETATM    1  C   UNL     1       0.128  -0.796   0.050  1.00  0.00     0.117 A 
HETATM    2  N   UNL     1       1.293   1.080  -0.025  1.00  0.00    -0.324 N 
HETATM    3  C   UNL     1       0.014   0.581  -0.107  1.00  0.00     0.140 A 
HETATM    4  N   UNL     1       1.471  -1.135   0.147  1.00  0.00    -0.346 N 
ATOM      5  HN  UNL     1       1.864  -2.069   0.262  1.00  0.00     0.167 HD
HETATM    6  C   UNL     1      -1.086  -1.574   0.081  1.00  0.00     0.114 A 
HETATM    7  C   UNL     1       2.135   0.009   0.059  1.00  0.00     0.185 A 
HETATM    8  N   UNL     1      -1.121   1.286  -0.281  1.00  0.00    -0.336 N 
ATOM      9  HN  UNL     1      -1.167   2.298  -0.398  1.00  0.00     0.168 HD
HETATM   10  N   UNL     1      -2.236  -0.884  -0.115  1.00  0.00    -0.341 N 
ATOM     11  HN  UNL     1      -3.131  -1.372  -0.140  1.00  0.00     0.167 HD
HETATM   12  C   UNL     1      -2.186   0.460  -0.278  1.00  0.00     0.183 A 
ENDROOT
BRANCH   6  13
HETATM   13  N   UNL     1      -1.112  -2.964   0.310  1.00  0.00    -0.269 NA
HETATM   14  C   UNL     1      -0.560  -3.266   1.650  1.00  0.00     0.118 C 
BRANCH  13  15
HETATM   15  C   UNL     1      -2.326  -3.788   0.066  1.00  0.00     0.130 C 
BRANCH  15  16
HETATM   16  C   UNL     1      -3.337  -3.474  -1.049  1.00  0.00     0.149 C 
BRANCH  16  17
HETATM   17  C   UNL     1      -2.807  -3.346  -2.500  1.00  0.00     0.149 C 
BRANCH  17  18
HETATM   18  N   UNL     1      -3.872  -3.069  -3.489  1.00  0.00    -0.406 N 
HETATM   19  C   UNL     1      -3.510  -3.162  -4.903  1.00  0.00     0.143 C 
HETATM   20  C   UNL     1      -3.683  -1.887  -5.747  1.00  0.00     0.187 C 
HETATM   21  O   UNL     1      -4.931  -1.237  -5.518  1.00  0.00    -0.388 OA
HETATM   22  C   UNL     1      -5.131  -0.916  -4.147  1.00  0.00     0.187 C 
HETATM   23  C   UNL     1      -4.914  -2.093  -3.182  1.00  0.00     0.143 C 
ENDBRANCH  17  18
ENDBRANCH  16  17
BRANCH  16  24
HETATM   24  O   UNL     1      -4.321  -4.545  -1.034  1.00  0.00    -0.393 OA
HETATM   25  H   UNL     1      -4.702  -4.568  -1.934  1.00  0.00     0.210 HD
ENDBRANCH  16  24
ENDBRANCH  15  16
ENDBRANCH  13  15
ENDBRANCH   6  13
BRANCH   2  26
HETATM   26  C   UNL     1       1.704   2.484  -0.025  1.00  0.00     0.172 C 
BRANCH  26  27
HETATM   27  C   UNL     1       1.465   3.193   1.318  1.00  0.00     0.102 C 
HETATM   28  C   UNL     1       1.979   4.661   1.421  1.00  0.00     0.153 C 
HETATM   29  O   UNL     1       2.234   4.917   2.829  1.00  0.00    -0.383 OA
HETATM   30  C   UNL     1       1.036   5.746   0.928  1.00  0.00     0.042 C 
HETATM   31  C   UNL     1       2.091   3.674   3.528  1.00  0.00     0.171 C 
HETATM   32  C   UNL     1       2.271   2.605   2.482  1.00  0.00     0.068 C 
BRANCH  27  33
HETATM   33  O   UNL     1       0.082   3.142   1.682  1.00  0.00    -0.385 OA
HETATM   34  H   UNL     1      -0.464   3.158   0.872  1.00  0.00     0.210 HD
ENDBRANCH  27  33
ENDBRANCH  26  27
ENDBRANCH   2  26
TORSDOF 9
