REMARK  3 active torsions:
REMARK  status: ('A' for Active; 'I' for Inactive)
REMARK    1  A    between atoms: O_2  and  C_3 
REMARK    2  A    between atoms: C_6  and  N_7 
REMARK       I    between atoms: N_7  and  C_8 
REMARK       I    between atoms: C_8  and  N_10 
REMARK    3  A    between atoms: N_10  and  C_11 
ROOT
HETATM    1  N   UNL     1       5.398   3.983   2.705  1.00  0.00    -0.308 N 
HETATM    2  C   UNL     1       6.634   3.762   3.269  1.00  0.00     0.321 C 
HETATM    3  O   UNL     1       7.359   2.801   3.048  1.00  0.00    -0.247 OA
HETATM    4  N   UNL     1       6.972   4.738   4.186  1.00  0.00    -0.338 N 
HETATM    5  H   UNL     1       5.000   4.902   2.816  1.00  0.00     0.170 HD
HETATM    6  H   UNL     1       6.660   5.673   3.975  1.00  0.00     0.164 HD
ENDROOT
BRANCH   1   7
HETATM    7  C   UNL     1       4.686   3.052   1.917  1.00  0.00     0.051 A 
HETATM    8  C   UNL     1       5.001   1.696   1.859  1.00  0.00     0.035 A 
HETATM    9  C   UNL     1       4.231   0.834   1.080  1.00  0.00     0.058 A 
HETATM   10  C   UNL     1       3.160   1.358   0.381  1.00  0.00     0.141 A 
HETATM   11  N   UNL     1       2.815   2.664   0.409  1.00  0.00    -0.345 N 
HETATM   12  C   UNL     1       3.581   3.473   1.181  1.00  0.00     0.119 A 
ATOM     13  HN  UNL     1       2.021   3.022  -0.122  1.00  0.00     0.167 HD
BRANCH  10  14
HETATM   14  O   UNL     1       2.415   0.455  -0.349  1.00  0.00    -0.341 OA
HETATM   15  C   UNL     1       1.341   1.063  -1.057  1.00  0.00     0.211 C 
ENDBRANCH  10  14
ENDBRANCH   1   7
BRANCH   4  16
HETATM   16  C   UNL     1       8.229   4.612   4.905  1.00  0.00     0.086 C 
HETATM   17  C   UNL     1       8.310   3.334   5.757  1.00  0.00     0.025 C 
HETATM   18  C   UNL     1       9.034   3.710   7.046  1.00  0.00     0.002 C 
HETATM   19  C   UNL     1       9.470   5.157   6.872  1.00  0.00     0.002 C 
HETATM   20  C   UNL     1       8.453   5.741   5.905  1.00  0.00     0.025 C 
ENDBRANCH   4  16
TORSDOF 3
