REMARK  8 active torsions:
REMARK  status: ('A' for Active; 'I' for Inactive)
REMARK    1  A    between atoms: C_2  and  C_3 
REMARK    2  A    between atoms: C_2  and  N_11 
REMARK    3  A    between atoms: C_3  and  N_4 
REMARK    4  A    between atoms: N_11  and  C_12 
REMARK    5  A    between atoms: C_12  and  C_13 
REMARK    6  A    between atoms: C_13  and  O_14 
REMARK    7  A    between atoms: C_13  and  C_15 
REMARK    8  A    between atoms: C_15  and  N_16 
ROOT
HETATM    1  N   UNL     1       2.873  -1.058   0.988  1.00  0.00     0.091 N 
HETATM    2  H   UNL     1       2.548  -1.954   0.620  1.00  0.00     0.316 HD
ENDROOT
BRANCH   1   3
HETATM    3  C   UNL     1       2.342   0.090   0.236  1.00  0.00     0.236 C 
HETATM    4  C   UNL     1       2.793   0.059  -1.232  1.00  0.00     0.044 C 
BRANCH   3   5
HETATM    5  C   UNL     1       0.799   0.111   0.272  1.00  0.00     0.183 C 
BRANCH   5   6
HETATM    6  N   UNL     1       0.248   0.294   1.600  1.00  0.00    -0.301 N 
HETATM    7  C   UNL     1      -0.100  -0.692   2.480  1.00  0.00     0.118 A 
HETATM    8  C   UNL     1      -0.617  -0.063   3.590  1.00  0.00    -0.028 A 
HETATM    9  C   UNL     1      -1.110  -0.673   4.842  1.00  0.00     0.051 C 
HETATM   10  C   UNL     1      -0.567   1.311   3.255  1.00  0.00     0.115 A 
HETATM   11  N   UNL     1      -0.055   1.531   2.039  1.00  0.00    -0.310 N 
ATOM     12  HN  UNL     1       0.075   2.422   1.559  1.00  0.00     0.186 HD
ENDBRANCH   5   6
ENDBRANCH   3   5
ENDBRANCH   1   3
BRANCH   1  13
HETATM   13  C   UNL     1       4.330  -1.077   1.115  1.00  0.00     0.303 C 
BRANCH  13  14
HETATM   14  C   UNL     1       4.811  -2.374   1.810  1.00  0.00     0.174 C 
BRANCH  14  15
HETATM   15  O   UNL     1       4.290  -3.488   1.061  1.00  0.00    -0.392 OA
HETATM   16  H   UNL     1       4.589  -3.390   0.142  1.00  0.00     0.210 HD
ENDBRANCH  14  15
BRANCH  14  17
HETATM   17  C   UNL     1       6.362  -2.368   1.824  1.00  0.00     0.305 C 
BRANCH  17  18
HETATM   18  N   UNL     1       7.054  -3.450   2.555  1.00  0.00     0.095 N 
HETATM   19  C   UNL     1       8.525  -3.263   2.477  1.00  0.00     0.298 C 
HETATM   20  C   UNL     1       9.118  -3.570   1.087  1.00  0.00     0.198 C 
HETATM   21  O   UNL     1       8.763  -4.881   0.629  1.00  0.00    -0.388 OA
HETATM   22  C   UNL     1       7.342  -5.075   0.650  1.00  0.00     0.198 C 
HETATM   23  C   UNL     1       6.765  -4.810   2.050  1.00  0.00     0.298 C 
ENDBRANCH  17  18
ENDBRANCH  14  17
ENDBRANCH  13  14
ENDBRANCH   1  13
TORSDOF 8
