REMARK  3 active torsions:
REMARK  status: ('A' for Active; 'I' for Inactive)
REMARK       I    between atoms: N_7  and  C_8 
REMARK       I    between atoms: C_8  and  N_10 
REMARK    1  A    between atoms: N_10  and  C_11 
REMARK    2  A    between atoms: C_11  and  C_12 
REMARK    3  A    between atoms: C_12  and  C_13 
ROOT
HETATM    1  C   UNL     1       1.044   0.131   0.166  1.00  0.00     0.034 C 
HETATM    2  C   UNL     1       2.550  -0.045  -0.055  1.00  0.00     0.108 C 
HETATM    3  C   UNL     1       3.052   0.855  -1.206  1.00  0.00     0.192 C 
HETATM    4  O   UNL     1       2.537   0.425  -2.477  1.00  0.00    -0.388 OA
HETATM    5  C   UNL     1       2.961  -0.918  -2.764  1.00  0.00     0.187 C 
HETATM    6  C   UNL     1       2.461  -1.894  -1.696  1.00  0.00     0.154 C 
HETATM    7  N   UNL     1       2.876  -1.458  -0.357  1.00  0.00    -0.326 N 
HETATM    8  C   UNL     1       3.772  -2.251   0.334  1.00  0.00     0.318 C 
HETATM    9  O   UNL     1       4.254  -3.279  -0.135  1.00  0.00    -0.247 OA
HETATM   10  N   UNL     1       4.099  -1.817   1.589  1.00  0.00    -0.343 N 
HETATM   11  H   UNL     1       3.414  -1.255   2.067  1.00  0.00     0.164 HD
ENDROOT
BRANCH  10  12
HETATM   12  C   UNL     1       5.011  -2.579   2.429  1.00  0.00     0.129 C 
BRANCH  12  13
HETATM   13  C   UNL     1       6.489  -2.310   2.118  1.00  0.00     0.061 C 
BRANCH  13  14
HETATM   14  C   UNL     1       6.894  -0.911   2.443  1.00  0.00    -0.023 A 
HETATM   15  C   UNL     1       6.886   0.208   1.578  1.00  0.00     0.115 A 
HETATM   16  N   UNL     1       7.286   1.328   2.185  1.00  0.00    -0.310 N 
HETATM   17  N   UNL     1       7.578   0.925   3.434  1.00  0.00    -0.308 N 
ATOM     18  HN  UNL     1       7.354   2.267   1.794  1.00  0.00     0.186 HD
HETATM   19  C   UNL     1       8.071   1.870   4.406  1.00  0.00     0.177 C 
HETATM   20  C   UNL     1       7.354  -0.406   3.640  1.00  0.00     0.118 A 
ENDBRANCH  13  14
ENDBRANCH  12  13
ENDBRANCH  10  12
TORSDOF 3
