REMARK  7 active torsions:
REMARK  status: ('A' for Active; 'I' for Inactive)
REMARK    1  A    between atoms: O_2  and  C_3 
REMARK    2  A    between atoms: C_3  and  C_4 
REMARK    3  A    between atoms: C_4  and  N_5 
REMARK    4  A    between atoms: C_8  and  C_9 
REMARK    5  A    between atoms: C_9  and  N_10 
REMARK       I    between atoms: N_10  and  C_11 
REMARK    6  A    between atoms: C_11  and  C_13 
REMARK    7  A    between atoms: C_13  and  N_14 
ROOT
HETATM    1  N   UNL     1       3.427  -5.006  -4.783  1.00  0.00    -0.359 N 
HETATM    2  C   UNL     1       2.938  -6.286  -4.617  1.00  0.00     0.237 C 
HETATM    3  O   UNL     1       3.332  -7.051  -3.740  1.00  0.00    -0.272 OA
HETATM    4  H   UNL     1       2.904  -4.374  -5.381  1.00  0.00     0.162 HD
ENDROOT
BRANCH   1   5
HETATM    5  C   UNL     1       4.421  -4.441  -3.897  1.00  0.00     0.127 C 
BRANCH   5   6
HETATM    6  C   UNL     1       3.811  -3.804  -2.633  1.00  0.00     0.007 C 
HETATM    7  C   UNL     1       2.924  -2.583  -2.939  1.00  0.00     0.036 C 
HETATM    8  C   UNL     1       3.728  -1.336  -3.332  1.00  0.00     0.273 C 
HETATM    9  N   UNL     1       4.822  -0.997  -2.407  1.00  0.00     0.090 N 
HETATM   10  C   UNL     1       5.684  -2.161  -2.174  1.00  0.00     0.273 C 
HETATM   11  C   UNL     1       4.924  -3.386  -1.661  1.00  0.00     0.036 C 
BRANCH   9  12
HETATM   12  C   UNL     1       4.333  -0.349  -1.171  1.00  0.00     0.298 C 
BRANCH  12  13
HETATM   13  C   UNL     1       5.469   0.107  -0.237  1.00  0.00     0.197 C 
BRANCH  13  14
HETATM   14  O   UNL     1       4.959   0.811   0.898  1.00  0.00    -0.394 OA
HETATM   15  C   UNL     1       6.021   1.126   1.797  1.00  0.00     0.201 C 
ENDBRANCH  13  14
ENDBRANCH  12  13
ENDBRANCH   9  12
ENDBRANCH   5   6
ENDBRANCH   1   5
BRANCH   2  16
HETATM   16  C   UNL     1       1.884  -6.687  -5.621  1.00  0.00     0.250 C 
BRANCH  16  17
HETATM   17  N   UNL     1       0.564  -6.358  -5.129  1.00  0.00    -0.294 N 
HETATM   18  C   UNL     1      -0.258  -7.163  -4.399  1.00  0.00     0.118 A 
HETATM   19  C   UNL     1      -1.406  -6.437  -4.166  1.00  0.00    -0.028 A 
HETATM   20  C   UNL     1      -2.605  -6.844  -3.403  1.00  0.00     0.051 C 
HETATM   21  C   UNL     1      -1.174  -5.205  -4.822  1.00  0.00     0.115 A 
HETATM   22  N   UNL     1       0.025  -5.156  -5.415  1.00  0.00    -0.309 N 
ATOM     23  HN  UNL     1       0.433  -4.392  -5.954  1.00  0.00     0.186 HD
ENDBRANCH  16  17
ENDBRANCH   2  16
TORSDOF 7
