REMARK  5 active torsions:
REMARK  status: ('A' for Active; 'I' for Inactive)
REMARK    1  A    between atoms: C_2  and  C_3 
REMARK    2  A    between atoms: C_6  and  C_7 
REMARK    3  A    between atoms: C_7  and  C_8 
REMARK    4  A    between atoms: C_8  and  N_9 
REMARK       I    between atoms: N_9  and  C_10 
REMARK    5  A    between atoms: C_10  and  C_12 
ROOT
HETATM    1  C   UNL     1       1.772  -5.103  -0.389  1.00  0.00     0.129 C 
ENDROOT
BRANCH   1   2
HETATM    2  C   UNL     1       2.666  -4.952   0.848  1.00  0.00     0.084 C 
BRANCH   2   3
HETATM    3  C   UNL     1       2.852  -3.505   1.202  1.00  0.00     0.053 A 
HETATM    4  N   UNL     1       2.024  -2.812   1.955  1.00  0.00    -0.356 N 
HETATM    5  C   UNL     1       2.467  -1.503   2.082  1.00  0.00     0.022 A 
ATOM      6  HN  UNL     1       1.177  -3.184   2.384  1.00  0.00     0.166 HD
HETATM    7  C   UNL     1       3.640  -1.218   1.405  1.00  0.00     0.003 A 
HETATM    8  S   UNL     1       4.207  -2.630   0.612  1.00  0.00    -0.080 SA
HETATM    9  C   UNL     1       4.388   0.066   1.302  1.00  0.00     0.058 C 
BRANCH   5  10
HETATM   10  C   UNL     1       1.646  -0.557   2.903  1.00  0.00     0.054 C 
HETATM   11  C   UNL     1       2.051  -0.556   4.368  1.00  0.00     0.011 C 
ENDBRANCH   5  10
ENDBRANCH   2   3
ENDBRANCH   1   2
BRANCH   1  12
HETATM   12  N   UNL     1       1.649  -6.482  -0.848  1.00  0.00    -0.360 N 
HETATM   13  C   UNL     1       2.604  -7.020  -1.674  1.00  0.00     0.222 C 
HETATM   14  O   UNL     1       3.641  -6.412  -1.938  1.00  0.00    -0.273 OA
HETATM   15  H   UNL     1       0.799  -6.991  -0.660  1.00  0.00     0.162 HD
BRANCH  13  16
HETATM   16  C   UNL     1       2.410  -8.348  -2.307  1.00  0.00     0.086 A 
HETATM   17  C   UNL     1       1.218  -8.714  -3.159  1.00  0.00     0.004 A 
HETATM   18  C   UNL     1      -0.212  -8.284  -2.984  1.00  0.00     0.006 C 
HETATM   19  C   UNL     1       1.577  -9.552  -1.949  1.00  0.00     0.004 A 
HETATM   20  C   UNL     1      -0.793  -9.375  -2.082  1.00  0.00     0.001 C 
HETATM   21  C   UNL     1       0.345  -9.663  -1.102  1.00  0.00     0.006 C 
ENDBRANCH  13  16
ENDBRANCH   1  12
TORSDOF 5
