REMARK  4 active torsions:
REMARK  status: ('A' for Active; 'I' for Inactive)
REMARK    1  A    between atoms: N_6  and  C_7 
REMARK    2  A    between atoms: C_7  and  C_8 
REMARK       I    between atoms: C_8  and  N_10 
REMARK    3  A    between atoms: N_10  and  C_11 
REMARK    4  A    between atoms: C_11  and  C_12 
ROOT
HETATM    1  C   UNL     1       5.033  -3.070  -0.074  1.00  0.00     0.237 C 
HETATM    2  O   UNL     1       3.842  -3.376  -0.075  1.00  0.00    -0.272 OA
HETATM    3  N   UNL     1       6.045  -4.013  -0.030  1.00  0.00    -0.359 N 
HETATM    4  H   UNL     1       6.985  -3.697  -0.268  1.00  0.00     0.162 HD
ENDROOT
BRANCH   1   5
HETATM    5  C   UNL     1       5.483  -1.632  -0.044  1.00  0.00     0.251 C 
BRANCH   5   6
HETATM    6  N   UNL     1       6.222  -1.269  -1.238  1.00  0.00    -0.288 N 
HETATM    7  C   UNL     1       5.744  -0.697  -2.391  1.00  0.00     0.027 A 
HETATM    8  C   UNL     1       6.858  -0.440  -3.162  1.00  0.00     0.052 A 
HETATM    9  C   UNL     1       4.309  -0.440  -2.661  1.00  0.00     0.070 C 
HETATM   10  C   UNL     1       7.958  -0.894  -2.404  1.00  0.00     0.024 A 
HETATM   11  C   UNL     1       9.395  -0.823  -2.750  1.00  0.00     0.070 C 
HETATM   12  N   UNL     1       7.564  -1.431  -1.241  1.00  0.00    -0.303 N 
ATOM     13  HN  UNL     1       8.144  -1.863  -0.522  1.00  0.00     0.186 HD
ENDBRANCH   5   6
ENDBRANCH   1   5
BRANCH   3  14
HETATM   14  C   UNL     1       5.719  -5.424  -0.082  1.00  0.00     0.129 C 
BRANCH  14  15
HETATM   15  C   UNL     1       6.938  -6.333  -0.137  1.00  0.00     0.029 C 
HETATM   16  C   UNL     1       7.777  -6.184  -1.393  1.00  0.00     0.034 C 
HETATM   17  C   UNL     1       8.331  -7.577  -1.640  1.00  0.00     0.168 C 
HETATM   18  O   UNL     1       7.679  -8.476  -0.736  1.00  0.00    -0.391 OA
HETATM   19  C   UNL     1       6.546  -7.798  -0.189  1.00  0.00     0.173 C 
ENDBRANCH  14  15
ENDBRANCH   3  14
TORSDOF 4
