REMARK  6 active torsions:
REMARK  status: ('A' for Active; 'I' for Inactive)
REMARK    1  A    between atoms: C_6  and  O_8 
REMARK    2  A    between atoms: O_8  and  C_9 
REMARK    3  A    between atoms: C_9  and  C_10 
REMARK       I    between atoms: C_10  and  N_12 
REMARK    4  A    between atoms: N_12  and  C_13 
REMARK    5  A    between atoms: C_13  and  C_14 
REMARK    6  A    between atoms: C_14  and  N_15 
ROOT
HETATM    1  C   UNL     1       3.023  -4.824  -3.843  1.00  0.00     0.241 C 
HETATM    2  O   UNL     1       3.599  -5.153  -4.878  1.00  0.00    -0.271 OA
HETATM    3  N   UNL     1       2.697  -5.730  -2.857  1.00  0.00    -0.358 N 
HETATM    4  H   UNL     1       2.200  -5.398  -2.038  1.00  0.00     0.162 HD
ENDROOT
BRANCH   3   5
HETATM    5  C   UNL     1       3.026  -7.135  -2.999  1.00  0.00     0.143 C 
BRANCH   5   6
HETATM    6  C   UNL     1       4.534  -7.393  -2.979  1.00  0.00     0.151 C 
BRANCH   6   7
HETATM    7  N   UNL     1       4.842  -8.792  -3.163  1.00  0.00    -0.329 N 
HETATM    8  C   UNL     1       5.025  -9.705  -2.173  1.00  0.00     0.201 A 
HETATM    9  N   UNL     1       5.272 -10.880  -2.699  1.00  0.00    -0.295 N 
HETATM   10  N   UNL     1       5.266 -10.730  -4.071  1.00  0.00    -0.288 N 
ATOM     11  HN  UNL     1       5.438 -11.747  -2.188  1.00  0.00     0.187 HD
HETATM   12  C   UNL     1       5.013  -9.466  -4.347  1.00  0.00     0.095 A 
ATOM     13  HN  UNL     1       5.429 -11.470  -4.754  1.00  0.00     0.188 HD
HETATM   14  C   UNL     1       4.919  -8.855  -5.692  1.00  0.00     0.091 C 
ENDBRANCH   6   7
ENDBRANCH   5   6
ENDBRANCH   3   5
BRANCH   1  15
HETATM   15  C   UNL     1       2.578  -3.393  -3.571  1.00  0.00     0.270 C 
BRANCH  15  16
HETATM   16  O   UNL     1       3.063  -2.894  -2.327  1.00  0.00    -0.377 OA
BRANCH  16  17
HETATM   17  C   UNL     1       2.631  -1.551  -2.050  1.00  0.00     0.122 C 
HETATM   18  C   UNL     1       3.153  -0.549  -3.091  1.00  0.00     0.032 C 
HETATM   19  C   UNL     1       2.834   0.895  -2.728  1.00  0.00     0.003 C 
HETATM   20  C   UNL     1       3.327   1.250  -1.331  1.00  0.00     0.004 C 
HETATM   21  C   UNL     1       2.822   0.275  -0.258  1.00  0.00    -0.016 C 
HETATM   22  C   UNL     1       1.328   0.468   0.019  1.00  0.00     0.010 C 
HETATM   23  C   UNL     1       3.144  -1.175  -0.652  1.00  0.00     0.036 C 
ENDBRANCH  16  17
ENDBRANCH  15  16
ENDBRANCH   1  15
TORSDOF 6
