REMARK  4 active torsions:
REMARK  status: ('A' for Active; 'I' for Inactive)
REMARK    1  A    between atoms: O_1  and  C_2 
REMARK    2  A    between atoms: C_2  and  C_3 
REMARK    3  A    between atoms: C_3  and  N_4 
REMARK    4  A    between atoms: N_11  and  C_12 
ROOT
HETATM    1  N   UNL     1       4.513   0.295   1.475  1.00  0.00    -0.262 N 
HETATM    2  C   UNL     1       5.160  -0.914   1.697  1.00  0.00     0.273 C 
HETATM    3  O   UNL     1       4.568  -1.957   1.975  1.00  0.00    -0.266 OA
HETATM    4  C   UNL     1       6.636  -0.896   1.599  1.00  0.00     0.128 C 
HETATM    5  C   UNL     1       7.370  -2.108   1.664  1.00  0.00     0.106 C 
HETATM    6  N   UNL     1       8.028  -3.064   1.705  1.00  0.00    -0.191 NA
HETATM    7  C   UNL     1       7.249   0.285   1.465  1.00  0.00     0.124 C 
HETATM    8  N   UNL     1       6.559   1.473   1.406  1.00  0.00    -0.303 N 
HETATM    9  C   UNL     1       5.159   1.526   1.357  1.00  0.00     0.332 C 
HETATM   10  O   UNL     1       4.543   2.582   1.212  1.00  0.00    -0.246 OA
ENDROOT
BRANCH   1  11
HETATM   11  C   UNL     1       3.050   0.275   1.367  1.00  0.00     0.175 C 
BRANCH  11  12
HETATM   12  C   UNL     1       2.547  -0.067  -0.067  1.00  0.00     0.074 C 
HETATM   13  C   UNL     1       1.005  -0.137  -0.072  1.00  0.00     0.039 C 
HETATM   14  C   UNL     1       0.426  -0.362  -1.471  1.00  0.00     0.003 C 
HETATM   15  C   UNL     1       0.933   0.679  -2.463  1.00  0.00     0.000 C 
HETATM   16  C   UNL     1       2.455   0.710  -2.499  1.00  0.00     0.003 C 
HETATM   17  C   UNL     1       3.038   0.956  -1.107  1.00  0.00     0.039 C 
BRANCH  12  18
HETATM   18  O   UNL     1       3.050  -1.352  -0.464  1.00  0.00    -0.388 OA
HETATM   19  H   UNL     1       2.819  -2.003   0.226  1.00  0.00     0.210 HD
ENDBRANCH  12  18
ENDBRANCH  11  12
ENDBRANCH   1  11
BRANCH   8  20
HETATM   20  C   UNL     1       7.326   2.692   1.272  1.00  0.00     0.094 A 
HETATM   21  C   UNL     1       8.398   3.089   2.261  1.00  0.00     0.028 A 
HETATM   22  C   UNL     1       7.114   3.856   2.211  1.00  0.00     0.028 A 
ENDBRANCH   8  20
TORSDOF 4
