REMARK  7 active torsions:
REMARK  status: ('A' for Active; 'I' for Inactive)
REMARK       I    between atoms: N_1  and  C_2 
REMARK    1  A    between atoms: C_2  and  C_4 
REMARK    2  A    between atoms: N_9  and  C_10 
REMARK    3  A    between atoms: C_10  and  C_11 
REMARK       I    between atoms: C_11  and  N_13 
REMARK    4  A    between atoms: N_13  and  C_14 
REMARK    5  A    between atoms: C_14  and  C_15 
REMARK    6  A    between atoms: C_15  and  C_16 
REMARK    7  A    between atoms: C_16  and  C_17 
ROOT
HETATM    1  C   UNL     1       6.048  -2.879   4.012  1.00  0.00     0.255 C 
ENDROOT
BRANCH   1   2
HETATM    2  N   UNL     1       6.795  -3.241   5.205  1.00  0.00    -0.248 N 
HETATM    3  C   UNL     1       6.170  -4.004   6.183  1.00  0.00     0.262 C 
HETATM    4  C   UNL     1       6.973  -4.307   7.386  1.00  0.00     0.078 C 
HETATM    5  O   UNL     1       5.022  -4.438   6.095  1.00  0.00    -0.267 OA
HETATM    6  C   UNL     1       8.190  -3.783   7.543  1.00  0.00     0.042 C 
HETATM    7  C   UNL     1       8.673  -2.896   6.469  1.00  0.00     0.116 C 
HETATM    8  N   UNL     1       8.030  -2.639   5.370  1.00  0.00    -0.290 N 
ATOM      9  HN  UNL     1       8.419  -2.020   4.659  1.00  0.00     0.187 HD
BRANCH   7  10
HETATM   10  C   UNL     1      10.034  -2.227   6.683  1.00  0.00     0.267 C 
HETATM   11  N   UNL     1      10.449  -1.436   5.649  1.00  0.00    -0.365 N 
HETATM   12  H   UNL     1      11.350  -0.983   5.694  1.00  0.00     0.159 HD
HETATM   13  H   UNL     1       9.885  -1.368   4.809  1.00  0.00     0.159 HD
HETATM   14  O   UNL     1      10.675  -2.397   7.706  1.00  0.00    -0.266 OA
ENDBRANCH   7  10
ENDBRANCH   1   2
BRANCH   1  15
HETATM   15  C   UNL     1       5.869  -4.085   3.091  1.00  0.00     0.237 C 
HETATM   16  O   UNL     1       6.739  -4.462   2.310  1.00  0.00    -0.272 OA
HETATM   17  N   UNL     1       4.656  -4.730   3.245  1.00  0.00    -0.360 N 
HETATM   18  H   UNL     1       4.193  -4.612   4.146  1.00  0.00     0.162 HD
BRANCH  17  19
HETATM   19  C   UNL     1       4.316  -5.903   2.468  1.00  0.00     0.122 C 
BRANCH  19  20
HETATM   20  C   UNL     1       4.807  -7.186   3.133  1.00  0.00     0.020 C 
BRANCH  20  21
HETATM   21  C   UNL     1       4.469  -8.411   2.279  1.00  0.00     0.006 C 
BRANCH  21  22
HETATM   22  C   UNL     1       4.951  -9.748   2.885  1.00  0.00    -0.014 C 
HETATM   23  C   UNL     1       4.629 -10.924   1.942  1.00  0.00     0.004 C 
HETATM   24  C   UNL     1       3.139 -11.267   1.902  1.00  0.00     0.000 C 
HETATM   25  C   UNL     1       2.571 -11.500   3.299  1.00  0.00     0.000 C 
HETATM   26  C   UNL     1       2.879 -10.343   4.245  1.00  0.00     0.000 C 
HETATM   27  C   UNL     1       4.376 -10.042   4.281  1.00  0.00     0.004 C 
ENDBRANCH  21  22
ENDBRANCH  20  21
ENDBRANCH  19  20
ENDBRANCH  17  19
ENDBRANCH   1  15
TORSDOF 7
