REMARK  4 active torsions:
REMARK  status: ('A' for Active; 'I' for Inactive)
REMARK    1  A    between atoms: O_2  and  C_3 
REMARK    2  A    between atoms: C_6  and  N_7 
REMARK       I    between atoms: N_7  and  C_8 
REMARK       I    between atoms: C_8  and  N_10 
REMARK    3  A    between atoms: N_10  and  C_11 
REMARK    4  A    between atoms: C_11  and  C_12 
REMARK       I    between atoms: C_12  and  N_14 
ROOT
HETATM    1  N   UNL     1       5.391   3.938   2.861  1.00  0.00    -0.308 N 
HETATM    2  C   UNL     1       6.531   3.726   3.600  1.00  0.00     0.321 C 
HETATM    3  O   UNL     1       7.009   2.634   3.891  1.00  0.00    -0.247 OA
HETATM    4  N   UNL     1       7.120   4.881   4.050  1.00  0.00    -0.334 N 
HETATM    5  H   UNL     1       5.106   4.897   2.732  1.00  0.00     0.170 HD
HETATM    6  H   UNL     1       6.929   5.782   3.632  1.00  0.00     0.164 HD
ENDROOT
BRANCH   1   7
HETATM    7  C   UNL     1       4.537   2.925   2.352  1.00  0.00     0.051 A 
HETATM    8  C   UNL     1       4.773   1.560   2.505  1.00  0.00     0.035 A 
HETATM    9  C   UNL     1       3.854   0.628   2.028  1.00  0.00     0.058 A 
HETATM   10  C   UNL     1       2.717   1.089   1.395  1.00  0.00     0.141 A 
HETATM   11  N   UNL     1       2.455   2.396   1.190  1.00  0.00    -0.345 N 
HETATM   12  C   UNL     1       3.370   3.278   1.673  1.00  0.00     0.119 A 
ATOM     13  HN  UNL     1       1.616   2.706   0.699  1.00  0.00     0.167 HD
BRANCH  10  14
HETATM   14  O   UNL     1       1.821   0.118   0.989  1.00  0.00    -0.341 OA
HETATM   15  C   UNL     1       0.659   0.650   0.367  1.00  0.00     0.211 C 
ENDBRANCH  10  14
ENDBRANCH   1   7
BRANCH   4  16
HETATM   16  C   UNL     1       8.350   4.739   4.811  1.00  0.00     0.227 C 
BRANCH  16  17
HETATM   17  C   UNL     1       9.001   6.054   5.233  1.00  0.00     0.237 C 
HETATM   18  O   UNL     1       8.500   7.133   4.906  1.00  0.00    -0.272 OA
HETATM   19  N   UNL     1      10.184   5.954   5.965  1.00  0.00    -0.351 N 
HETATM   20  C   UNL     1      10.867   7.167   6.406  1.00  0.00     0.126 C 
HETATM   21  C   UNL     1      10.785   4.701   6.434  1.00  0.00     0.126 C 
HETATM   22  C   UNL     1      12.343   7.134   6.011  1.00  0.00     0.020 C 
HETATM   23  C   UNL     1      13.025   5.853   6.489  1.00  0.00     0.003 C 
HETATM   24  C   UNL     1      12.254   4.619   6.025  1.00  0.00     0.020 C 
ENDBRANCH  16  17
ENDBRANCH   4  16
TORSDOF 4
