REMARK  4 active torsions:
REMARK  status: ('A' for Active; 'I' for Inactive)
REMARK    1  A    between atoms: C_5  and  C_6 
REMARK    2  A    between atoms: C_6  and  C_7 
REMARK    3  A    between atoms: C_7  and  N_8 
REMARK       I    between atoms: N_8  and  C_9 
REMARK       I    between atoms: C_9  and  N_11 
REMARK    4  A    between atoms: N_11  and  C_12 
ROOT
HETATM    1  N   UNL     1       8.706  -1.160  -1.363  1.00  0.00    -0.343 N 
HETATM    2  C   UNL     1       9.363  -2.348  -1.123  1.00  0.00     0.316 C 
HETATM    3  O   UNL     1       8.810  -3.356  -0.702  1.00  0.00    -0.247 OA
HETATM    4  N   UNL     1      10.708  -2.301  -1.391  1.00  0.00    -0.337 N 
HETATM    5  H   UNL     1       9.266  -0.327  -1.260  1.00  0.00     0.164 HD
HETATM    6  H   UNL     1      11.022  -1.555  -1.995  1.00  0.00     0.164 HD
ENDROOT
BRANCH   1   7
HETATM    7  C   UNL     1       7.316  -1.103  -0.929  1.00  0.00     0.129 C 
BRANCH   7   8
HETATM    8  C   UNL     1       6.559   0.171  -1.310  1.00  0.00     0.060 C 
BRANCH   8   9
HETATM    9  C   UNL     1       5.132   0.077  -0.825  1.00  0.00    -0.041 A 
HETATM   10  C   UNL     1       4.133  -0.497  -1.614  1.00  0.00     0.010 A 
HETATM   11  C   UNL     1       2.858  -0.692  -1.086  1.00  0.00     0.025 A 
HETATM   12  C   UNL     1       2.604  -0.305   0.225  1.00  0.00     0.005 A 
HETATM   13  C   UNL     1       1.273  -0.574   0.863  1.00  0.00     0.068 C 
HETATM   14  N   UNL     1       3.547   0.276   1.002  1.00  0.00    -0.369 N 
HETATM   15  C   UNL     1       4.779   0.451   0.467  1.00  0.00     0.095 A 
ATOM     16  HN  UNL     1       3.338   0.571   1.956  1.00  0.00     0.165 HD
ENDBRANCH   8   9
ENDBRANCH   7   8
ENDBRANCH   1   7
BRANCH   4  17
HETATM   17  C   UNL     1      11.505  -3.544  -1.250  1.00  0.00     0.103 C 
HETATM   18  C   UNL     1      11.778  -3.975   0.222  1.00  0.00     0.041 C 
HETATM   19  C   UNL     1      11.638  -5.133   1.198  1.00  0.00     0.035 C 
HETATM   20  C   UNL     1      13.099  -4.564  -0.376  1.00  0.00     0.137 C 
HETATM   21  C   UNL     1      13.062  -5.190   1.824  1.00  0.00     0.168 C 
HETATM   22  O   UNL     1      13.955  -4.790   0.751  1.00  0.00    -0.385 OA
HETATM   23  C   UNL     1      13.094  -3.378  -1.364  1.00  0.00    -0.000 C 
HETATM   24  C   UNL     1      13.577  -3.741  -2.771  1.00  0.00     0.019 C 
HETATM   25  C   UNL     1      13.786  -2.117  -0.849  1.00  0.00     0.019 C 
ENDBRANCH   4  17
TORSDOF 4
