REMARK  5 active torsions:
REMARK  status: ('A' for Active; 'I' for Inactive)
REMARK    1  A    between atoms: C_3  and  N_4 
REMARK    2  A    between atoms: N_4  and  C_5 
REMARK    3  A    between atoms: C_5  and  C_6 
REMARK    4  A    between atoms: C_11  and  C_12 
REMARK    5  A    between atoms: C_12  and  N_13 
ROOT
HETATM    1  C   UNL     1       1.034   0.219   0.023  1.00  0.00     0.162 C 
HETATM    2  N   UNL     1       2.487   0.119   0.010  1.00  0.00    -0.293 N 
HETATM    3  C   UNL     1       3.147  -1.107   0.061  1.00  0.00     0.111 A 
HETATM    4  C   UNL     1       4.499  -1.091   0.057  1.00  0.00     0.133 A 
HETATM    5  C   UNL     1       5.273   0.161   0.027  1.00  0.00     0.274 A 
HETATM    6  O   UNL     1       6.500   0.133   0.015  1.00  0.00    -0.266 OA
HETATM    7  N   UNL     1       4.532   1.322   0.033  1.00  0.00    -0.269 N 
HETATM    8  C   UNL     1       5.231   2.595   0.031  1.00  0.00     0.164 C 
HETATM    9  C   UNL     1       3.148   1.356   0.020  1.00  0.00     0.332 A 
HETATM   10  O   UNL     1       2.531   2.424   0.021  1.00  0.00    -0.246 OA
ENDROOT
BRANCH   3  11
HETATM   11  N   UNL     1       2.452  -2.334   0.088  1.00  0.00    -0.275 NA
HETATM   12  H   UNL     1       1.610  -2.301  -0.487  1.00  0.00     0.129 HD
BRANCH  11  13
HETATM   13  C   UNL     1       2.099  -2.960   1.382  1.00  0.00     0.126 C 
BRANCH  13  14
HETATM   14  C   UNL     1       1.407  -4.330   1.269  1.00  0.00     0.134 C 
HETATM   15  C   UNL     1       2.141  -5.422   0.510  1.00  0.00     0.035 C 
HETATM   16  C   UNL     1       1.032  -6.369   0.079  1.00  0.00     0.029 C 
HETATM   17  C   UNL     1      -0.255  -5.637   0.420  1.00  0.00     0.168 C 
HETATM   18  O   UNL     1       0.117  -4.263   0.633  1.00  0.00    -0.385 OA
ENDBRANCH  13  14
ENDBRANCH  11  13
ENDBRANCH   3  11
BRANCH   4  19
HETATM   19  C   UNL     1       5.311  -2.376   0.062  1.00  0.00    -0.028 C 
BRANCH  19  20
HETATM   20  N   UNL     1       5.984  -3.442   0.066  1.00  0.00    -0.365 N 
ATOM     21  HN2 UNL     1       5.422  -2.591   0.057  1.00  0.00     0.165 HD
ATOM     22  HN1 UNL     1       6.529  -4.304   0.069  1.00  0.00     0.165 HD
ENDBRANCH  19  20
ENDBRANCH   4  19
TORSDOF 5
