REMARK  5 active torsions:
REMARK  status: ('A' for Active; 'I' for Inactive)
REMARK    1  A    between atoms: C_2  and  N_3 
REMARK    2  A    between atoms: C_2  and  C_14 
REMARK    3  A    between atoms: N_3  and  C_4 
REMARK    4  A    between atoms: C_4  and  C_5 
REMARK       I    between atoms: N_8  and  C_11 
REMARK    5  A    between atoms: C_14  and  N_16 
ROOT
HETATM    1  N   UNL     1       2.487   1.156   0.915  1.00  0.00     0.090 N 
HETATM    2  H   UNL     1       3.441   1.133   1.276  1.00  0.00     0.316 HD
ENDROOT
BRANCH   1   3
HETATM    3  C   UNL     1       2.265  -0.002   0.015  1.00  0.00     0.240 C 
HETATM    4  C   UNL     1       3.272   0.039  -1.145  1.00  0.00     0.045 C 
BRANCH   3   5
HETATM    5  C   UNL     1       0.785  -0.183  -0.469  1.00  0.00     0.136 C 
HETATM    6  C   UNL     1       0.592  -1.426  -1.345  1.00  0.00     0.036 C 
BRANCH   5   7
HETATM    7  N   UNL     1      -0.195  -0.204   0.622  1.00  0.00    -0.297 N 
HETATM    8  C   UNL     1      -0.063  -0.731   1.878  1.00  0.00     0.118 A 
HETATM    9  C   UNL     1      -1.237  -0.460   2.549  1.00  0.00    -0.028 A 
HETATM   10  C   UNL     1      -1.575  -0.747   3.960  1.00  0.00     0.051 C 
HETATM   11  C   UNL     1      -2.047   0.163   1.576  1.00  0.00     0.115 A 
HETATM   12  N   UNL     1      -1.425   0.315   0.405  1.00  0.00    -0.309 N 
ATOM     13  HN  UNL     1      -1.792   0.727  -0.453  1.00  0.00     0.186 HD
ENDBRANCH   5   7
ENDBRANCH   3   5
ENDBRANCH   1   3
BRANCH   1  14
HETATM   14  C   UNL     1       2.235   2.455   0.291  1.00  0.00     0.274 C 
BRANCH  14  15
HETATM   15  C   UNL     1       2.417   3.620   1.283  1.00  0.00     0.017 C 
HETATM   16  C   UNL     1       1.450   3.566   2.476  1.00  0.00     0.026 C 
HETATM   17  C   UNL     1       0.002   3.856   2.080  1.00  0.00     0.126 C 
HETATM   18  N   UNL     1      -0.107   5.105   1.318  1.00  0.00    -0.352 N 
HETATM   19  C   UNL     1       0.781   5.210   0.160  1.00  0.00     0.126 C 
HETATM   20  C   UNL     1      -1.136   6.027   1.418  1.00  0.00     0.215 C 
HETATM   21  C   UNL     1       2.237   4.964   0.558  1.00  0.00     0.026 C 
HETATM   22  O   UNL     1      -1.229   6.984   0.650  1.00  0.00    -0.274 OA
HETATM   23  C   UNL     1      -2.148   5.912   2.528  1.00  0.00     0.117 C 
ENDBRANCH  14  15
ENDBRANCH   1  14
TORSDOF 5
