REMARK  6 active torsions:
REMARK  status: ('A' for Active; 'I' for Inactive)
REMARK    1  A    between atoms: C_2  and  C_3 
REMARK    2  A    between atoms: C_3  and  O_4 
REMARK    3  A    between atoms: O_4  and  C_5 
REMARK    4  A    between atoms: C_5  and  C_6 
REMARK    5  A    between atoms: C_6  and  N_7 
REMARK    6  A    between atoms: N_7  and  C_8 
ROOT
HETATM    1  N   UNL     1       6.278  -0.140  -2.824  1.00  0.00    -0.384 N 
HETATM    2  H   UNL     1       6.417  -0.033  -1.819  1.00  0.00     0.159 HD
ENDROOT
BRANCH   1   3
HETATM    3  C   UNL     1       5.322  -1.185  -3.190  1.00  0.00     0.158 C 
BRANCH   3   4
HETATM    4  C   UNL     1       4.838  -2.017  -1.962  1.00  0.00     0.076 C 
HETATM    5  C   UNL     1       3.849  -3.102  -2.458  1.00  0.00     0.040 C 
HETATM    6  C   UNL     1       3.419  -4.072  -1.359  1.00  0.00     0.003 C 
HETATM    7  C   UNL     1       4.622  -4.724  -0.685  1.00  0.00     0.000 C 
HETATM    8  C   UNL     1       5.611  -3.682  -0.178  1.00  0.00     0.003 C 
HETATM    9  C   UNL     1       6.044  -2.729  -1.296  1.00  0.00     0.040 C 
BRANCH   4  10
HETATM   10  O   UNL     1       4.265  -1.179  -0.934  1.00  0.00    -0.379 OA
BRANCH  10  11
HETATM   11  C   UNL     1       3.123  -0.408  -1.304  1.00  0.00     0.168 C 
BRANCH  11  12
HETATM   12  C   UNL     1       2.673   0.420  -0.104  1.00  0.00     0.022 C 
HETATM   13  C   UNL     1       1.480   1.289  -0.467  1.00  0.00     0.007 C 
ENDBRANCH  11  12
ENDBRANCH  10  11
ENDBRANCH   4  10
ENDBRANCH   3   4
ENDBRANCH   1   3
BRANCH   1  14
HETATM   14  C   UNL     1       7.272   0.376  -3.650  1.00  0.00     0.072 A 
HETATM   15  C   UNL     1       8.536   0.811  -2.979  1.00  0.00     0.138 A 
HETATM   16  N   UNL     1       9.599   1.292  -3.538  1.00  0.00    -0.307 N 
HETATM   17  N   UNL     1       9.553   1.429  -4.889  1.00  0.00    -0.265 N 
ATOM     18  HN  UNL     1      10.423   1.553  -2.996  1.00  0.00     0.186 HD
HETATM   19  C   UNL     1       8.484   1.114  -5.688  1.00  0.00     0.283 A 
HETATM   20  H   UNL     1      10.379   1.805  -5.342  1.00  0.00     0.190 HD
HETATM   21  O   UNL     1       8.529   1.283  -6.902  1.00  0.00    -0.265 OA
HETATM   22  C   UNL     1       7.287   0.561  -4.985  1.00  0.00     0.131 A 
HETATM   23 CL   UNL     1       5.925   0.222  -6.001  1.00  0.00    -0.076 Cl
ENDBRANCH   1  14
TORSDOF 6
