REMARK  7 active torsions:
REMARK  status: ('A' for Active; 'I' for Inactive)
REMARK    1  A    between atoms: O_2  and  C_3 
REMARK    2  A    between atoms: C_3  and  C_4 
REMARK    3  A    between atoms: C_4  and  N_5 
REMARK    4  A    between atoms: C_8  and  C_9 
REMARK    5  A    between atoms: C_9  and  N_10 
REMARK       I    between atoms: N_10  and  C_11 
REMARK    6  A    between atoms: C_11  and  C_13 
REMARK    7  A    between atoms: C_13  and  N_15 
ROOT
HETATM    1  N   UNL     1       6.416  -6.142   2.097  1.00  0.00    -0.359 N 
HETATM    2  C   UNL     1       7.545  -6.938   1.987  1.00  0.00     0.242 C 
HETATM    3  O   UNL     1       8.673  -6.454   1.867  1.00  0.00    -0.271 OA
HETATM    4  H   UNL     1       5.497  -6.557   2.215  1.00  0.00     0.162 HD
ENDROOT
BRANCH   1   5
HETATM    5  C   UNL     1       6.583  -4.723   1.915  1.00  0.00     0.127 C 
BRANCH   5   6
HETATM    6  C   UNL     1       5.325  -3.853   2.037  1.00  0.00     0.007 C 
HETATM    7  C   UNL     1       4.265  -4.119   0.953  1.00  0.00     0.036 C 
HETATM    8  C   UNL     1       4.692  -3.641  -0.442  1.00  0.00     0.273 C 
HETATM    9  N   UNL     1       5.231  -2.275  -0.494  1.00  0.00     0.090 N 
HETATM   10  C   UNL     1       6.247  -2.040   0.531  1.00  0.00     0.273 C 
HETATM   11  C   UNL     1       5.749  -2.377   1.940  1.00  0.00     0.036 C 
BRANCH   9  12
HETATM   12  C   UNL     1       4.185  -1.238  -0.553  1.00  0.00     0.298 C 
BRANCH  12  13
HETATM   13  C   UNL     1       4.703   0.208  -0.743  1.00  0.00     0.197 C 
BRANCH  13  14
HETATM   14  O   UNL     1       5.481   0.302  -1.939  1.00  0.00    -0.394 OA
HETATM   15  C   UNL     1       6.040   1.594  -2.117  1.00  0.00     0.201 C 
ENDBRANCH  13  14
ENDBRANCH  12  13
ENDBRANCH   9  12
ENDBRANCH   5   6
ENDBRANCH   1   5
BRANCH   2  16
HETATM   16  C   UNL     1       7.312  -8.435   2.016  1.00  0.00     0.195 C 
HETATM   17  C   UNL     1       8.395  -9.154   1.210  1.00  0.00     0.044 C 
BRANCH  16  18
HETATM   18  N   UNL     1       7.257  -8.909   3.390  1.00  0.00    -0.290 N 
HETATM   19  C   UNL     1       8.248  -8.860   4.333  1.00  0.00     0.112 A 
HETATM   20  C   UNL     1       7.742  -9.476   5.453  1.00  0.00     0.037 A 
HETATM   21  C   UNL     1       6.437  -9.852   5.093  1.00  0.00     0.108 A 
HETATM   22  N   UNL     1       6.130  -9.503   3.841  1.00  0.00    -0.309 N 
ATOM     23  HN  UNL     1       5.252  -9.650   3.343  1.00  0.00     0.186 HD
ENDBRANCH  16  18
ENDBRANCH   2  16
TORSDOF 7
