REMARK  2 active torsions:
REMARK  status: ('A' for Active; 'I' for Inactive)
REMARK    1  A    between atoms: C_5  and  N_8 
REMARK       I    between atoms: N_8  and  C_9 
REMARK       I    between atoms: C_9  and  N_11 
REMARK    2  A    between atoms: N_11  and  C_12 
ROOT
HETATM    1  N   UNL     1       4.553  -0.803  -2.987  1.00  0.00    -0.338 N 
HETATM    2  C   UNL     1       5.124  -0.427  -4.190  1.00  0.00     0.322 C 
HETATM    3  O   UNL     1       4.446  -0.027  -5.130  1.00  0.00    -0.247 OA
HETATM    4  N   UNL     1       6.478  -0.632  -4.191  1.00  0.00    -0.288 N 
HETATM    5  H   UNL     1       5.107  -0.622  -2.163  1.00  0.00     0.164 HD
HETATM    6  H   UNL     1       6.883  -1.229  -3.492  1.00  0.00     0.172 HD
ENDROOT
BRANCH   1   7
HETATM    7  C   UNL     1       3.100  -0.764  -2.838  1.00  0.00     0.086 C 
HETATM    8  C   UNL     1       2.604   0.641  -2.474  1.00  0.00     0.026 C 
HETATM    9  C   UNL     1       2.903   1.015  -1.022  1.00  0.00     0.006 C 
HETATM   10  C   UNL     1       2.401  -0.032  -0.018  1.00  0.00    -0.019 C 
HETATM   11  C   UNL     1       0.875  -0.013   0.103  1.00  0.00     0.010 C 
HETATM   12  C   UNL     1       2.923  -1.429  -0.381  1.00  0.00     0.006 C 
HETATM   13  C   UNL     1       2.631  -1.817  -1.830  1.00  0.00     0.026 C 
ENDBRANCH   1   7
BRANCH   4  14
HETATM   14  C   UNL     1       7.201  -0.416  -5.335  1.00  0.00     0.168 A 
HETATM   15  N   UNL     1       6.885   0.249  -6.420  1.00  0.00    -0.279 N 
HETATM   16  N   UNL     1       7.866   0.157  -7.388  1.00  0.00    -0.303 N 
ATOM     17  HN  UNL     1       6.017   0.772  -6.536  1.00  0.00     0.189 HD
HETATM   18  C   UNL     1       8.881  -0.574  -6.980  1.00  0.00     0.160 A 
ATOM     19  HN  UNL     1       7.810   0.600  -8.305  1.00  0.00     0.186 HD
HETATM   20  S   UNL     1       8.743  -1.152  -5.368  1.00  0.00    -0.046 SA
ENDBRANCH   4  14
TORSDOF 2
