REMARK  4 active torsions:
REMARK  status: ('A' for Active; 'I' for Inactive)
REMARK       I    between atoms: N_1  and  C_2 
REMARK    1  A    between atoms: C_2  and  C_4 
REMARK    2  A    between atoms: C_4  and  C_5 
REMARK    3  A    between atoms: C_8  and  N_9 
REMARK       I    between atoms: N_9  and  C_10 
REMARK    4  A    between atoms: C_10  and  C_12 
ROOT
HETATM    1  C   UNL     1       4.679   0.900  -0.461  1.00  0.00     0.026 A 
HETATM    2  C   UNL     1       5.551   1.879  -0.012  1.00  0.00     0.078 A 
HETATM    3  S   UNL     1       7.125   1.217   0.202  1.00  0.00    -0.064 SA
HETATM    4  C   UNL     1       6.517  -0.305  -0.253  1.00  0.00     0.151 A 
HETATM    5  N   UNL     1       5.271  -0.339  -0.633  1.00  0.00    -0.339 N 
ATOM      6  HN  UNL     1       4.798  -1.163  -1.005  1.00  0.00     0.168 HD
ENDROOT
BRANCH   4   7
HETATM    7  N   UNL     1       7.395  -1.346  -0.161  1.00  0.00    -0.307 N 
HETATM    8  C   UNL     1       6.968  -2.655  -0.279  1.00  0.00     0.227 C 
HETATM    9  O   UNL     1       5.795  -3.007  -0.415  1.00  0.00    -0.273 OA
HETATM   10  H   UNL     1       8.350  -1.129   0.076  1.00  0.00     0.171 HD
BRANCH   8  11
HETATM   11  C   UNL     1       8.143  -3.661  -0.175  1.00  0.00     0.078 C 
HETATM   12  C   UNL     1       9.218  -3.621  -1.297  1.00  0.00     0.014 C 
HETATM   13  C   UNL     1       9.317  -5.152  -1.172  1.00  0.00     0.002 C 
HETATM   14  C   UNL     1       7.882  -5.130  -0.615  1.00  0.00     0.014 C 
ENDBRANCH   8  11
ENDBRANCH   4   7
BRANCH   1  15
HETATM   15  C   UNL     1       3.227   1.072  -0.784  1.00  0.00     0.160 C 
BRANCH  15  16
HETATM   16  C   UNL     1       2.330  -0.147  -0.606  1.00  0.00     0.221 C 
HETATM   17  N   UNL     1       2.862  -1.300  -0.119  1.00  0.00    -0.370 N 
HETATM   18  H   UNL     1       2.280  -2.125  -0.142  1.00  0.00     0.159 HD
HETATM   19  H   UNL     1       3.867  -1.463  -0.226  1.00  0.00     0.159 HD
HETATM   20  O   UNL     1       1.127  -0.096  -0.871  1.00  0.00    -0.273 OA
ENDBRANCH  15  16
ENDBRANCH   1  15
TORSDOF 4
