REMARK  6 active torsions:
REMARK  status: ('A' for Active; 'I' for Inactive)
REMARK    1  A    between atoms: O_2  and  C_3 
REMARK    2  A    between atoms: C_3  and  C_4 
REMARK    3  A    between atoms: C_4  and  O_5 
REMARK    4  A    between atoms: O_5  and  C_6 
REMARK    5  A    between atoms: C_12  and  C_13 
REMARK       I    between atoms: C_13  and  N_15 
REMARK    6  A    between atoms: N_15  and  C_16 
ROOT
HETATM    1  C   UNL     1       6.155  -2.980   0.150  1.00  0.00     0.158 A 
HETATM    2  N   UNL     1       6.956  -1.913   0.384  1.00  0.00    -0.346 N 
ATOM      3  HN  UNL     1       6.598  -0.958   0.363  1.00  0.00     0.167 HD
HETATM    4  C   UNL     1       8.255  -2.179   0.647  1.00  0.00     0.090 A 
HETATM    5  C   UNL     1       8.787  -3.457   0.692  1.00  0.00     0.018 A 
HETATM    6  C   UNL     1       7.939  -4.535   0.448  1.00  0.00     0.023 A 
HETATM    7  C   UNL     1       6.587  -4.310   0.170  1.00  0.00     0.083 A 
ENDROOT
BRANCH   7   8
HETATM    8  C   UNL     1       5.723  -5.486  -0.148  1.00  0.00     0.256 C 
HETATM    9  O   UNL     1       6.206  -6.617  -0.173  1.00  0.00    -0.268 OA
HETATM   10  N   UNL     1       4.402  -5.250  -0.459  1.00  0.00    -0.350 N 
HETATM   11  H   UNL     1       4.049  -4.301  -0.372  1.00  0.00     0.163 HD
BRANCH  10  12
HETATM   12  C   UNL     1       3.489  -6.297  -0.880  1.00  0.00     0.111 C 
HETATM   13  C   UNL     1       3.882  -6.948  -2.207  1.00  0.00     0.150 C 
HETATM   14  N   UNL     1       2.625  -7.336  -2.800  1.00  0.00    -0.354 N 
HETATM   15  C   UNL     1       2.556  -7.907  -4.122  1.00  0.00     0.152 C 
HETATM   16  C   UNL     1       1.563  -6.621  -2.266  1.00  0.00     0.221 C 
HETATM   17  O   UNL     1       0.416  -6.602  -2.682  1.00  0.00    -0.273 OA
HETATM   18  C   UNL     1       2.090  -5.754  -1.155  1.00  0.00     0.129 C 
ENDBRANCH  10  12
ENDBRANCH   7   8
BRANCH   1  19
HETATM   19  O   UNL     1       4.819  -2.751  -0.076  1.00  0.00    -0.333 OA
BRANCH  19  20
HETATM   20  C   UNL     1       4.475  -1.449  -0.553  1.00  0.00     0.203 C 
BRANCH  20  21
HETATM   21  C   UNL     1       3.156  -1.604  -1.317  1.00  0.00     0.193 C 
BRANCH  21  22
HETATM   22  O   UNL     1       2.137  -2.072  -0.427  1.00  0.00    -0.394 OA
HETATM   23  C   UNL     1       0.883  -2.224  -1.082  1.00  0.00     0.201 C 
ENDBRANCH  21  22
ENDBRANCH  20  21
ENDBRANCH  19  20
ENDBRANCH   1  19
TORSDOF 6
