REMARK  5 active torsions:
REMARK  status: ('A' for Active; 'I' for Inactive)
REMARK    1  A    between atoms: N_1  and  C_8 
REMARK    2  A    between atoms: N_2  and  C_7 
REMARK    3  A    between atoms: C_8  and  C_10 
REMARK       I    between atoms: C_10  and  N_18 
REMARK    4  A    between atoms: N_18  and  C_24 
REMARK    5  A    between atoms: C_23  and  C_24 
ROOT
HETATM    1  C   UNL     1      -1.528   2.029   0.085  1.00  0.00     0.240 C 
ENDROOT
BRANCH   1   2
HETATM    2  N   UNL     1      -0.758   0.811   0.327  1.00  0.00    -0.255 N 
HETATM    3  C   UNL     1      -0.320   0.634   1.634  1.00  0.00     0.334 C 
HETATM    4  N   UNL     1       0.859  -0.086   1.781  1.00  0.00    -0.279 N 
HETATM    5  O   UNL     1      -0.907   1.135   2.594  1.00  0.00    -0.246 OA
HETATM    6  C   UNL     1       1.369  -0.859   0.764  1.00  0.00     0.146 C 
HETATM    7  C   UNL     1       0.812  -0.862  -0.446  1.00  0.00     0.200 C 
HETATM    8  C   UNL     1      -0.288   0.083  -0.756  1.00  0.00     0.292 C 
HETATM    9  F   UNL     1       1.296  -1.605  -1.460  1.00  0.00    -0.199 F 
HETATM   10  O   UNL     1      -0.708   0.216  -1.902  1.00  0.00    -0.264 OA
BRANCH   4  11
HETATM   11  C   UNL     1       1.575   0.109   3.030  1.00  0.00     0.232 C 
HETATM   12  O   UNL     1       2.997   0.053   2.825  1.00  0.00    -0.366 OA
HETATM   13  C   UNL     1       3.594  -0.387   4.055  1.00  0.00     0.170 C 
HETATM   14  C   UNL     1       2.467  -0.686   5.028  1.00  0.00     0.031 C 
HETATM   15  C   UNL     1       1.281  -0.903   4.118  1.00  0.00     0.056 C 
ENDBRANCH   4  11
ENDBRANCH   1   2
BRANCH   1  16
HETATM   16  C   UNL     1      -3.036   2.006   0.271  1.00  0.00     0.236 C 
HETATM   17  N   UNL     1      -3.708   0.878  -0.120  1.00  0.00    -0.355 N 
HETATM   18  H   UNL     1      -3.199   0.020  -0.298  1.00  0.00     0.162 HD
HETATM   19  O   UNL     1      -3.632   3.033   0.599  1.00  0.00    -0.272 OA
BRANCH  17  20
HETATM   20  C   UNL     1      -5.158   0.823  -0.010  1.00  0.00     0.161 C 
BRANCH  20  21
HETATM   21  C   UNL     1      -5.805  -0.175  -0.940  1.00  0.00    -0.038 A 
HETATM   22  C   UNL     1      -5.243  -0.486  -2.189  1.00  0.00     0.048 A 
HETATM   23  C   UNL     1      -5.859  -1.450  -2.958  1.00  0.00     0.105 A 
HETATM   24  C   UNL     1      -7.027  -2.059  -2.565  1.00  0.00     0.105 A 
HETATM   25  O   UNL     1      -5.401  -1.924  -4.147  1.00  0.00    -0.323 OA
HETATM   26  O   UNL     1      -7.442  -3.002  -3.454  1.00  0.00    -0.323 OA
HETATM   27  C   UNL     1      -7.659  -1.720  -1.391  1.00  0.00     0.040 A 
HETATM   28  C   UNL     1      -6.334  -2.998  -4.380  1.00  0.00     0.352 C 
HETATM   29  C   UNL     1      -7.038  -0.770  -0.571  1.00  0.00     0.012 A 
ENDBRANCH  20  21
ENDBRANCH  17  20
ENDBRANCH   1  16
TORSDOF 5
