REMARK  5 active torsions:
REMARK  status: ('A' for Active; 'I' for Inactive)
REMARK    1  A    between atoms: N_6  and  C_7 
REMARK    2  A    between atoms: C_7  and  C_8 
REMARK    3  A    between atoms: C_8  and  N_9 
REMARK       I    between atoms: N_9  and  C_10 
REMARK    4  A    between atoms: C_10  and  C_12 
REMARK    5  A    between atoms: C_12  and  N_13 
ROOT
HETATM    1  N   UNL     1       2.996  -4.757  -3.940  1.00  0.00    -0.358 N 
HETATM    2  C   UNL     1       2.240  -5.837  -3.542  1.00  0.00     0.237 C 
HETATM    3  O   UNL     1       1.218  -5.726  -2.865  1.00  0.00    -0.272 OA
HETATM    4  H   UNL     1       3.888  -4.913  -4.398  1.00  0.00     0.162 HD
ENDROOT
BRANCH   1   5
HETATM    5  C   UNL     1       2.616  -3.393  -3.614  1.00  0.00     0.152 C 
BRANCH   5   6
HETATM    6  C   UNL     1       3.100  -2.937  -2.222  1.00  0.00     0.292 C 
BRANCH   6   7
HETATM    7  N   UNL     1       2.656  -1.575  -1.856  1.00  0.00     0.090 N 
HETATM    8  C   UNL     1       3.175  -0.549  -2.773  1.00  0.00     0.272 C 
HETATM    9  C   UNL     1       2.677   0.850  -2.409  1.00  0.00     0.031 C 
HETATM   10  C   UNL     1       2.990   1.197  -0.959  1.00  0.00     0.007 C 
HETATM   11  C   UNL     1       2.507   0.101  -0.003  1.00  0.00     0.010 C 
HETATM   12  C   UNL     1       0.981   0.101   0.132  1.00  0.00     0.011 C 
HETATM   13  C   UNL     1       3.036  -1.271  -0.464  1.00  0.00     0.276 C 
ENDBRANCH   6   7
ENDBRANCH   5   6
ENDBRANCH   1   5
BRANCH   2  14
HETATM   14  C   UNL     1       2.745  -7.179  -4.008  1.00  0.00     0.250 C 
BRANCH  14  15
HETATM   15  N   UNL     1       3.554  -7.818  -2.994  1.00  0.00    -0.295 N 
HETATM   16  C   UNL     1       3.150  -8.230  -1.755  1.00  0.00     0.112 A 
HETATM   17  C   UNL     1       4.235  -8.851  -1.186  1.00  0.00     0.037 A 
HETATM   18  C   UNL     1       5.245  -8.768  -2.160  1.00  0.00     0.108 A 
HETATM   19  N   UNL     1       4.840  -8.132  -3.263  1.00  0.00    -0.310 N 
ATOM     20  HN  UNL     1       5.375  -7.931  -4.108  1.00  0.00     0.186 HD
ENDBRANCH  14  15
ENDBRANCH   2  14
TORSDOF 5
