REMARK  5 active torsions:
REMARK  status: ('A' for Active; 'I' for Inactive)
REMARK    1  A    between atoms: C_2  and  N_3 
REMARK    2  A    between atoms: C_5  and  C_9 
REMARK       I    between atoms: C_9  and  N_11 
REMARK    3  A    between atoms: N_11  and  C_12 
REMARK    4  A    between atoms: C_12  and  C_14 
REMARK    5  A    between atoms: C_14  and  N_15 
ROOT
HETATM    1  C   UNL     1       1.265   2.671  -3.544  1.00  0.00     0.224 C 
HETATM    2  O   UNL     1       0.422   3.319  -2.930  1.00  0.00    -0.273 OA
HETATM    3  N   UNL     1       1.025   2.129  -4.789  1.00  0.00    -0.355 N 
HETATM    4  H   UNL     1       1.791   1.698  -5.297  1.00  0.00     0.162 HD
ENDROOT
BRANCH   3   5
HETATM    5  C   UNL     1      -0.259   2.317  -5.464  1.00  0.00     0.098 C 
HETATM    6  C   UNL     1      -0.241   3.615  -6.277  1.00  0.00     0.034 C 
BRANCH   5   7
HETATM    7  C   UNL     1      -0.611   1.132  -6.379  1.00  0.00     0.153 C 
BRANCH   7   8
HETATM    8  N   UNL     1      -0.687  -0.136  -5.681  1.00  0.00    -0.350 N 
HETATM    9  C   UNL     1       0.113  -1.224  -5.894  1.00  0.00     0.108 A 
HETATM   10  C   UNL     1      -0.358  -2.182  -5.026  1.00  0.00     0.106 A 
HETATM   11  N   UNL     1      -1.419  -1.704  -4.303  1.00  0.00    -0.361 N 
HETATM   12  C   UNL     1      -1.596  -0.471  -4.719  1.00  0.00     0.182 A 
ATOM     13  HN  UNL     1      -1.957  -2.200  -3.593  1.00  0.00     0.166 HD
ENDBRANCH   7   8
ENDBRANCH   5   7
ENDBRANCH   3   5
BRANCH   1  14
HETATM   14  C   UNL     1       2.655   2.456  -2.981  1.00  0.00     0.104 C 
HETATM   15  C   UNL     1       3.695   3.101  -3.880  1.00  0.00     0.140 C 
HETATM   16  N   UNL     1       4.474   2.004  -4.389  1.00  0.00    -0.352 N 
HETATM   17  C   UNL     1       4.186   0.792  -3.793  1.00  0.00     0.220 C 
HETATM   18  C   UNL     1       3.026   0.978  -2.857  1.00  0.00     0.118 C 
HETATM   19  O   UNL     1       4.734  -0.272  -4.028  1.00  0.00    -0.273 OA
BRANCH  16  20
HETATM   20  C   UNL     1       5.308   2.120  -5.571  1.00  0.00     0.121 C 
HETATM   21  C   UNL     1       4.545   1.642  -6.799  1.00  0.00     0.026 C 
ENDBRANCH  16  20
ENDBRANCH   1  14
TORSDOF 5
