REMARK  4 active torsions:
REMARK  status: ('A' for Active; 'I' for Inactive)
REMARK    1  A    between atoms: C_7  and  C_8 
REMARK    2  A    between atoms: C_8  and  C_9 
REMARK    3  A    between atoms: C_9  and  N_10 
REMARK       I    between atoms: N_10  and  C_11 
REMARK    4  A    between atoms: C_11  and  C_13 
ROOT
HETATM    1  N   UNL     1       0.722  -4.055  -0.053  1.00  0.00    -0.360 N 
HETATM    2  C   UNL     1      -0.606  -4.374  -0.136  1.00  0.00     0.221 C 
HETATM    3  O   UNL     1      -1.482  -3.530  -0.328  1.00  0.00    -0.273 OA
HETATM    4  H   UNL     1       1.377  -4.731   0.323  1.00  0.00     0.162 HD
ENDROOT
BRANCH   1   5
HETATM    5  C   UNL     1       1.135  -2.667  -0.150  1.00  0.00     0.128 C 
BRANCH   5   6
HETATM    6  C   UNL     1       2.645  -2.466  -0.047  1.00  0.00     0.078 C 
BRANCH   6   7
HETATM    7  C   UNL     1       3.262  -3.032   1.192  1.00  0.00     0.029 A 
HETATM    8  N   UNL     1       3.030  -2.619   2.484  1.00  0.00    -0.350 N 
HETATM    9  C   UNL     1       2.133  -1.587   2.942  1.00  0.00     0.156 C 
HETATM   10  C   UNL     1       3.826  -3.367   3.307  1.00  0.00     0.182 A 
HETATM   11  N   UNL     1       4.536  -4.239   2.632  1.00  0.00    -0.360 N 
HETATM   12  C   UNL     1       4.206  -4.034   1.322  1.00  0.00     0.114 A 
ATOM     13  HN  UNL     1       5.194  -4.924   3.005  1.00  0.00     0.166 HD
ENDBRANCH   6   7
ENDBRANCH   5   6
ENDBRANCH   1   5
BRANCH   2  14
HETATM   14  C   UNL     1      -0.956  -5.845   0.013  1.00  0.00     0.078 C 
HETATM   15  C   UNL     1      -0.258  -6.728  -1.023  1.00  0.00     0.020 C 
HETATM   16  C   UNL     1      -0.840  -8.141  -0.967  1.00  0.00     0.080 C 
HETATM   17  C   UNL     1      -0.769  -8.728   0.438  1.00  0.00     0.243 C 
HETATM   18  F   UNL     1      -1.463  -9.892   0.472  1.00  0.00    -0.206 F 
HETATM   19  F   UNL     1       0.525  -9.042   0.711  1.00  0.00    -0.206 F 
HETATM   20  C   UNL     1      -1.286  -7.799   1.531  1.00  0.00     0.080 C 
HETATM   21  C   UNL     1      -0.690  -6.394   1.418  1.00  0.00     0.020 C 
ENDBRANCH   2  14
TORSDOF 4
