REMARK  7 active torsions:
REMARK  status: ('A' for Active; 'I' for Inactive)
REMARK    1  A    between atoms: N_2  and  C_13 
REMARK    2  A    between atoms: C_3  and  N_7 
REMARK    3  A    between atoms: N_7  and  C_16 
REMARK    4  A    between atoms: N_7  and  C_17 
REMARK    5  A    between atoms: C_13  and  C_15 
REMARK    6  A    between atoms: C_15  and  O_23 
REMARK    7  A    between atoms: C_16  and  C_20 
ROOT
HETATM    1  C   UNL     1      -1.073  -0.570   1.478  1.00  0.00     0.117 A 
HETATM    2  N   UNL     1      -1.247   1.442   2.334  1.00  0.00    -0.324 N 
HETATM    3  C   UNL     1      -0.670  -1.497   0.481  1.00  0.00     0.115 A 
HETATM    4  C   UNL     1      -0.853   0.777   1.209  1.00  0.00     0.140 A 
HETATM    5  N   UNL     1      -1.638  -0.704   2.734  1.00  0.00    -0.346 N 
ATOM      6  HN  UNL     1      -1.894  -1.572   3.205  1.00  0.00     0.167 HD
HETATM    7  C   UNL     1      -1.777   0.522   3.195  1.00  0.00     0.185 A 
HETATM    8  N   UNL     1      -0.128  -0.952  -0.663  1.00  0.00    -0.341 N 
ATOM      9  HN  UNL     1       0.183  -1.564  -1.417  1.00  0.00     0.167 HD
HETATM   10  N   UNL     1      -0.326   1.328   0.105  1.00  0.00    -0.336 N 
ATOM     11  HN  UNL     1      -0.187   2.329  -0.034  1.00  0.00     0.168 HD
HETATM   12  C   UNL     1      -0.007   0.383  -0.791  1.00  0.00     0.183 A 
ENDROOT
BRANCH   3  13
HETATM   13  N   UNL     1      -0.758  -2.904   0.588  1.00  0.00    -0.260 NA
BRANCH  13  14
HETATM   14  C   UNL     1       0.311  -3.550  -0.218  1.00  0.00     0.129 C 
BRANCH  14  15
HETATM   15  C   UNL     1       0.862  -4.877   0.348  1.00  0.00     0.135 C 
HETATM   16  O   UNL     1      -0.050  -5.986   0.272  1.00  0.00    -0.385 OA
HETATM   17  C   UNL     1       0.474  -6.961   1.183  1.00  0.00     0.168 C 
HETATM   18  C   UNL     1       0.922  -6.159   2.382  1.00  0.00     0.029 C 
HETATM   19  C   UNL     1       1.394  -4.846   1.778  1.00  0.00     0.035 C 
ENDBRANCH  14  15
ENDBRANCH  13  14
BRANCH  13  20
HETATM   20  C   UNL     1      -2.121  -3.447   0.339  1.00  0.00     0.065 C 
HETATM   21  C   UNL     1      -2.989  -2.720  -0.713  1.00  0.00     0.020 C 
HETATM   22  C   UNL     1      -4.380  -2.583  -0.105  1.00  0.00     0.002 C 
HETATM   23  C   UNL     1      -4.411  -3.540   1.076  1.00  0.00     0.002 C 
HETATM   24  C   UNL     1      -2.984  -3.533   1.600  1.00  0.00     0.020 C 
ENDBRANCH  13  20
ENDBRANCH   3  13
BRANCH   2  25
HETATM   25  C   UNL     1      -1.120   2.868   2.564  1.00  0.00     0.169 C 
BRANCH  25  26
HETATM   26  C   UNL     1       0.146   3.277   3.363  1.00  0.00     0.078 C 
HETATM   27  C   UNL     1       0.126   4.798   3.608  1.00  0.00     0.066 C 
HETATM   28  C   UNL     1       0.584   5.581   2.388  1.00  0.00     0.170 C 
HETATM   29  O   UNL     1       1.892   5.169   2.007  1.00  0.00    -0.391 OA
HETATM   30  C   UNL     1       1.930   3.805   1.598  1.00  0.00     0.170 C 
HETATM   31  C   UNL     1       1.493   2.881   2.728  1.00  0.00     0.066 C 
BRANCH  26  32
HETATM   32  O   UNL     1       0.053   2.659   4.661  1.00  0.00    -0.388 OA
HETATM   33  H   UNL     1       0.328   1.727   4.579  1.00  0.00     0.210 HD
ENDBRANCH  26  32
ENDBRANCH  25  26
ENDBRANCH   2  25
TORSDOF 7
