REMARK  3 active torsions:
REMARK  status: ('A' for Active; 'I' for Inactive)
REMARK    1  A    between atoms: N_1  and  C_9 
REMARK    2  A    between atoms: N_2  and  C_12 
REMARK       I    between atoms: N_6  and  C_8 
REMARK    3  A    between atoms: C_8  and  C_9 
ROOT
HETATM    1  N   UNL     1      -0.513   1.174  -0.183  1.00  0.00    -0.255 N 
HETATM    2  N   UNL     1       1.505   0.306   0.727  1.00  0.00    -0.279 N 
HETATM    3  C   UNL     1       0.326   1.047   0.934  1.00  0.00     0.334 C 
HETATM    4  C   UNL     1      -0.385   0.442  -1.346  1.00  0.00     0.292 C 
HETATM    5  C   UNL     1       0.830  -0.382  -1.440  1.00  0.00     0.200 C 
HETATM    6  C   UNL     1       1.721  -0.382  -0.453  1.00  0.00     0.146 C 
HETATM    7  O   UNL     1       0.097   1.602   2.008  1.00  0.00    -0.246 OA
HETATM    8  O   UNL     1      -1.179   0.491  -2.281  1.00  0.00    -0.264 OA
HETATM    9  F   UNL     1       1.047  -1.029  -2.599  1.00  0.00    -0.199 F 
ENDROOT
BRANCH   1  10
HETATM   10  C   UNL     1      -1.542   2.229  -0.194  1.00  0.00     0.240 C 
BRANCH  10  11
HETATM   11  C   UNL     1      -2.952   1.732   0.099  1.00  0.00     0.243 C 
HETATM   12  N   UNL     1      -4.037   1.951  -0.746  1.00  0.00    -0.311 N 
HETATM   13  C   UNL     1      -5.392   1.601  -0.238  1.00  0.00     0.093 C 
HETATM   14  C   UNL     1      -4.214   2.645  -1.976  1.00  0.00     0.044 C 
HETATM   15  C   UNL     1      -6.432   2.210  -1.191  1.00  0.00     0.066 C 
HETATM   16  C   UNL     1      -5.586   0.086  -0.127  1.00  0.00     0.033 C 
HETATM   17  C   UNL     1      -5.567   2.913  -2.182  1.00  0.00    -0.029 C 
HETATM   18  C   UNL     1      -6.038   3.693  -3.232  1.00  0.00     0.009 C 
HETATM   19  C   UNL     1      -5.123   4.147  -4.171  1.00  0.00     0.001 C 
HETATM   20  C   UNL     1      -3.774   3.781  -4.045  1.00  0.00     0.002 C 
HETATM   21  C   UNL     1      -3.306   3.041  -2.944  1.00  0.00     0.030 C 
HETATM   22  O   UNL     1      -3.135   1.163   1.188  1.00  0.00    -0.271 OA
ENDBRANCH  10  11
ENDBRANCH   1  10
BRANCH   2  23
HETATM   23  C   UNL     1       2.595   0.475   1.708  1.00  0.00     0.232 C 
HETATM   24  O   UNL     1       3.801  -0.175   1.268  1.00  0.00    -0.366 OA
HETATM   25  C   UNL     1       4.582  -0.534   2.411  1.00  0.00     0.170 C 
HETATM   26  C   UNL     1       3.705  -0.423   3.638  1.00  0.00     0.031 C 
HETATM   27  C   UNL     1       2.335  -0.056   3.111  1.00  0.00     0.056 C 
ENDBRANCH   2  23
TORSDOF 3
