REMARK  4 active torsions:
REMARK  status: ('A' for Active; 'I' for Inactive)
REMARK    1  A    between atoms: N_1  and  C_8 
REMARK    2  A    between atoms: N_2  and  C_7 
REMARK    3  A    between atoms: C_8  and  C_9 
REMARK       I    between atoms: C_9  and  N_13 
REMARK    4  A    between atoms: N_13  and  C_18 
ROOT
HETATM    1  N   UNL     1      -0.897   1.138   0.651  1.00  0.00    -0.255 N 
HETATM    2  N   UNL     1      -0.601  -1.119   1.267  1.00  0.00    -0.279 N 
HETATM    3  C   UNL     1      -1.452  -0.024   1.166  1.00  0.00     0.334 C 
HETATM    4  C   UNL     1       0.469   1.368   0.566  1.00  0.00     0.292 C 
HETATM    5  C   UNL     1       1.322   0.203   0.879  1.00  0.00     0.200 C 
HETATM    6  C   UNL     1       0.767  -0.975   1.177  1.00  0.00     0.146 C 
HETATM    7  O   UNL     1      -2.641  -0.081   1.493  1.00  0.00    -0.246 OA
HETATM    8  O   UNL     1       0.973   2.456   0.300  1.00  0.00    -0.264 OA
HETATM    9  F   UNL     1       2.655   0.378   0.846  1.00  0.00    -0.199 F 
ENDROOT
BRANCH   1  10
HETATM   10  C   UNL     1      -1.818   2.222   0.339  1.00  0.00     0.240 C 
BRANCH  10  11
HETATM   11  C   UNL     1      -2.727   1.809  -0.832  1.00  0.00     0.240 C 
HETATM   12  N   UNL     1      -4.009   1.440  -0.431  1.00  0.00    -0.326 N 
HETATM   13  H   UNL     1      -4.140   1.318   0.570  1.00  0.00     0.169 HD
HETATM   14  O   UNL     1      -2.279   1.729  -1.973  1.00  0.00    -0.271 OA
BRANCH  12  15
HETATM   15  C   UNL     1      -5.038   0.900  -1.240  1.00  0.00     0.037 A 
HETATM   16  C   UNL     1      -4.949   0.797  -2.630  1.00  0.00     0.069 A 
HETATM   17  C   UNL     1      -5.928   0.082  -3.288  1.00  0.00     0.107 A 
HETATM   18  C   UNL     1      -7.012  -0.455  -2.633  1.00  0.00     0.105 A 
HETATM   19  O   UNL     1      -5.920  -0.241  -4.612  1.00  0.00    -0.323 OA
HETATM   20  O   UNL     1      -7.804  -1.186  -3.464  1.00  0.00    -0.323 OA
HETATM   21  C   UNL     1      -7.193  -0.282  -1.281  1.00  0.00     0.042 A 
HETATM   22  C   UNL     1      -6.951  -1.248  -4.627  1.00  0.00     0.352 C 
HETATM   23  C   UNL     1      -6.182   0.389  -0.578  1.00  0.00     0.032 A 
ENDBRANCH  12  15
ENDBRANCH  10  11
ENDBRANCH   1  10
BRANCH   2  24
HETATM   24  C   UNL     1      -1.231  -2.406   1.530  1.00  0.00     0.232 C 
HETATM   25  O   UNL     1      -0.281  -3.478   1.662  1.00  0.00    -0.366 OA
HETATM   26  C   UNL     1      -0.929  -4.690   1.233  1.00  0.00     0.170 C 
HETATM   27  C   UNL     1      -2.289  -4.318   0.676  1.00  0.00     0.031 C 
HETATM   28  C   UNL     1      -2.140  -2.849   0.391  1.00  0.00     0.056 C 
ENDBRANCH   2  24
TORSDOF 4
