REMARK  5 active torsions:
REMARK  status: ('A' for Active; 'I' for Inactive)
REMARK    1  A    between atoms: C_2  and  N_3 
REMARK    2  A    between atoms: C_2  and  C_7 
REMARK       I    between atoms: N_3  and  C_4 
REMARK       I    between atoms: C_4  and  N_6 
REMARK       I    between atoms: C_7  and  N_9 
REMARK    3  A    between atoms: N_9  and  C_10 
REMARK    4  A    between atoms: C_10  and  C_11 
REMARK    5  A    between atoms: C_14  and  N_18 
ROOT
HETATM    1  C   UNL     1       6.458   1.542   2.584  1.00  0.00    -0.025 A 
HETATM    2  C   UNL     1       7.166   2.607   2.037  1.00  0.00     0.014 A 
HETATM    3  C   UNL     1       8.563   2.554   1.971  1.00  0.00     0.049 A 
HETATM    4  C   UNL     1       9.261   1.445   2.454  1.00  0.00     0.103 A 
HETATM    5  N   UNL     1       8.575   0.426   3.016  1.00  0.00    -0.352 N 
ATOM      6  HN  UNL     1       9.069  -0.381   3.395  1.00  0.00     0.166 HD
HETATM    7  C   UNL     1       7.218   0.489   3.070  1.00  0.00     0.098 A 
ENDROOT
BRANCH   1   8
HETATM    8  C   UNL     1       4.959   1.527   2.639  1.00  0.00     0.162 C 
BRANCH   8   9
HETATM    9  N   UNL     1       4.431   2.159   3.828  1.00  0.00    -0.355 N 
HETATM   10  C   UNL     1       3.066   2.266   4.020  1.00  0.00     0.240 C 
HETATM   11  O   UNL     1       2.252   1.787   3.229  1.00  0.00    -0.271 OA
HETATM   12  H   UNL     1       5.075   2.590   4.479  1.00  0.00     0.162 HD
BRANCH  10  13
HETATM   13  C   UNL     1       2.626   3.020   5.297  1.00  0.00     0.174 C 
HETATM   14  C   UNL     1       3.176   4.444   5.297  1.00  0.00     0.042 C 
BRANCH  13  15
HETATM   15  N   UNL     1       1.167   3.031   5.355  1.00  0.00    -0.330 N 
HETATM   16  C   UNL     1       0.476   3.437   6.450  1.00  0.00     0.314 C 
HETATM   17  O   UNL     1       0.977   3.782   7.513  1.00  0.00    -0.248 OA
HETATM   18  N   UNL     1      -0.862   3.481   6.253  1.00  0.00    -0.352 N 
HETATM   19  H   UNL     1      -1.286   2.825   5.614  1.00  0.00     0.160 HD
HETATM   20  H   UNL     1      -1.398   3.699   7.083  1.00  0.00     0.160 HD
HETATM   21  H   UNL     1       0.668   2.783   4.509  1.00  0.00     0.165 HD
ENDBRANCH  13  15
ENDBRANCH  10  13
ENDBRANCH   8   9
ENDBRANCH   1   8
BRANCH   4  22
HETATM   22  N   UNL     1      10.644   1.402   2.437  1.00  0.00    -0.363 N 
HETATM   23  C   UNL     1      11.433   1.955   1.327  1.00  0.00     0.150 C 
HETATM   24  C   UNL     1      12.051   0.831   0.479  1.00  0.00     0.188 C 
HETATM   25  O   UNL     1      12.816  -0.079   1.281  1.00  0.00    -0.383 OA
HETATM   26  C   UNL     1      11.973  -0.701   2.273  1.00  0.00     0.135 C 
HETATM   27  C   UNL     1      12.851  -1.665   3.062  1.00  0.00     0.041 C 
HETATM   28  C   UNL     1      11.344   0.357   3.205  1.00  0.00     0.155 C 
ENDBRANCH   4  22
TORSDOF 5
