REMARK  3 active torsions:
REMARK  status: ('A' for Active; 'I' for Inactive)
REMARK    1  A    between atoms: O_1  and  C_2 
REMARK    2  A    between atoms: C_5  and  N_8 
REMARK       I    between atoms: N_8  and  C_9 
REMARK       I    between atoms: C_9  and  N_11 
REMARK    3  A    between atoms: N_11  and  C_12 
ROOT
HETATM    1  N   UNL     1       4.477  -0.830  -2.943  1.00  0.00    -0.338 N 
HETATM    2  C   UNL     1       5.045  -0.402  -4.122  1.00  0.00     0.321 C 
HETATM    3  O   UNL     1       4.379   0.043  -5.048  1.00  0.00    -0.247 OA
HETATM    4  N   UNL     1       6.410  -0.594  -4.138  1.00  0.00    -0.306 N 
HETATM    5  H   UNL     1       5.046  -0.734  -2.114  1.00  0.00     0.164 HD
HETATM    6  H   UNL     1       6.818  -1.178  -3.423  1.00  0.00     0.171 HD
ENDROOT
BRANCH   1   7
HETATM    7  C   UNL     1       3.023  -0.795  -2.785  1.00  0.00     0.086 C 
HETATM    8  C   UNL     1       2.519   0.607  -2.417  1.00  0.00     0.028 C 
HETATM    9  C   UNL     1       2.869   0.992  -0.978  1.00  0.00     0.034 C 
HETATM   10  C   UNL     1       2.394  -0.057   0.026  1.00  0.00     0.118 C 
HETATM   11  C   UNL     1       2.900  -1.455  -0.328  1.00  0.00     0.034 C 
HETATM   12  C   UNL     1       2.563  -1.843  -1.769  1.00  0.00     0.028 C 
BRANCH  10  13
HETATM   13  O   UNL     1       0.969  -0.088   0.047  1.00  0.00    -0.396 OA
HETATM   14  H   UNL     1       0.656   0.803   0.278  1.00  0.00     0.210 HD
ENDBRANCH  10  13
ENDBRANCH   1   7
BRANCH   4  15
HETATM   15  C   UNL     1       7.183  -0.306  -5.247  1.00  0.00     0.070 A 
HETATM   16  C   UNL     1       6.883   0.429  -6.416  1.00  0.00     0.138 A 
HETATM   17  N   UNL     1       7.898   0.439  -7.288  1.00  0.00    -0.310 N 
HETATM   18  N   UNL     1       8.836  -0.306  -6.682  1.00  0.00    -0.310 N 
ATOM     19  HN  UNL     1       7.947   0.902  -8.196  1.00  0.00     0.186 HD
HETATM   20  C   UNL     1       8.476  -0.737  -5.438  1.00  0.00     0.138 A 
HETATM   21  H   UNL     1       9.697  -0.483  -7.186  1.00  0.00     0.186 HD
ENDBRANCH   4  15
TORSDOF 3
