REMARK  4 active torsions:
REMARK  status: ('A' for Active; 'I' for Inactive)
REMARK    1  A    between atoms: C_2  and  S_3 
REMARK    2  A    between atoms: S_3  and  C_4 
REMARK    3  A    between atoms: C_8  and  N_9 
REMARK       I    between atoms: N_9  and  C_10 
REMARK       I    between atoms: C_10  and  N_12 
REMARK    4  A    between atoms: N_12  and  C_13 
ROOT
HETATM    1  N   UNL     1       4.403  -0.068   1.332  1.00  0.00    -0.337 N 
HETATM    2  C   UNL     1       3.967   1.165   1.780  1.00  0.00     0.322 C 
HETATM    3  O   UNL     1       4.378   2.225   1.323  1.00  0.00    -0.247 OA
HETATM    4  N   UNL     1       2.963   1.016   2.710  1.00  0.00    -0.294 N 
HETATM    5  H   UNL     1       4.358  -0.826   1.999  1.00  0.00     0.164 HD
HETATM    6  H   UNL     1       2.391   0.192   2.617  1.00  0.00     0.172 HD
ENDROOT
BRANCH   1   7
HETATM    7  C   UNL     1       5.265  -0.218   0.163  1.00  0.00     0.100 C 
HETATM    8  C   UNL     1       4.887  -1.404  -0.751  1.00  0.00     0.070 C 
HETATM    9  C   UNL     1       5.489  -2.625  -0.044  1.00  0.00     0.017 C 
HETATM   10  C   UNL     1       6.703  -2.099   0.732  1.00  0.00     0.003 C 
HETATM   11  C   UNL     1       6.698  -0.581   0.560  1.00  0.00     0.026 C 
BRANCH   8  12
HETATM   12  S   UNL     1       3.119  -1.709  -1.118  1.00  0.00    -0.163 SA
BRANCH  12  13
HETATM   13  C   UNL     1       2.613  -0.114  -1.838  1.00  0.00     0.070 C 
HETATM   14  C   UNL     1       3.417   0.307  -3.055  1.00  0.00     0.016 C 
ENDBRANCH  12  13
ENDBRANCH   8  12
ENDBRANCH   1   7
BRANCH   4  15
HETATM   15  C   UNL     1       2.265   2.076   3.237  1.00  0.00     0.125 C 
HETATM   16  C   UNL     1       2.719   3.369   3.589  1.00  0.00     0.069 C 
HETATM   17  C   UNL     1       1.601   4.036   4.034  1.00  0.00     0.113 C 
HETATM   18  N   UNL     1       0.571   3.155   3.893  1.00  0.00    -0.306 N 
HETATM   19  C   UNL     1      -0.838   3.438   4.030  1.00  0.00     0.177 C 
HETATM   20  N   UNL     1       0.965   1.924   3.513  1.00  0.00    -0.284 N 
ATOM     21  HN  UNL     1       0.403   1.075   3.450  1.00  0.00     0.188 HD
ENDBRANCH   4  15
TORSDOF 4
