REMARK  6 active torsions:
REMARK  status: ('A' for Active; 'I' for Inactive)
REMARK    1  A    between atoms: C_2  and  C_3 
REMARK    2  A    between atoms: N_9  and  C_10 
REMARK    3  A    between atoms: C_10  and  C_11 
REMARK    4  A    between atoms: C_11  and  N_12 
REMARK    5  A    between atoms: N_12  and  C_13 
REMARK    6  A    between atoms: C_13  and  C_14 
ROOT
HETATM    1  C   UNL     1       6.692   1.829  -0.845  1.00  0.00     0.289 C 
ENDROOT
BRANCH   1   2
HETATM    2  C   UNL     1       5.344   1.142  -1.100  1.00  0.00     0.161 C 
BRANCH   2   3
HETATM    3  N   UNL     1       4.207   1.972  -0.763  1.00  0.00    -0.329 N 
HETATM    4  C   UNL     1       3.513   2.030   0.417  1.00  0.00     0.098 A 
HETATM    5  N   UNL     1       2.512   2.879   0.272  1.00  0.00    -0.288 N 
HETATM    6  N   UNL     1       2.542   3.368  -1.009  1.00  0.00    -0.295 N 
ATOM      7  HN  UNL     1       1.832   3.129   0.990  1.00  0.00     0.188 HD
HETATM    8  C   UNL     1       3.562   2.811  -1.617  1.00  0.00     0.201 A 
ATOM      9  HN  UNL     1       1.891   4.041  -1.414  1.00  0.00     0.187 HD
BRANCH   4  10
HETATM   10  C   UNL     1       3.829   1.259   1.648  1.00  0.00     0.073 C 
HETATM   11  C   UNL     1       3.102  -0.077   1.681  1.00  0.00     0.013 C 
ENDBRANCH   4  10
ENDBRANCH   2   3
ENDBRANCH   1   2
BRANCH   1  12
HETATM   12  N   UNL     1       7.806   0.932  -1.201  1.00  0.00     0.085 N 
HETATM   13  H   UNL     1       7.749   0.695  -2.192  1.00  0.00     0.315 HD
BRANCH  12  14
HETATM   14  C   UNL     1       9.098   1.567  -0.926  1.00  0.00     0.275 C 
BRANCH  14  15
HETATM   15  C   UNL     1      10.313   0.690  -1.315  1.00  0.00     0.022 C 
HETATM   16  C   UNL     1      11.637   1.489  -1.056  1.00  0.00     0.015 C 
HETATM   17  C   UNL     1      12.245   1.632  -2.472  1.00  0.00     0.009 C 
HETATM   18  C   UNL     1      11.008   1.681  -3.372  1.00  0.00     0.017 C 
HETATM   19  C   UNL     1      12.748   0.268  -2.867  1.00  0.00    -0.026 C 
HETATM   20  C   UNL     1      10.439   0.365  -2.830  1.00  0.00     0.014 C 
HETATM   21  C   UNL     1      11.667  -0.504  -3.059  1.00  0.00    -0.025 C 
ENDBRANCH  14  15
ENDBRANCH  12  14
ENDBRANCH   1  12
TORSDOF 6
