REMARK  4 active torsions:
REMARK  status: ('A' for Active; 'I' for Inactive)
REMARK    1  A    between atoms: O_1  and  C_2 
REMARK    2  A    between atoms: C_2  and  C_3 
REMARK    3  A    between atoms: C_3  and  N_4 
REMARK    4  A    between atoms: C_5  and  C_6 
ROOT
HETATM    1  N   UNL     1       4.304   1.362  -0.597  1.00  0.00    -0.332 N 
HETATM    2  C   UNL     1       5.098   2.494  -0.613  1.00  0.00     0.098 A 
HETATM    3  N   UNL     1       6.376   2.161  -0.649  1.00  0.00    -0.343 N 
ATOM      4  HN  UNL     1       7.173   2.797  -0.680  1.00  0.00     0.167 HD
HETATM    5  C   UNL     1       6.418   0.794  -0.637  1.00  0.00     0.062 A 
HETATM    6  C   UNL     1       7.535  -0.050  -0.619  1.00  0.00     0.055 A 
HETATM    7  C   UNL     1       7.318  -1.428  -0.592  1.00  0.00     0.036 A 
HETATM    8 CL   UNL     1       8.673  -2.492  -0.553  1.00  0.00    -0.084 Cl
HETATM    9  C   UNL     1       6.027  -1.960  -0.588  1.00  0.00     0.026 A 
HETATM   10  C   UNL     1       4.901  -1.124  -0.601  1.00  0.00     0.034 A 
HETATM   11  C   UNL     1       5.134   0.257  -0.619  1.00  0.00     0.062 A 
ENDROOT
BRANCH   1  12
HETATM   12  C   UNL     1       2.862   1.309  -0.452  1.00  0.00     0.156 C 
BRANCH  12  13
HETATM   13  C   UNL     1       2.106   1.201  -1.771  1.00  0.00     0.184 C 
BRANCH  13  14
HETATM   14  O   UNL     1       0.707   1.163  -1.503  1.00  0.00    -0.399 OA
HETATM   15  H   UNL     1       0.247   1.222  -2.360  1.00  0.00     0.209 HD
ENDBRANCH  13  14
ENDBRANCH  12  13
ENDBRANCH   1  12
BRANCH   2  16
HETATM   16  C   UNL     1       4.613   3.901  -0.510  1.00  0.00     0.191 C 
HETATM   17 CL   UNL     1       3.712   4.411  -1.949  1.00  0.00    -0.122 Cl
ENDBRANCH   2  16
TORSDOF 4
