REMARK  2 active torsions:
REMARK  status: ('A' for Active; 'I' for Inactive)
REMARK    1  A    between atoms: C_2  and  N_9 
REMARK       I    between atoms: N_9  and  C_10 
REMARK       I    between atoms: C_10  and  N_12 
REMARK    2  A    between atoms: N_12  and  C_13 
ROOT
HETATM    1  N   UNL     1       3.248   0.264   1.409  1.00  0.00    -0.339 N 
HETATM    2  C   UNL     1       3.065   1.390   2.186  1.00  0.00     0.300 C 
HETATM    3  O   UNL     1       2.527   2.408   1.774  1.00  0.00    -0.254 OA
HETATM    4  N   UNL     1       3.503   1.192   3.480  1.00  0.00    -0.189 NA
HETATM    5  H   UNL     1       4.090  -0.258   1.619  1.00  0.00     0.164 HD
HETATM    6  H   UNL     1       3.165   0.307   3.832  1.00  0.00     0.140 HD
ENDROOT
BRANCH   1   7
HETATM    7  C   UNL     1       2.669   0.119   0.063  1.00  0.00     0.030 C 
HETATM    8  C   UNL     1       1.126   0.075   0.210  1.00  0.00     0.038 C 
HETATM    9  C   UNL     1       3.022   1.286  -0.902  1.00  0.00     0.031 C 
HETATM   10  C   UNL     1       4.482   1.730  -0.922  1.00  0.00     0.002 C 
HETATM   11  C   UNL     1       5.495   0.824  -1.616  1.00  0.00     0.000 C 
HETATM   12  C   UNL     1       5.054  -0.572  -2.031  1.00  0.00     0.000 C 
HETATM   13  C   UNL     1       4.548  -1.451  -0.894  1.00  0.00     0.002 C 
HETATM   14  C   UNL     1       3.075  -1.246  -0.546  1.00  0.00     0.031 C 
ENDBRANCH   1   7
BRANCH   4  15
HETATM   15  C   UNL     1       3.241   2.225   4.354  1.00  0.00     0.147 C 
HETATM   16  N   UNL     1       2.464   2.152   5.408  1.00  0.00    -0.284 N 
HETATM   17  N   UNL     1       2.344   3.385   6.026  1.00  0.00    -0.304 N 
ATOM     18  HN  UNL     1       2.008   1.299   5.730  1.00  0.00     0.188 HD
HETATM   19  C   UNL     1       3.119   4.289   5.464  1.00  0.00     0.159 C 
ATOM     20  HN  UNL     1       1.730   3.570   6.819  1.00  0.00     0.186 HD
HETATM   21  S   UNL     1       4.061   3.712   4.152  1.00  0.00    -0.052 SA
ENDBRANCH   4  15
TORSDOF 2
