REMARK  7 active torsions:
REMARK  status: ('A' for Active; 'I' for Inactive)
REMARK    1  A    between atoms: C_2  and  N_3 
REMARK    2  A    between atoms: C_6  and  N_9 
REMARK       I    between atoms: N_9  and  C_10 
REMARK    3  A    between atoms: C_10  and  C_12 
REMARK    4  A    between atoms: C_12  and  N_13 
REMARK    5  A    between atoms: N_13  and  C_14 
REMARK    6  A    between atoms: C_14  and  C_16 
REMARK    7  A    between atoms: C_16  and  N_17 
ROOT
HETATM    1  N   UNL     1       1.693   3.758  -2.795  1.00  0.00    -0.355 N 
HETATM    2  C   UNL     1       2.018   5.097  -2.684  1.00  0.00     0.246 C 
HETATM    3  O   UNL     1       1.803   5.770  -1.681  1.00  0.00    -0.272 OA
HETATM    4  H   UNL     1       2.070   3.245  -3.581  1.00  0.00     0.162 HD
ENDROOT
BRANCH   2   5
HETATM    5  C   UNL     1       2.711   5.670  -3.926  1.00  0.00     0.372 C 
BRANCH   5   6
HETATM    6  N   UNL     1       4.068   6.163  -3.623  1.00  0.00     0.098 N 
HETATM    7  H   UNL     1       3.952   6.881  -2.896  1.00  0.00     0.317 HD
BRANCH   6   8
HETATM    8  C   UNL     1       4.999   5.143  -3.088  1.00  0.00     0.236 C 
HETATM    9  C   UNL     1       5.207   3.987  -4.076  1.00  0.00     0.044 C 
BRANCH   8  10
HETATM   10  C   UNL     1       6.384   5.761  -2.781  1.00  0.00     0.183 C 
BRANCH  10  11
HETATM   11  N   UNL     1       6.362   6.812  -1.782  1.00  0.00    -0.302 N 
HETATM   12  C   UNL     1       6.678   8.127  -1.974  1.00  0.00     0.111 A 
HETATM   13  C   UNL     1       6.560   8.730  -0.745  1.00  0.00     0.037 A 
HETATM   14  C   UNL     1       6.165   7.696   0.122  1.00  0.00     0.108 A 
HETATM   15  N   UNL     1       6.061   6.519  -0.502  1.00  0.00    -0.310 N 
ATOM     16  HN  UNL     1       5.813   5.613  -0.104  1.00  0.00     0.186 HD
ENDBRANCH  10  11
ENDBRANCH   8  10
ENDBRANCH   6   8
ENDBRANCH   5   6
ENDBRANCH   2   5
BRANCH   1  17
HETATM   17  C   UNL     1       1.164   2.990  -1.671  1.00  0.00     0.087 C 
HETATM   18  C   UNL     1       2.293   2.399  -0.820  1.00  0.00     0.055 C 
HETATM   19  C   UNL     1       2.957   1.198  -1.503  1.00  0.00     0.274 C 
HETATM   20  N   UNL     1       2.012   0.148  -1.920  1.00  0.00     0.088 N 
HETATM   21  C   UNL     1       0.965   0.711  -2.778  1.00  0.00     0.274 C 
HETATM   22  C   UNL     1       0.216   1.895  -2.164  1.00  0.00     0.055 C 
BRANCH  20  23
HETATM   23  C   UNL     1       1.527  -0.621  -0.763  1.00  0.00     0.268 C 
HETATM   24  C   UNL     1       0.583  -1.769  -1.109  1.00  0.00     0.037 C 
ENDBRANCH  20  23
ENDBRANCH   1  17
TORSDOF 7
