REMARK  5 active torsions:
REMARK  status: ('A' for Active; 'I' for Inactive)
REMARK    1  A    between atoms: C_2  and  O_3 
REMARK    2  A    between atoms: O_3  and  C_4 
REMARK    3  A    between atoms: C_8  and  N_9 
REMARK       I    between atoms: N_9  and  C_10 
REMARK       I    between atoms: C_10  and  N_12 
REMARK    4  A    between atoms: N_12  and  C_13 
REMARK    5  A    between atoms: C_13  and  C_14 
ROOT
HETATM    1  C   UNL     1       4.452   0.777  -1.401  1.00  0.00     0.143 A 
HETATM    2  C   UNL     1       5.067   2.013  -1.460  1.00  0.00     0.056 A 
HETATM    3  C   UNL     1       6.449   2.047  -1.619  1.00  0.00     0.008 A 
HETATM    4  C   UNL     1       7.160   0.851  -1.727  1.00  0.00     0.049 A 
HETATM    5  C   UNL     1       6.460  -0.347  -1.676  1.00  0.00     0.110 A 
HETATM    6  N   UNL     1       5.123  -0.387  -1.499  1.00  0.00    -0.323 N 
ATOM      7  HN  UNL     1       4.631  -1.279  -1.441  1.00  0.00     0.169 HD
ENDROOT
BRANCH   5   8
HETATM    8  N   UNL     1       7.166  -1.549  -1.835  1.00  0.00    -0.295 N 
HETATM    9  C   UNL     1       6.667  -2.825  -1.885  1.00  0.00     0.321 C 
HETATM   10  O   UNL     1       7.428  -3.769  -2.082  1.00  0.00    -0.247 OA
HETATM   11  N   UNL     1       5.329  -2.961  -1.712  1.00  0.00    -0.342 N 
HETATM   12  H   UNL     1       4.838  -2.097  -1.508  1.00  0.00     0.164 HD
HETATM   13  H   UNL     1       8.162  -1.509  -1.976  1.00  0.00     0.172 HD
BRANCH  11  14
HETATM   14  C   UNL     1       4.582  -4.189  -1.763  1.00  0.00     0.129 C 
BRANCH  14  15
HETATM   15  C   UNL     1       3.598  -4.129  -2.894  1.00  0.00     0.003 A 
HETATM   16  C   UNL     1       2.703  -5.311  -3.168  1.00  0.00     0.007 A 
HETATM   17  C   UNL     1       3.797  -4.958  -4.137  1.00  0.00     0.007 A 
ENDBRANCH  14  15
ENDBRANCH  11  14
ENDBRANCH   5   8
BRANCH   1  18
HETATM   18  O   UNL     1       3.078   0.751  -1.242  1.00  0.00    -0.336 OA
BRANCH  18  19
HETATM   19  C   UNL     1       2.570  -0.586  -1.177  1.00  0.00     0.173 C 
HETATM   20  C   UNL     1       1.060  -0.560  -1.054  1.00  0.00     0.034 C 
ENDBRANCH  18  19
ENDBRANCH   1  18
TORSDOF 5
