REMARK  2 active torsions:
REMARK  status: ('A' for Active; 'I' for Inactive)
REMARK    1  A    between atoms: C_7  and  N_8 
REMARK    2  A    between atoms: N_8  and  C_9 
ROOT
HETATM    1  C   UNL     1       1.223  -0.264   0.094  1.00  0.00     0.070 C 
HETATM    2  C   UNL     1       2.705  -0.066  -0.018  1.00  0.00     0.029 A 
HETATM    3  N   UNL     1       3.482  -1.092   0.382  1.00  0.00    -0.303 N 
ATOM      4  HN  UNL     1       3.050  -1.925   0.782  1.00  0.00     0.186 HD
HETATM    5  N   UNL     1       4.857  -1.030   0.257  1.00  0.00    -0.289 N 
ATOM      6  HN  UNL     1       5.422  -1.822   0.564  1.00  0.00     0.188 HD
HETATM    7  C   UNL     1       5.467   0.051  -0.260  1.00  0.00     0.117 A 
HETATM    8  C   UNL     1       4.675   1.137  -0.662  1.00  0.00     0.092 A 
HETATM    9  C   UNL     1       5.322   2.296  -1.200  1.00  0.00     0.103 C 
HETATM   10  N   UNL     1       5.845   3.253  -1.597  1.00  0.00    -0.191 NA
HETATM   11  C   UNL     1       3.270   1.098  -0.537  1.00  0.00    -0.014 A 
HETATM   12  C   UNL     1       2.381   2.233  -0.974  1.00  0.00     0.052 C 
ENDROOT
BRANCH   7  13
HETATM   13  N   UNL     1       6.863   0.054  -0.489  1.00  0.00    -0.269 NA
HETATM   14  H   UNL     1       7.257   0.933  -0.155  1.00  0.00     0.129 HD
BRANCH  13  15
HETATM   15  C   UNL     1       7.628  -1.081   0.034  1.00  0.00     0.093 C 
HETATM   16  C   UNL     1       9.135  -0.899  -0.246  1.00  0.00     0.054 C 
HETATM   17  C   UNL     1       9.544  -2.279  -0.776  1.00  0.00     0.123 C 
HETATM   18  C   UNL     1       9.149  -2.430  -2.238  1.00  0.00     0.034 C 
HETATM   19  O   UNL     1       8.576  -3.154  -0.157  1.00  0.00    -0.379 OA
HETATM   20  C   UNL     1       7.623  -2.448  -2.139  1.00  0.00     0.036 C 
HETATM   21  C   UNL     1       7.388  -2.450  -0.623  1.00  0.00     0.140 C 
ENDBRANCH  13  15
ENDBRANCH   7  13
TORSDOF 2
