REMARK  7 active torsions:
REMARK  status: ('A' for Active; 'I' for Inactive)
REMARK    1  A    between atoms: C_2  and  N_3 
REMARK    2  A    between atoms: C_2  and  C_15 
REMARK    3  A    between atoms: N_3  and  C_4 
REMARK    4  A    between atoms: C_4  and  C_6 
REMARK       I    between atoms: C_6  and  N_8 
REMARK    5  A    between atoms: N_8  and  C_9 
REMARK    6  A    between atoms: C_9  and  C_10 
REMARK    7  A    between atoms: C_15  and  N_17 
ROOT
HETATM    1  N   UNL     1       2.664  -0.887  -1.174  1.00  0.00     0.103 N 
HETATM    2  H   UNL     1       3.676  -0.736  -1.176  1.00  0.00     0.317 HD
ENDROOT
BRANCH   1   3
HETATM    3  C   UNL     1       2.065   0.041  -0.181  1.00  0.00     0.241 C 
HETATM    4  C   UNL     1       2.631  -0.228   1.221  1.00  0.00     0.045 C 
BRANCH   3   5
HETATM    5  C   UNL     1       0.508   0.193  -0.215  1.00  0.00     0.136 C 
HETATM    6  C   UNL     1      -0.024   1.292   0.714  1.00  0.00     0.036 C 
BRANCH   5   7
HETATM    7  N   UNL     1      -0.035   0.402  -1.558  1.00  0.00    -0.297 N 
HETATM    8  C   UNL     1       0.503   1.117  -2.598  1.00  0.00     0.112 A 
HETATM    9  C   UNL     1      -0.377   0.996  -3.647  1.00  0.00     0.037 A 
HETATM   10  C   UNL     1      -1.441   0.237  -3.134  1.00  0.00     0.108 A 
HETATM   11  N   UNL     1      -1.255  -0.102  -1.857  1.00  0.00    -0.310 N 
ATOM     12  HN  UNL     1      -1.886  -0.621  -1.247  1.00  0.00     0.186 HD
ENDBRANCH   5   7
ENDBRANCH   3   5
ENDBRANCH   1   3
BRANCH   1  13
HETATM   13  C   UNL     1       2.454  -2.350  -0.990  1.00  0.00     0.308 C 
HETATM   14  C   UNL     1       1.011  -2.834  -1.102  1.00  0.00     0.053 C 
BRANCH  13  15
HETATM   15  C   UNL     1       3.252  -3.106  -2.075  1.00  0.00     0.250 C 
HETATM   16  O   UNL     1       3.792  -4.190  -1.857  1.00  0.00    -0.271 OA
HETATM   17  N   UNL     1       3.246  -2.503  -3.313  1.00  0.00    -0.357 N 
HETATM   18  H   UNL     1       2.858  -1.564  -3.368  1.00  0.00     0.162 HD
BRANCH  17  19
HETATM   19  C   UNL     1       3.882  -3.077  -4.483  1.00  0.00     0.154 C 
BRANCH  19  20
HETATM   20  C   UNL     1       5.135  -2.319  -4.924  1.00  0.00     0.139 C 
HETATM   21  C   UNL     1       6.255  -2.236  -3.898  1.00  0.00     0.035 C 
HETATM   22  C   UNL     1       6.917  -0.900  -4.175  1.00  0.00     0.029 C 
HETATM   23  C   UNL     1       6.064  -0.251  -5.247  1.00  0.00     0.168 C 
HETATM   24  O   UNL     1       4.818  -0.953  -5.248  1.00  0.00    -0.384 OA
ENDBRANCH  19  20
ENDBRANCH  17  19
ENDBRANCH  13  15
ENDBRANCH   1  13
TORSDOF 7
