REMARK  8 active torsions:
REMARK  status: ('A' for Active; 'I' for Inactive)
REMARK    1  A    between atoms: N_2  and  C_13 
REMARK    2  A    between atoms: C_4  and  N_8 
REMARK    3  A    between atoms: N_8  and  C_14 
REMARK    4  A    between atoms: C_13  and  C_15 
REMARK    5  A    between atoms: C_14  and  C_18 
REMARK    6  A    between atoms: C_15  and  C_19 
REMARK    7  A    between atoms: C_15  and  O_22 
REMARK    8  A    between atoms: N_16  and  C_18 
ROOT
HETATM    1  C   UNL     1       0.420  -0.601  -0.085  1.00  0.00     0.122 A 
HETATM    2  N   UNL     1       1.485   1.302  -0.329  1.00  0.00    -0.325 N 
HETATM    3  C   UNL     1       0.222   0.764  -0.258  1.00  0.00     0.140 A 
HETATM    4  C   UNL     1      -0.725  -1.436   0.055  1.00  0.00     0.135 A 
HETATM    5  N   UNL     1       1.772  -0.895  -0.122  1.00  0.00    -0.346 N 
ATOM      6  HN  UNL     1       2.207  -1.815  -0.055  1.00  0.00     0.167 HD
HETATM    7  C   UNL     1       2.376   0.261  -0.262  1.00  0.00     0.185 A 
HETATM    8  N   UNL     1      -1.937  -0.812  -0.018  1.00  0.00    -0.337 N 
ATOM      9  HN  UNL     1      -2.800  -1.348   0.074  1.00  0.00     0.168 HD
HETATM   10  N   UNL     1      -0.955   1.402  -0.332  1.00  0.00    -0.336 N 
ATOM     11  HN  UNL     1      -1.062   2.408  -0.459  1.00  0.00     0.168 HD
HETATM   12  C   UNL     1      -1.979   0.529  -0.215  1.00  0.00     0.183 A 
ENDROOT
BRANCH   4  13
HETATM   13  N   UNL     1      -0.617  -2.835   0.141  1.00  0.00    -0.364 N 
HETATM   14  C   UNL     1       0.206  -3.243   1.282  1.00  0.00     0.152 C 
BRANCH  13  15
HETATM   15  C   UNL     1      -1.784  -3.686  -0.208  1.00  0.00     0.109 C 
HETATM   16  C   UNL     1      -1.419  -5.186  -0.167  1.00  0.00     0.034 C 
BRANCH  15  17
HETATM   17  C   UNL     1      -2.403  -3.402  -1.628  1.00  0.00     0.297 C 
BRANCH  17  18
HETATM   18  N   UNL     1      -1.564  -3.664  -2.828  1.00  0.00     0.094 N 
HETATM   19  C   UNL     1      -0.448  -2.703  -2.992  1.00  0.00     0.298 C 
HETATM   20  C   UNL     1      -0.903  -1.287  -3.389  1.00  0.00     0.198 C 
HETATM   21  O   UNL     1      -1.656  -1.308  -4.609  1.00  0.00    -0.388 OA
HETATM   22  C   UNL     1      -2.791  -2.174  -4.472  1.00  0.00     0.198 C 
HETATM   23  C   UNL     1      -2.368  -3.598  -4.070  1.00  0.00     0.298 C 
ENDBRANCH  17  18
ENDBRANCH  15  17
ENDBRANCH  13  15
ENDBRANCH   4  13
BRANCH   2  24
HETATM   24  C   UNL     1       1.845   2.709  -0.222  1.00  0.00     0.165 C 
BRANCH  24  25
HETATM   25  C   UNL     1       2.636   3.294  -1.409  1.00  0.00     0.165 C 
BRANCH  25  26
HETATM   26  C   UNL     1       3.065   4.763  -1.196  1.00  0.00     0.151 C 
HETATM   27  O   UNL     1       3.911   4.859  -0.026  1.00  0.00    -0.383 OA
HETATM   28  C   UNL     1       3.772   6.186   0.515  1.00  0.00     0.168 C 
HETATM   29  C   UNL     1       2.767   6.926  -0.350  1.00  0.00     0.029 C 
HETATM   30  C   UNL     1       1.980   5.799  -0.987  1.00  0.00     0.036 C 
ENDBRANCH  25  26
BRANCH  25  31
HETATM   31  O   UNL     1       3.852   2.546  -1.607  1.00  0.00    -0.391 OA
HETATM   32  H   UNL     1       4.535   2.974  -1.051  1.00  0.00     0.210 HD
ENDBRANCH  25  31
ENDBRANCH  24  25
ENDBRANCH   2  24
TORSDOF 8
