REMARK  3 active torsions:
REMARK  status: ('A' for Active; 'I' for Inactive)
REMARK    1  A    between atoms: C_4  and  N_5 
REMARK       I    between atoms: N_5  and  C_6 
REMARK       I    between atoms: C_6  and  N_8 
REMARK    2  A    between atoms: N_8  and  C_9 
REMARK    3  A    between atoms: C_9  and  C_10 
ROOT
HETATM    1  N   UNL     1       5.704   1.674   0.039  1.00  0.00    -0.293 N 
HETATM    2  C   UNL     1       5.612   3.092  -0.008  1.00  0.00     0.321 C 
HETATM    3  O   UNL     1       4.552   3.690  -0.007  1.00  0.00    -0.247 OA
HETATM    4  N   UNL     1       6.846   3.672  -0.043  1.00  0.00    -0.342 N 
HETATM    5  H   UNL     1       6.613   1.246   0.008  1.00  0.00     0.172 HD
HETATM    6  H   UNL     1       7.694   3.135   0.048  1.00  0.00     0.164 HD
ENDROOT
BRANCH   1   7
HETATM    7  C   UNL     1       4.581   0.847   0.108  1.00  0.00     0.127 A 
HETATM    8  C   UNL     1       3.256   1.226   0.166  1.00  0.00     0.076 A 
HETATM    9  C   UNL     1       2.509   0.031   0.208  1.00  0.00     0.025 A 
HETATM   10  C   UNL     1       1.033  -0.107   0.264  1.00  0.00     0.070 C 
HETATM   11  N   UNL     1       3.305  -1.042   0.193  1.00  0.00    -0.302 N 
HETATM   12  N   UNL     1       4.549  -0.530   0.136  1.00  0.00    -0.281 N 
ATOM     13  HN  UNL     1       3.033  -2.025   0.219  1.00  0.00     0.186 HD
HETATM   14  C   UNL     1       5.654  -1.459   0.105  1.00  0.00     0.179 C 
ENDBRANCH   1   7
BRANCH   4  15
HETATM   15  C   UNL     1       6.910   5.122  -0.014  1.00  0.00     0.131 C 
BRANCH  15  16
HETATM   16  C   UNL     1       8.324   5.676  -0.049  1.00  0.00     0.029 C 
HETATM   17  C   UNL     1       9.180   5.283   1.141  1.00  0.00     0.034 C 
HETATM   18  C   UNL     1      10.082   6.483   1.371  1.00  0.00     0.168 C 
HETATM   19  O   UNL     1       9.649   7.525   0.491  1.00  0.00    -0.391 OA
HETATM   20  C   UNL     1       8.341   7.192   0.026  1.00  0.00     0.173 C 
ENDBRANCH  15  16
ENDBRANCH   4  15
TORSDOF 3
