REMARK  2 active torsions:
REMARK  status: ('A' for Active; 'I' for Inactive)
REMARK       I    between atoms: N_1  and  C_2 
REMARK    1  A    between atoms: C_2  and  C_4 
REMARK    2  A    between atoms: C_8  and  N_9 
ROOT
HETATM    1  C   UNL     1       3.115   1.156  -0.673  1.00  0.00     0.049 A 
HETATM    2  C   UNL     1       4.241   1.105  -1.483  1.00  0.00     0.106 A 
HETATM    3  N   UNL     1       4.777   2.187  -2.112  1.00  0.00    -0.350 N 
ATOM      4  HN  UNL     1       5.612   2.095  -2.691  1.00  0.00     0.166 HD
HETATM    5  C   UNL     1       4.172   3.390  -1.949  1.00  0.00     0.125 A 
HETATM    6  C   UNL     1       3.008   3.500  -1.161  1.00  0.00     0.079 A 
HETATM    7 CL   UNL     1       2.014   4.923  -1.130  1.00  0.00    -0.080 Cl
HETATM    8  C   UNL     1       2.510   2.390  -0.482  1.00  0.00     0.046 A 
ENDROOT
BRANCH   5   9
HETATM    9  N   UNL     1       4.637   4.455  -2.682  1.00  0.00    -0.357 N 
HETATM   10  C   UNL     1       5.140   4.198  -4.046  1.00  0.00     0.151 C 
HETATM   11  C   UNL     1       4.903   5.478  -4.901  1.00  0.00     0.188 C 
HETATM   12  O   UNL     1       5.365   6.705  -4.275  1.00  0.00    -0.382 OA
HETATM   13  C   UNL     1       4.834   6.801  -2.946  1.00  0.00     0.144 C 
HETATM   14  C   UNL     1       5.317   8.002  -2.164  1.00  0.00     0.034 C 
HETATM   15  C   UNL     1       5.341   5.612  -2.116  1.00  0.00     0.115 C 
HETATM   16  C   UNL     1       5.136   7.580  -0.705  1.00  0.00     0.005 C 
HETATM   17  C   UNL     1       5.195   6.043  -0.668  1.00  0.00     0.028 C 
ENDBRANCH   5   9
BRANCH   1  18
HETATM   18  C   UNL     1       2.577  -0.086  -0.083  1.00  0.00     0.250 C 
HETATM   19  N   UNL     1       1.255  -0.097   0.272  1.00  0.00    -0.366 N 
HETATM   20  H   UNL     1       0.879  -0.987   0.573  1.00  0.00     0.159 HD
HETATM   21  H   UNL     1       0.591   0.601  -0.036  1.00  0.00     0.159 HD
HETATM   22  O   UNL     1       3.275  -1.082   0.048  1.00  0.00    -0.268 OA
ENDBRANCH   1  18
TORSDOF 2
