REMARK  3 active torsions:
REMARK  status: ('A' for Active; 'I' for Inactive)
REMARK    1  A    between atoms: O_1  and  C_2 
REMARK    2  A    between atoms: C_2  and  C_3 
REMARK    3  A    between atoms: C_6  and  N_10 
ROOT
HETATM    1  C   UNL     1       2.909  -1.532   0.319  1.00  0.00    -0.019 A 
HETATM    2  C   UNL     1       4.248  -1.775   0.604  1.00  0.00     0.014 A 
HETATM    3  C   UNL     1       4.706  -3.087   0.702  1.00  0.00     0.043 A 
HETATM    4  C   UNL     1       3.844  -4.159   0.472  1.00  0.00     0.082 A 
HETATM    5  N   UNL     1       2.538  -3.931   0.218  1.00  0.00    -0.356 N 
ATOM      6  HN  UNL     1       1.891  -4.708   0.081  1.00  0.00     0.166 HD
HETATM    7  C   UNL     1       2.103  -2.647   0.148  1.00  0.00     0.098 A 
ENDROOT
BRANCH   4   8
HETATM    8  N   UNL     1       4.310  -5.476   0.564  1.00  0.00    -0.265 NA
HETATM    9  C   UNL     1       3.283  -6.514   0.334  1.00  0.00     0.123 C 
HETATM   10  C   UNL     1       3.860  -7.884   0.728  1.00  0.00     0.182 C 
HETATM   11  O   UNL     1       5.069  -8.184   0.007  1.00  0.00    -0.389 OA
HETATM   12  C   UNL     1       6.057  -7.169   0.251  1.00  0.00     0.182 C 
HETATM   13  C   UNL     1       5.555  -5.779  -0.171  1.00  0.00     0.123 C 
ENDBRANCH   4   8
BRANCH   1  14
HETATM   14  C   UNL     1       2.359  -0.151   0.124  1.00  0.00     0.204 C 
BRANCH  14  15
HETATM   15  O   UNL     1       3.135   0.817   0.819  1.00  0.00    -0.396 OA
HETATM   16  H   UNL     1       2.759   1.686   0.604  1.00  0.00     0.209 HD
ENDBRANCH  14  15
ENDBRANCH   1  14
TORSDOF 3
