REMARK  6 active torsions:
REMARK  status: ('A' for Active; 'I' for Inactive)
REMARK    1  A    between atoms: C_2  and  O_3 
REMARK    2  A    between atoms: C_2  and  C_7 
REMARK    3  A    between atoms: O_3  and  C_4 
REMARK    4  A    between atoms: C_4  and  C_5 
REMARK       I    between atoms: C_7  and  N_9 
REMARK    5  A    between atoms: N_9  and  C_10 
REMARK    6  A    between atoms: C_12  and  C_17 
ROOT
HETATM    1  C   UNL     1       4.774   2.620  -1.509  1.00  0.00     0.104 A 
HETATM    2  C   UNL     1       4.239   3.847  -1.389  1.00  0.00     0.052 A 
HETATM    3  C   UNL     1       4.657   4.965  -2.209  1.00  0.00     0.065 A 
HETATM    4  C   UNL     1       5.666   4.775  -3.075  1.00  0.00     0.107 A 
HETATM    5  N   UNL     1       6.305   3.558  -3.165  1.00  0.00    -0.331 N 
HETATM    6  C   UNL     1       5.953   2.446  -2.430  1.00  0.00     0.272 A 
HETATM    7  O   UNL     1       6.519   1.359  -2.522  1.00  0.00    -0.266 OA
HETATM    8  H   UNL     1       7.064   3.430  -3.825  1.00  0.00     0.168 HD
ENDROOT
BRANCH   1   9
HETATM    9  N   UNL     1       4.286   1.505  -0.868  1.00  0.00    -0.320 N 
HETATM   10  C   UNL     1       2.938   1.342  -0.576  1.00  0.00     0.251 C 
HETATM   11  O   UNL     1       2.068   2.162  -0.869  1.00  0.00    -0.270 OA
HETATM   12  H   UNL     1       4.878   0.682  -0.940  1.00  0.00     0.169 HD
BRANCH  10  13
HETATM   13  C   UNL     1       2.586   0.012   0.118  1.00  0.00     0.209 C 
HETATM   14  C   UNL     1       1.342   0.275   0.972  1.00  0.00     0.050 C 
BRANCH  13  15
HETATM   15  O   UNL     1       2.289  -1.066  -0.768  1.00  0.00    -0.373 OA
BRANCH  15  16
HETATM   16  C   UNL     1       3.393  -1.451  -1.580  1.00  0.00     0.195 C 
BRANCH  16  17
HETATM   17  C   UNL     1       2.984  -2.574  -2.474  1.00  0.00    -0.011 C 
HETATM   18  C   UNL     1       3.076  -2.521  -3.810  1.00  0.00     0.009 C 
ENDBRANCH  16  17
ENDBRANCH  15  16
ENDBRANCH  13  15
ENDBRANCH  10  13
ENDBRANCH   1   9
BRANCH   3  19
HETATM   19  C   UNL     1       3.881   6.246  -2.092  1.00  0.00     0.418 C 
HETATM   20  F   UNL     1       2.884   6.194  -1.169  1.00  0.00    -0.166 F 
HETATM   21  F   UNL     1       4.686   7.282  -1.736  1.00  0.00    -0.166 F 
HETATM   22  F   UNL     1       3.303   6.588  -3.273  1.00  0.00    -0.166 F 
ENDBRANCH   3  19
TORSDOF 6
