REMARK  1 active torsions:
REMARK  status: ('A' for Active; 'I' for Inactive)
REMARK    1  A    between atoms: C_7  and  C_8 
ROOT
HETATM    1  C   UNL     1       0.950   0.086  -0.224  1.00  0.00     0.156 C 
HETATM    2  N   UNL     1       2.385  -0.002  -0.104  1.00  0.00    -0.349 N 
HETATM    3  C   UNL     1       3.244   1.060  -0.080  1.00  0.00     0.108 A 
HETATM    4  C   UNL     1       4.494   0.506   0.049  1.00  0.00     0.106 A 
HETATM    5  N   UNL     1       4.412  -0.860   0.109  1.00  0.00    -0.354 N 
ATOM      6  HN  UNL     1       5.187  -1.517   0.203  1.00  0.00     0.166 HD
HETATM    7  C   UNL     1       3.129  -1.155   0.021  1.00  0.00     0.088 A 
ENDROOT
BRANCH   7   8
HETATM    8  C   UNL     1       2.528  -2.519   0.086  1.00  0.00     0.083 C 
HETATM    9  C   UNL     1       2.167  -2.935   1.506  1.00  0.00     0.044 C 
HETATM   10  C   UNL     1       2.278  -4.457   1.502  1.00  0.00     0.270 C 
HETATM   11  N   UNL     1       2.802  -4.853   0.187  1.00  0.00     0.084 N 
HETATM   12  C   UNL     1       3.461  -3.643  -0.343  1.00  0.00     0.281 C 
HETATM   13  H   UNL     1       2.017  -5.086  -0.422  1.00  0.00     0.315 HD
ENDBRANCH   7   8
TORSDOF 1
