REMARK  6 active torsions:
REMARK  status: ('A' for Active; 'I' for Inactive)
REMARK    1  A    between atoms: C_2  and  O_3 
REMARK    2  A    between atoms: C_2  and  C_10 
REMARK    3  A    between atoms: O_3  and  C_4 
REMARK    4  A    between atoms: C_4  and  C_5 
REMARK       I    between atoms: C_10  and  N_12 
REMARK    5  A    between atoms: N_12  and  C_13 
REMARK    6  A    between atoms: C_17  and  C_20 
ROOT
HETATM    1  C   UNL     1       2.859  -0.910   1.368  1.00  0.00     0.251 C 
HETATM    2  O   UNL     1       3.597  -0.407   2.216  1.00  0.00    -0.270 OA
HETATM    3  N   UNL     1       2.303  -2.168   1.504  1.00  0.00    -0.311 N 
HETATM    4  H   UNL     1       2.089  -2.712   0.679  1.00  0.00     0.170 HD
ENDROOT
BRANCH   3   5
HETATM    5  C   UNL     1       2.462  -2.934   2.664  1.00  0.00     0.108 A 
HETATM    6  C   UNL     1       2.547  -2.345   3.923  1.00  0.00     0.049 A 
HETATM    7  C   UNL     1       2.807  -3.150   5.022  1.00  0.00     0.006 A 
HETATM    8  C   UNL     1       2.997  -4.511   4.830  1.00  0.00     0.034 A 
HETATM    9  C   UNL     1       2.874  -5.037   3.542  1.00  0.00     0.118 A 
HETATM   10  N   UNL     1       2.558  -4.258   2.465  1.00  0.00    -0.339 N 
ATOM     11  HN  UNL     1       2.401  -4.667   1.544  1.00  0.00     0.167 HD
BRANCH   9  12
HETATM   12  C   UNL     1       3.187  -6.510   3.304  1.00  0.00     0.432 C 
HETATM   13  F   UNL     1       3.456  -7.198   4.451  1.00  0.00    -0.165 F 
HETATM   14  F   UNL     1       2.169  -7.184   2.700  1.00  0.00    -0.165 F 
HETATM   15  F   UNL     1       4.282  -6.687   2.508  1.00  0.00    -0.165 F 
ENDBRANCH   9  12
ENDBRANCH   3   5
BRANCH   1  16
HETATM   16  C   UNL     1       2.533  -0.188   0.043  1.00  0.00     0.209 C 
HETATM   17  C   UNL     1       1.016  -0.075  -0.102  1.00  0.00     0.050 C 
BRANCH  16  18
HETATM   18  O   UNL     1       3.043   1.147  -0.025  1.00  0.00    -0.374 OA
BRANCH  18  19
HETATM   19  C   UNL     1       4.469   1.212  -0.109  1.00  0.00     0.200 C 
BRANCH  19  20
HETATM   20  C   UNL     1       4.927   2.666   0.009  1.00  0.00     0.145 C 
HETATM   21  C   UNL     1       4.474   3.544  -1.145  1.00  0.00     0.036 C 
HETATM   22  C   UNL     1       5.587   4.568  -1.287  1.00  0.00     0.029 C 
HETATM   23  C   UNL     1       6.681   4.087  -0.363  1.00  0.00     0.168 C 
HETATM   24  O   UNL     1       6.360   2.739  -0.007  1.00  0.00    -0.384 OA
ENDBRANCH  19  20
ENDBRANCH  18  19
ENDBRANCH  16  18
ENDBRANCH   1  16
TORSDOF 6
