REMARK  3 active torsions:
REMARK  status: ('A' for Active; 'I' for Inactive)
REMARK    1  A    between atoms: C_5  and  N_8 
REMARK       I    between atoms: N_8  and  C_9 
REMARK    2  A    between atoms: C_9  and  C_11 
REMARK    3  A    between atoms: C_11  and  N_12 
ROOT
HETATM    1  N   UNL     1       4.571  -0.664  -2.956  1.00  0.00    -0.355 N 
HETATM    2  C   UNL     1       5.245  -0.285  -4.085  1.00  0.00     0.236 C 
HETATM    3  O   UNL     1       6.478  -0.249  -4.059  1.00  0.00    -0.272 OA
HETATM    4  H   UNL     1       5.178  -0.786  -2.152  1.00  0.00     0.162 HD
ENDROOT
BRANCH   2   5
HETATM    5  C   UNL     1       4.465  -0.006  -5.373  1.00  0.00     0.235 C 
BRANCH   5   6
HETATM    6  N   UNL     1       4.176  -1.225  -6.135  1.00  0.00    -0.301 N 
HETATM    7  C   UNL     1       5.228  -1.977  -6.620  1.00  0.00     0.102 C 
HETATM    8  C   UNL     1       5.035  -3.037  -7.405  1.00  0.00     0.092 C 
HETATM    9  C   UNL     1       3.660  -3.402  -7.774  1.00  0.00     0.250 C 
HETATM   10  O   UNL     1       3.437  -4.280  -8.597  1.00  0.00    -0.268 OA
HETATM   11  N   UNL     1       2.673  -2.691  -7.157  1.00  0.00    -0.275 N 
HETATM   12  C   UNL     1       2.854  -1.561  -6.403  1.00  0.00     0.329 C 
HETATM   13  H   UNL     1       1.724  -2.914  -7.411  1.00  0.00     0.173 HD
HETATM   14  O   UNL     1       1.881  -0.910  -6.028  1.00  0.00    -0.246 OA
ENDBRANCH   5   6
ENDBRANCH   2   5
BRANCH   1  15
HETATM   15  C   UNL     1       3.129  -0.645  -2.752  1.00  0.00     0.084 C 
HETATM   16  C   UNL     1       2.648   0.763  -2.386  1.00  0.00     0.025 C 
HETATM   17  C   UNL     1       2.984   1.142  -0.944  1.00  0.00     0.006 C 
HETATM   18  C   UNL     1       2.490   0.103   0.070  1.00  0.00    -0.019 C 
HETATM   19  C   UNL     1       0.963   0.118   0.190  1.00  0.00     0.010 C 
HETATM   20  C   UNL     1       3.017  -1.293  -0.286  1.00  0.00     0.006 C 
HETATM   21  C   UNL     1       2.705  -1.698  -1.725  1.00  0.00     0.025 C 
ENDBRANCH   1  15
TORSDOF 3
