REMARK  7 active torsions:
REMARK  status: ('A' for Active; 'I' for Inactive)
REMARK    1  A    between atoms: N_2  and  C_14 
REMARK    2  A    between atoms: N_4  and  C_7 
REMARK    3  A    between atoms: C_11  and  C_21 
REMARK    4  A    between atoms: C_11  and  O_24 
REMARK    5  A    between atoms: C_14  and  C_18 
REMARK    6  A    between atoms: C_18  and  C_22 
REMARK    7  A    between atoms: C_18  and  O_25 
ROOT
HETATM    1  N   UNL     1       1.816  -7.220   1.557  1.00  0.00    -0.197 NA
HETATM    2  C   UNL     1       0.789  -6.681   1.612  1.00  0.00     0.062 C 
HETATM    3  C   UNL     1      -0.498  -5.965   1.666  1.00  0.00     0.165 C 
ENDROOT
BRANCH   3   4
HETATM    4  C   UNL     1      -0.646  -5.020   0.481  1.00  0.00     0.102 C 
HETATM    5  C   UNL     1       0.377  -3.845   0.408  1.00  0.00     0.165 C 
HETATM    6  N   UNL     1      -0.728  -3.002   0.092  1.00  0.00    -0.359 N 
HETATM    7  C   UNL     1      -1.698  -3.880   0.659  1.00  0.00     0.165 C 
BRANCH   6   8
HETATM    8  C   UNL     1      -0.760  -1.613  -0.063  1.00  0.00     0.135 A 
HETATM    9  C   UNL     1       0.413  -0.837  -0.189  1.00  0.00     0.122 A 
HETATM   10  C   UNL     1       0.262   0.537  -0.320  1.00  0.00     0.140 A 
HETATM   11  N   UNL     1       1.749  -1.181  -0.166  1.00  0.00    -0.346 N 
HETATM   12  N   UNL     1       1.541   1.032  -0.330  1.00  0.00    -0.325 N 
HETATM   13  N   UNL     1      -0.894   1.221  -0.371  1.00  0.00    -0.336 N 
HETATM   14  C   UNL     1       2.394  -0.039  -0.247  1.00  0.00     0.185 A 
HETATM   15  C   UNL     1      -1.950   0.386  -0.268  1.00  0.00     0.183 A 
ATOM     16  HN  UNL     1      -0.964   2.233  -0.474  1.00  0.00     0.168 HD
HETATM   17  N   UNL     1      -1.953  -0.955  -0.104  1.00  0.00    -0.337 N 
ATOM     18  HN  UNL     1      -2.831  -1.465  -0.013  1.00  0.00     0.168 HD
ATOM     19  HN  UNL     1       2.149  -2.117  -0.100  1.00  0.00     0.167 HD
BRANCH  12  20
HETATM   20  C   UNL     1       1.938   2.425  -0.205  1.00  0.00     0.165 C 
BRANCH  20  21
HETATM   21  C   UNL     1       2.747   2.975  -1.391  1.00  0.00     0.165 C 
BRANCH  21  22
HETATM   22  C   UNL     1       3.204   4.433  -1.200  1.00  0.00     0.151 C 
HETATM   23  O   UNL     1       4.023   4.539  -0.014  1.00  0.00    -0.383 OA
HETATM   24  C   UNL     1       3.893   5.879   0.495  1.00  0.00     0.168 C 
HETATM   25  C   UNL     1       2.930   6.616  -0.417  1.00  0.00     0.029 C 
HETATM   26  C   UNL     1       2.134   5.492  -1.042  1.00  0.00     0.036 C 
ENDBRANCH  21  22
BRANCH  21  27
HETATM   27  O   UNL     1       3.943   2.192  -1.571  1.00  0.00    -0.391 OA
HETATM   28  H   UNL     1       4.640   2.617  -1.030  1.00  0.00     0.210 HD
ENDBRANCH  21  27
ENDBRANCH  20  21
ENDBRANCH  12  20
ENDBRANCH   6   8
BRANCH   4  29
HETATM   29  O   UNL     1      -0.816  -5.801  -0.739  1.00  0.00    -0.386 OA
HETATM   30  H   UNL     1       0.078  -5.897  -1.114  1.00  0.00     0.210 HD
ENDBRANCH   4  29
ENDBRANCH   3   4
TORSDOF 7
