REMARK  3 active torsions:
REMARK  status: ('A' for Active; 'I' for Inactive)
REMARK    1  A    between atoms: C_9  and  C_10 
REMARK    2  A    between atoms: C_10  and  C_11 
REMARK    3  A    between atoms: C_11  and  N_12 
REMARK       I    between atoms: N_12  and  C_13 
REMARK       I    between atoms: C_13  and  N_15 
ROOT
HETATM    1  C   UNL     1       3.235   2.687  -0.041  1.00  0.00     0.062 C 
ENDROOT
BRANCH   1   2
HETATM    2  C   UNL     1       3.491   1.209  -0.025  1.00  0.00    -0.009 A 
HETATM    3  C   UNL     1       3.649   0.342  -1.144  1.00  0.00     0.030 A 
HETATM    4  C   UNL     1       3.603   0.672  -2.590  1.00  0.00     0.070 C 
HETATM    5  N   UNL     1       3.880  -0.919  -0.768  1.00  0.00    -0.303 N 
HETATM    6  N   UNL     1       3.881  -0.875   0.572  1.00  0.00    -0.300 N 
ATOM      7  HN  UNL     1       4.023  -1.733  -1.366  1.00  0.00     0.186 HD
HETATM    8  C   UNL     1       4.129  -2.094   1.307  1.00  0.00     0.177 C 
HETATM    9  C   UNL     1       3.657   0.383   1.075  1.00  0.00     0.032 A 
HETATM   10  C   UNL     1       3.629   0.695   2.528  1.00  0.00     0.070 C 
ENDBRANCH   1   2
BRANCH   1  11
HETATM   11  C   UNL     1       1.746   3.045  -0.058  1.00  0.00     0.129 C 
BRANCH  11  12
HETATM   12  N   UNL     1       1.515   4.479  -0.141  1.00  0.00    -0.343 N 
HETATM   13  C   UNL     1       0.264   5.015   0.038  1.00  0.00     0.318 C 
HETATM   14  O   UNL     1      -0.711   4.347   0.365  1.00  0.00    -0.247 OA
HETATM   15  N   UNL     1       0.212   6.374  -0.142  1.00  0.00    -0.334 N 
HETATM   16  C   UNL     1      -1.009   7.181  -0.156  1.00  0.00     0.129 C 
HETATM   17  C   UNL     1       0.820   7.169  -1.206  1.00  0.00     0.129 C 
HETATM   18  C   UNL     1      -0.129   8.288  -0.751  1.00  0.00     0.040 C 
HETATM   19  H   UNL     1       2.246   5.097  -0.457  1.00  0.00     0.164 HD
ENDBRANCH  11  12
ENDBRANCH   1  11
TORSDOF 3
