REMARK  3 active torsions:
REMARK  status: ('A' for Active; 'I' for Inactive)
REMARK    1  A    between atoms: C_5  and  N_8 
REMARK       I    between atoms: N_8  and  C_9 
REMARK    2  A    between atoms: C_9  and  C_11 
REMARK    3  A    between atoms: C_11  and  N_12 
ROOT
HETATM    1  N   UNL     1       4.609  -0.709  -3.006  1.00  0.00    -0.355 N 
HETATM    2  C   UNL     1       5.234  -0.358  -4.187  1.00  0.00     0.236 C 
HETATM    3  O   UNL     1       4.632  -0.007  -5.200  1.00  0.00    -0.272 OA
HETATM    4  H   UNL     1       5.174  -0.652  -2.160  1.00  0.00     0.162 HD
ENDROOT
BRANCH   2   5
HETATM    5  C   UNL     1       6.758  -0.390  -4.127  1.00  0.00     0.235 C 
BRANCH   5   6
HETATM    6  N   UNL     1       7.298   0.931  -3.828  1.00  0.00    -0.301 N 
HETATM    7  C   UNL     1       7.584   1.805  -4.853  1.00  0.00     0.097 A 
HETATM    8  C   UNL     1       8.106   3.005  -4.603  1.00  0.00     0.034 A 
HETATM    9  C   UNL     1       8.346   3.276  -3.181  1.00  0.00     0.094 A 
HETATM   10  N   UNL     1       8.047   2.494  -2.200  1.00  0.00    -0.319 N 
HETATM   11  C   UNL     1       7.459   1.284  -2.485  1.00  0.00     0.326 A 
ATOM     12  HN  UNL     1       8.242   2.766  -1.237  1.00  0.00     0.170 HD
HETATM   13  O   UNL     1       7.086   0.525  -1.589  1.00  0.00    -0.246 OA
ENDBRANCH   5   6
ENDBRANCH   2   5
BRANCH   1  14
HETATM   14  C   UNL     1       3.157  -0.679  -2.870  1.00  0.00     0.084 C 
HETATM   15  C   UNL     1       2.658   0.725  -2.507  1.00  0.00     0.025 C 
HETATM   16  C   UNL     1       2.971   1.104  -1.058  1.00  0.00     0.006 C 
HETATM   17  C   UNL     1       2.473   0.064  -0.044  1.00  0.00    -0.019 C 
HETATM   18  C   UNL     1       0.947   0.091   0.093  1.00  0.00     0.010 C 
HETATM   19  C   UNL     1       2.984  -1.337  -0.408  1.00  0.00     0.006 C 
HETATM   20  C   UNL     1       2.683  -1.727  -1.856  1.00  0.00     0.025 C 
ENDBRANCH   1  14
TORSDOF 3
