REMARK  7 active torsions:
REMARK  status: ('A' for Active; 'I' for Inactive)
REMARK    1  A    between atoms: S_2  and  C_5 
REMARK    2  A    between atoms: C_5  and  C_6 
REMARK    3  A    between atoms: C_6  and  C_7 
REMARK    4  A    between atoms: C_7  and  N_8 
REMARK    5  A    between atoms: C_12  and  C_13 
REMARK    6  A    between atoms: C_13  and  N_14 
REMARK    7  A    between atoms: N_14  and  C_15 
ROOT
HETATM    1  N   UNL     1       6.942   1.325   2.861  1.00  0.00     0.093 N 
HETATM    2  C   UNL     1       7.394   2.101   4.043  1.00  0.00     0.298 C 
HETATM    3  C   UNL     1       7.096   3.613   3.958  1.00  0.00     0.198 C 
HETATM    4  O   UNL     1       7.576   4.195   2.738  1.00  0.00    -0.381 OA
HETATM    5  C   UNL     1       7.052   3.485   1.590  1.00  0.00     0.163 C 
HETATM    6  C   UNL     1       7.481   2.009   1.659  1.00  0.00     0.305 C 
ENDROOT
BRANCH   5   7
HETATM    7  C   UNL     1       7.559   4.168   0.309  1.00  0.00     0.127 C 
BRANCH   7   8
HETATM    8  N   UNL     1       7.009   5.529   0.286  1.00  0.00    -0.275 NA
HETATM    9  H   UNL     1       7.262   6.016   1.145  1.00  0.00     0.129 HD
BRANCH   8  10
HETATM   10  C   UNL     1       7.368   6.304  -0.826  1.00  0.00     0.094 A 
HETATM   11  C   UNL     1       6.910   7.615  -0.874  1.00  0.00     0.045 A 
HETATM   12  C   UNL     1       7.205   8.408  -1.975  1.00  0.00     0.022 A 
HETATM   13  C   UNL     1       7.948   7.851  -2.992  1.00  0.00     0.107 A 
HETATM   14  N   UNL     1       8.381   6.578  -2.947  1.00  0.00    -0.311 N 
HETATM   15  N   UNL     1       8.076   5.800  -1.858  1.00  0.00    -0.290 N 
ATOM     16  HN  UNL     1       8.931   6.194  -3.715  1.00  0.00     0.186 HD
ATOM     17  HN  UNL     1       8.388   4.829  -1.829  1.00  0.00     0.188 HD
ENDBRANCH   8  10
ENDBRANCH   7   8
ENDBRANCH   5   7
BRANCH   1  18
HETATM   18  C   UNL     1       5.475   1.172   2.857  1.00  0.00     0.273 C 
BRANCH  18  19
HETATM   19  C   UNL     1       4.948   0.376   1.658  1.00  0.00     0.045 C 
BRANCH  19  20
HETATM   20  C   UNL     1       3.428   0.252   1.686  1.00  0.00     0.141 C 
BRANCH  20  21
HETATM   21  S   UNL     1       2.847  -0.672   0.269  1.00  0.00     0.140 S 
HETATM   22  C   UNL     1       1.084  -0.662   0.470  1.00  0.00     0.161 C 
HETATM   23  O   UNL     1       3.293  -2.044   0.415  1.00  0.00    -0.228 OA
HETATM   24  O   UNL     1       3.151   0.092  -0.925  1.00  0.00    -0.228 OA
ENDBRANCH  20  21
ENDBRANCH  19  20
ENDBRANCH  18  19
ENDBRANCH   1  18
TORSDOF 7
