REMARK  5 active torsions:
REMARK  status: ('A' for Active; 'I' for Inactive)
REMARK    1  A    between atoms: N_6  and  C_7 
REMARK    2  A    between atoms: C_7  and  C_8 
REMARK       I    between atoms: C_8  and  N_10 
REMARK    3  A    between atoms: N_10  and  C_11 
REMARK    4  A    between atoms: C_11  and  C_12 
REMARK    5  A    between atoms: C_12  and  C_13 
ROOT
HETATM    1  C   UNL     1       7.527  -1.440  -0.094  1.00  0.00     0.237 C 
HETATM    2  O   UNL     1       6.817  -2.443   0.007  1.00  0.00    -0.272 OA
HETATM    3  N   UNL     1       8.907  -1.524  -0.104  1.00  0.00    -0.359 N 
HETATM    4  H   UNL     1       9.440  -0.671   0.030  1.00  0.00     0.162 HD
ENDROOT
BRANCH   1   5
HETATM    5  C   UNL     1       6.925  -0.043  -0.022  1.00  0.00     0.255 C 
BRANCH   5   6
HETATM    6  N   UNL     1       7.732   0.979  -0.685  1.00  0.00    -0.248 N 
HETATM    7  N   UNL     1       8.609   1.682   0.108  1.00  0.00    -0.305 N 
HETATM    8  C   UNL     1       9.238   2.665  -0.450  1.00  0.00     0.133 A 
ATOM      9  HN  UNL     1       8.756   1.440   1.088  1.00  0.00     0.186 HD
HETATM   10  C   UNL     1       9.115   3.076  -1.854  1.00  0.00     0.078 A 
HETATM   11 CL   UNL     1      10.067   4.409  -2.361  1.00  0.00    -0.081 Cl
HETATM   12  C   UNL     1       8.282   2.373  -2.621  1.00  0.00     0.126 A 
HETATM   13  C   UNL     1       7.509   1.239  -2.038  1.00  0.00     0.285 A 
HETATM   14 CL   UNL     1       8.025   2.722  -4.294  1.00  0.00    -0.076 Cl
HETATM   15  O   UNL     1       6.718   0.593  -2.722  1.00  0.00    -0.265 OA
ENDBRANCH   5   6
ENDBRANCH   1   5
BRANCH   3  16
HETATM   16  C   UNL     1       9.533  -2.832  -0.047  1.00  0.00     0.127 C 
BRANCH  16  17
HETATM   17  C   UNL     1      11.064  -2.815  -0.066  1.00  0.00     0.053 C 
BRANCH  17  18
HETATM   18  C   UNL     1      11.661  -4.216  -0.029  1.00  0.00    -0.082 A 
HETATM   19  C   UNL     1      12.444  -4.618   0.983  1.00  0.00    -0.024 A 
HETATM   20  C   UNL     1      13.075  -5.965   1.095  1.00  0.00     0.027 A 
HETATM   21  C   UNL     1      12.792  -6.967  -0.018  1.00  0.00     0.004 A 
HETATM   22  C   UNL     1      11.905  -6.535  -1.179  1.00  0.00     0.005 A 
HETATM   23  C   UNL     1      11.344  -5.113  -1.192  1.00  0.00     0.034 A 
ENDBRANCH  17  18
ENDBRANCH  16  17
ENDBRANCH   3  16
TORSDOF 5
