REMARK  5 active torsions:
REMARK  status: ('A' for Active; 'I' for Inactive)
REMARK    1  A    between atoms: C_2  and  C_3 
REMARK    2  A    between atoms: C_3  and  C_4 
REMARK    3  A    between atoms: C_4  and  N_5 
REMARK       I    between atoms: N_5  and  C_6 
REMARK       I    between atoms: C_6  and  N_8 
REMARK    4  A    between atoms: N_8  and  C_9 
REMARK    5  A    between atoms: C_11  and  O_12 
ROOT
HETATM    1  N   UNL     1       5.448   0.131  -2.166  1.00  0.00    -0.342 N 
HETATM    2  C   UNL     1       6.581   0.922  -2.172  1.00  0.00     0.321 C 
HETATM    3  O   UNL     1       6.789   1.797  -1.339  1.00  0.00    -0.247 OA
HETATM    4  N   UNL     1       7.462   0.556  -3.161  1.00  0.00    -0.295 N 
HETATM    5  H   UNL     1       5.074  -0.098  -3.077  1.00  0.00     0.164 HD
HETATM    6  H   UNL     1       7.496  -0.441  -3.319  1.00  0.00     0.172 HD
ENDROOT
BRANCH   4   7
HETATM    7  C   UNL     1       8.732   1.149  -3.254  1.00  0.00     0.114 A 
HETATM    8  C   UNL     1       8.915   2.514  -3.227  1.00  0.00     0.104 A 
HETATM    9  C   UNL     1      10.218   2.944  -3.315  1.00  0.00     0.146 A 
HETATM   10  N   UNL     1      11.271   2.113  -3.378  1.00  0.00    -0.333 N 
HETATM   11  C   UNL     1      10.977   0.809  -3.389  1.00  0.00     0.183 A 
ATOM     12  HN  UNL     1      12.232   2.454  -3.415  1.00  0.00     0.168 HD
HETATM   13  N   UNL     1       9.747   0.275  -3.378  1.00  0.00    -0.338 N 
ATOM     14  HN  UNL     1       9.591  -0.730  -3.459  1.00  0.00     0.168 HD
BRANCH   9  15
HETATM   15  O   UNL     1      10.422   4.308  -3.351  1.00  0.00    -0.341 OA
HETATM   16  C   UNL     1      11.792   4.664  -3.523  1.00  0.00     0.211 C 
ENDBRANCH   9  15
ENDBRANCH   4   7
BRANCH   1  17
HETATM   17  C   UNL     1       4.523   0.348  -1.073  1.00  0.00     0.133 C 
BRANCH  17  18
HETATM   18  C   UNL     1       3.234  -0.451  -1.088  1.00  0.00    -0.025 A 
HETATM   19  C   UNL     1       2.518  -0.717  -2.402  1.00  0.00     0.012 A 
HETATM   20  C   UNL     1       3.177  -1.852  -1.668  1.00  0.00     0.012 A 
BRANCH  18  21
HETATM   21  C   UNL     1       2.336  -0.143   0.110  1.00  0.00     0.006 C 
HETATM   22  C   UNL     1       2.963  -0.519   1.445  1.00  0.00     0.006 C 
ENDBRANCH  18  21
ENDBRANCH  17  18
ENDBRANCH   1  17
TORSDOF 5
