REMARK  5 active torsions:
REMARK  status: ('A' for Active; 'I' for Inactive)
REMARK       I    between atoms: N_7  and  C_9 
REMARK    1  A    between atoms: C_9  and  C_11 
REMARK    2  A    between atoms: C_11  and  N_12 
REMARK    3  A    between atoms: N_12  and  C_13 
REMARK    4  A    between atoms: C_13  and  C_14 
REMARK    5  A    between atoms: C_14  and  N_15 
ROOT
HETATM    1  C   UNL     1       1.169  -2.869  -3.480  1.00  0.00     0.372 C 
ENDROOT
BRANCH   1   2
HETATM    2  C   UNL     1       1.619  -2.673  -2.027  1.00  0.00     0.248 C 
HETATM    3  N   UNL     1       2.560  -1.667  -1.809  1.00  0.00    -0.350 N 
HETATM    4  C   UNL     1       3.054  -0.727  -2.819  1.00  0.00     0.130 C 
HETATM    5  C   UNL     1       2.943  -1.347  -0.438  1.00  0.00     0.130 C 
HETATM    6  C   UNL     1       2.557   0.695  -2.522  1.00  0.00    -0.000 C 
HETATM    7  C   UNL     1       2.905   1.090  -1.075  1.00  0.00     0.011 C 
HETATM    8  C   UNL     1       3.146   1.696  -3.513  1.00  0.00     0.011 C 
HETATM    9  C   UNL     1       2.430   0.046  -0.047  1.00  0.00    -0.000 C 
HETATM   10  C   UNL     1       0.905   0.058   0.107  1.00  0.00     0.011 C 
HETATM   11  O   UNL     1       1.150  -3.347  -1.107  1.00  0.00    -0.271 OA
ENDBRANCH   1   2
BRANCH   1  12
HETATM   12  N   UNL     1       0.298  -4.049  -3.628  1.00  0.00     0.093 N 
HETATM   13  H   UNL     1      -0.457  -3.974  -2.941  1.00  0.00     0.316 HD
BRANCH  12  14
HETATM   14  C   UNL     1      -0.246  -4.155  -4.988  1.00  0.00     0.291 C 
BRANCH  14  15
HETATM   15  C   UNL     1       0.840  -4.442  -6.029  1.00  0.00     0.178 C 
BRANCH  15  16
HETATM   16  N   UNL     1       0.296  -4.576  -7.364  1.00  0.00    -0.302 N 
HETATM   17  C   UNL     1      -0.032  -5.738  -7.999  1.00  0.00     0.111 A 
HETATM   18  C   UNL     1      -0.419  -5.374  -9.270  1.00  0.00     0.037 A 
HETATM   19  C   UNL     1      -0.281  -3.975  -9.300  1.00  0.00     0.108 A 
HETATM   20  N   UNL     1       0.144  -3.481  -8.134  1.00  0.00    -0.310 N 
ATOM     21  HN  UNL     1       0.313  -2.506  -7.886  1.00  0.00     0.186 HD
ENDBRANCH  15  16
ENDBRANCH  14  15
ENDBRANCH  12  14
ENDBRANCH   1  12
TORSDOF 5
