REMARK  6 active torsions:
REMARK  status: ('A' for Active; 'I' for Inactive)
REMARK    1  A    between atoms: O_1  and  C_2 
REMARK    2  A    between atoms: C_2  and  C_3 
REMARK    3  A    between atoms: C_3  and  N_4 
REMARK    4  A    between atoms: N_4  and  C_5 
REMARK    5  A    between atoms: N_14  and  C_15 
REMARK    6  A    between atoms: C_15  and  C_16 
ROOT
HETATM    1  C   UNL     1       5.118  -1.008  -2.586  1.00  0.00     0.160 A 
HETATM    2  N   UNL     1       5.676  -0.163  -3.419  1.00  0.00    -0.331 N 
ATOM      3  HN  UNL     1       5.704   0.853  -3.337  1.00  0.00     0.168 HD
HETATM    4  C   UNL     1       6.213  -0.926  -4.421  1.00  0.00     0.061 A 
HETATM    5  C   UNL     1       6.927  -0.522  -5.559  1.00  0.00     0.032 A 
HETATM    6  C   UNL     1       7.373  -1.496  -6.459  1.00  0.00     0.002 A 
HETATM    7  C   UNL     1       7.105  -2.847  -6.234  1.00  0.00     0.002 A 
HETATM    8  C   UNL     1       6.384  -3.268  -5.110  1.00  0.00     0.032 A 
HETATM    9  C   UNL     1       5.960  -2.279  -4.212  1.00  0.00     0.063 A 
HETATM   10  N   UNL     1       5.254  -2.305  -3.028  1.00  0.00    -0.319 N 
ENDROOT
BRANCH   1  11
HETATM   11  N   UNL     1       4.456  -0.721  -1.440  1.00  0.00    -0.262 NA
HETATM   12  H   UNL     1       5.005  -0.899  -0.596  1.00  0.00     0.130 HD
BRANCH  11  13
HETATM   13  C   UNL     1       3.948   0.657  -1.339  1.00  0.00     0.121 C 
BRANCH  13  14
HETATM   14  C   UNL     1       3.288   0.860   0.027  1.00  0.00     0.178 C 
BRANCH  14  15
HETATM   15  O   UNL     1       4.255   0.685   1.066  1.00  0.00    -0.400 OA
HETATM   16  H   UNL     1       3.795   0.854   1.906  1.00  0.00     0.209 HD
ENDBRANCH  14  15
ENDBRANCH  13  14
ENDBRANCH  11  13
ENDBRANCH   1  11
BRANCH  10  17
HETATM   17  C   UNL     1       4.628  -3.469  -2.437  1.00  0.00     0.164 C 
BRANCH  17  18
HETATM   18  C   UNL     1       5.451  -4.139  -1.339  1.00  0.00     0.140 C 
HETATM   19  C   UNL     1       6.748  -4.777  -1.811  1.00  0.00     0.035 C 
HETATM   20  C   UNL     1       6.928  -5.990  -0.922  1.00  0.00     0.029 C 
HETATM   21  C   UNL     1       5.636  -6.098  -0.140  1.00  0.00     0.168 C 
HETATM   22  O   UNL     1       4.696  -5.231  -0.780  1.00  0.00    -0.384 OA
ENDBRANCH  17  18
ENDBRANCH  10  17
TORSDOF 6
