REMARK  8 active torsions:
REMARK  status: ('A' for Active; 'I' for Inactive)
REMARK    1  A    between atoms: C_2  and  C_3 
REMARK    2  A    between atoms: C_3  and  C_4 
REMARK    3  A    between atoms: C_3  and  C_6 
REMARK    4  A    between atoms: C_3  and  C_19 
REMARK    5  A    between atoms: C_6  and  N_7 
REMARK       I    between atoms: N_7  and  C_8 
REMARK    6  A    between atoms: C_8  and  C_10 
REMARK    7  A    between atoms: C_10  and  N_11 
REMARK    8  A    between atoms: C_19  and  O_21 
ROOT
HETATM    1  N   UNL     1       1.118   2.651   0.466  1.00  0.00    -0.358 N 
HETATM    2  C   UNL     1       0.400   2.458   1.630  1.00  0.00     0.237 C 
HETATM    3  O   UNL     1       0.939   2.179   2.698  1.00  0.00    -0.272 OA
HETATM    4  H   UNL     1       0.575   2.776  -0.391  1.00  0.00     0.162 HD
ENDROOT
BRANCH   1   5
HETATM    5  C   UNL     1       2.552   2.458   0.384  1.00  0.00     0.143 C 
BRANCH   5   6
HETATM    6  C   UNL     1       2.994   1.277  -0.520  1.00  0.00     0.060 C 
BRANCH   6   7
HETATM    7  C   UNL     1       2.589   1.608  -1.993  1.00  0.00     0.018 C 
HETATM    8  C   UNL     1       3.035   0.612  -3.061  1.00  0.00     0.006 C 
ENDBRANCH   6   7
BRANCH   6   9
HETATM    9  C   UNL     1       4.531   1.055  -0.391  1.00  0.00     0.018 C 
HETATM   10  C   UNL     1       5.408   2.239  -0.790  1.00  0.00     0.006 C 
ENDBRANCH   6   9
BRANCH   6  11
HETATM   11  C   UNL     1       2.270  -0.004  -0.060  1.00  0.00     0.150 C 
HETATM   12  O   UNL     1       1.490  -0.644  -0.752  1.00  0.00    -0.649 OA
BRANCH  11  13
HETATM   13  O   UNL     1       2.560  -0.419   1.194  1.00  0.00    -0.776 OA
HETATM   14  H   UNL     1       3.084   0.193   1.742  1.00  0.00     0.167 HD
ENDBRANCH  11  13
ENDBRANCH   6  11
ENDBRANCH   5   6
ENDBRANCH   1   5
BRANCH   2  15
HETATM   15  C   UNL     1      -1.088   2.688   1.501  1.00  0.00     0.251 C 
BRANCH  15  16
HETATM   16  N   UNL     1      -1.663   1.750   0.557  1.00  0.00    -0.288 N 
HETATM   17  N   UNL     1      -1.655   2.069  -0.757  1.00  0.00    -0.303 N 
HETATM   18  C   UNL     1      -2.142   0.974  -1.356  1.00  0.00     0.024 A 
ATOM     19  HN  UNL     1      -1.349   2.940  -1.191  1.00  0.00     0.186 HD
HETATM   20  C   UNL     1      -2.260   0.900  -2.832  1.00  0.00     0.070 C 
HETATM   21  C   UNL     1      -2.478  -0.028  -0.419  1.00  0.00     0.052 A 
HETATM   22  C   UNL     1      -2.162   0.500   0.813  1.00  0.00     0.027 A 
HETATM   23  C   UNL     1      -2.255  -0.092   2.170  1.00  0.00     0.070 C 
ENDBRANCH  15  16
ENDBRANCH   2  15
TORSDOF 8
