REMARK  7 active torsions:
REMARK  status: ('A' for Active; 'I' for Inactive)
REMARK    1  A    between atoms: C_7  and  O_8 
REMARK    2  A    between atoms: O_8  and  C_9 
REMARK    3  A    between atoms: C_9  and  C_10 
REMARK    4  A    between atoms: C_10  and  N_11 
REMARK    5  A    between atoms: N_11  and  C_12 
REMARK    6  A    between atoms: C_12  and  C_13 
REMARK    7  A    between atoms: C_13  and  N_14 
ROOT
HETATM    1  C   UNL     1       2.409  -3.062   2.727  1.00  0.00     0.295 C 
ENDROOT
BRANCH   1   2
HETATM    2  C   UNL     1       3.007  -1.990   1.825  1.00  0.00     0.198 C 
BRANCH   2   3
HETATM    3  O   UNL     1       2.442  -2.117   0.519  1.00  0.00    -0.384 OA
BRANCH   3   4
HETATM    4  C   UNL     1       2.985  -1.179  -0.416  1.00  0.00     0.125 C 
HETATM    5  C   UNL     1       2.671   0.281  -0.023  1.00  0.00     0.010 C 
HETATM    6  C   UNL     1       1.184   0.499   0.290  1.00  0.00     0.012 C 
HETATM    7  C   UNL     1       3.180   1.243  -1.100  1.00  0.00     0.007 C 
HETATM    8  C   UNL     1       2.642   0.910  -2.487  1.00  0.00     0.001 C 
HETATM    9  C   UNL     1       2.914  -0.543  -2.868  1.00  0.00     0.002 C 
HETATM   10  C   UNL     1       2.429  -1.523  -1.803  1.00  0.00     0.032 C 
ENDBRANCH   3   4
ENDBRANCH   2   3
ENDBRANCH   1   2
BRANCH   1  11
HETATM   11  N   UNL     1       2.903  -2.910   4.101  1.00  0.00     0.087 N 
HETATM   12  H   UNL     1       2.619  -1.988   4.447  1.00  0.00     0.316 HD
BRANCH  11  13
HETATM   13  C   UNL     1       2.337  -3.929   4.995  1.00  0.00     0.291 C 
BRANCH  13  14
HETATM   14  C   UNL     1       2.762  -5.352   4.631  1.00  0.00     0.178 C 
BRANCH  14  15
HETATM   15  N   UNL     1       2.222  -6.318   5.563  1.00  0.00    -0.302 N 
HETATM   16  C   UNL     1       2.849  -6.836   6.658  1.00  0.00     0.111 A 
HETATM   17  C   UNL     1       1.966  -7.734   7.207  1.00  0.00     0.037 A 
HETATM   18  C   UNL     1       0.835  -7.679   6.371  1.00  0.00     0.108 A 
HETATM   19  N   UNL     1       0.985  -6.807   5.372  1.00  0.00    -0.310 N 
ATOM     20  HN  UNL     1       0.319  -6.568   4.638  1.00  0.00     0.186 HD
ENDBRANCH  14  15
ENDBRANCH  13  14
ENDBRANCH  11  13
ENDBRANCH   1  11
TORSDOF 7
