REMARK  7 active torsions:
REMARK  status: ('A' for Active; 'I' for Inactive)
REMARK    1  A    between atoms: N_8  and  C_9 
REMARK    2  A    between atoms: C_9  and  C_10 
REMARK    3  A    between atoms: C_10  and  O_11 
REMARK    4  A    between atoms: C_10  and  C_12 
REMARK    5  A    between atoms: C_12  and  N_13 
REMARK    6  A    between atoms: N_13  and  C_14 
REMARK    7  A    between atoms: C_14  and  C_15 
ROOT
HETATM    1  C   UNL     1       7.593   0.662   0.097  1.00  0.00     0.163 C 
ENDROOT
BRANCH   1   2
HETATM    2  N   UNL     1       6.452  -0.235   0.054  1.00  0.00    -0.339 N 
HETATM    3  C   UNL     1       5.866  -0.805   1.150  1.00  0.00     0.184 A 
HETATM    4  N   UNL     1       4.846  -1.559   0.819  1.00  0.00    -0.350 N 
HETATM    5  C   UNL     1       4.770  -1.476  -0.550  1.00  0.00     0.060 A 
ATOM      6  HN  UNL     1       4.240  -2.092   1.443  1.00  0.00     0.166 HD
HETATM    7  C   UNL     1       3.852  -2.072  -1.424  1.00  0.00     0.039 A 
HETATM    8  C   UNL     1       5.780  -0.670  -1.063  1.00  0.00     0.062 A 
HETATM    9  C   UNL     1       3.963  -1.849  -2.809  1.00  0.00    -0.054 A 
HETATM   10  C   UNL     1       2.951  -2.486  -3.724  1.00  0.00     0.049 C 
HETATM   11  C   UNL     1       5.004  -1.037  -3.312  1.00  0.00    -0.054 A 
HETATM   12  C   UNL     1       5.933  -0.437  -2.436  1.00  0.00     0.039 A 
HETATM   13  C   UNL     1       5.140  -0.788  -4.792  1.00  0.00     0.049 C 
ENDBRANCH   1   2
BRANCH   1  14
HETATM   14  C   UNL     1       7.175   2.140   0.151  1.00  0.00     0.164 C 
BRANCH  14  15
HETATM   15  O   UNL     1       6.438   2.431   1.346  1.00  0.00    -0.392 OA
HETATM   16  H   UNL     1       6.901   2.048   2.110  1.00  0.00     0.210 HD
ENDBRANCH  14  15
BRANCH  14  17
HETATM   17  C   UNL     1       8.397   3.082   0.102  1.00  0.00     0.303 C 
BRANCH  17  18
HETATM   18  N   UNL     1       9.174   2.895  -1.121  1.00  0.00     0.090 N 
HETATM   19  H   UNL     1       8.587   3.100  -1.932  1.00  0.00     0.316 HD
BRANCH  18  20
HETATM   20  C   UNL     1      10.326   3.797  -1.176  1.00  0.00     0.315 C 
BRANCH  20  21
HETATM   21  C   UNL     1      11.053   3.576  -2.468  1.00  0.00     0.010 A 
HETATM   22  C   UNL     1      12.080   2.690  -2.733  1.00  0.00     0.017 A 
HETATM   23  C   UNL     1      12.505   2.741  -4.091  1.00  0.00     0.008 A 
HETATM   24  C   UNL     1      11.787   3.662  -4.821  1.00  0.00     0.050 A 
HETATM   25  S   UNL     1      10.613   4.461  -3.870  1.00  0.00    -0.105 SA
ENDBRANCH  20  21
ENDBRANCH  18  20
ENDBRANCH  17  18
ENDBRANCH  14  17
ENDBRANCH   1  14
TORSDOF 7
