REMARK  2 active torsions:
REMARK  status: ('A' for Active; 'I' for Inactive)
REMARK    1  A    between atoms: N_1  and  C_2 
REMARK    2  A    between atoms: C_5  and  N_9 
ROOT
HETATM    1  C   UNL     1       2.583   0.207   0.181  1.00  0.00     0.077 A 
HETATM    2  C   UNL     1       3.139  -0.900  -0.431  1.00  0.00     0.044 A 
HETATM    3  C   UNL     1       4.521  -0.935  -0.649  1.00  0.00     0.034 A 
HETATM    4  C   UNL     1       5.346   0.126  -0.267  1.00  0.00     0.045 A 
HETATM    5  C   UNL     1       4.656   1.189   0.329  1.00  0.00     0.118 A 
HETATM    6  N   UNL     1       3.315   1.261   0.555  1.00  0.00    -0.355 N 
ATOM      7  HN  UNL     1       2.889   2.080   0.989  1.00  0.00     0.166 HD
ENDROOT
BRANCH   4   8
HETATM    8  N   UNL     1       6.715   0.114  -0.433  1.00  0.00    -0.376 N 
HETATM    9  C   UNL     1       7.489   1.347  -0.670  1.00  0.00     0.149 C 
HETATM   10  C   UNL     1       8.141   1.295  -2.066  1.00  0.00     0.187 C 
HETATM   11  O   UNL     1       8.934   0.109  -2.246  1.00  0.00    -0.388 OA
HETATM   12  C   UNL     1       8.123  -1.067  -2.076  1.00  0.00     0.187 C 
HETATM   13  C   UNL     1       7.499  -1.110  -0.674  1.00  0.00     0.149 C 
ENDBRANCH   4   8
BRANCH   1  14
HETATM   14  N   UNL     1       1.211   0.281   0.406  1.00  0.00    -0.289 NA
HETATM   15  H   UNL     1       0.880  -0.520   0.930  1.00  0.00     0.125 HD
HETATM   16  H   UNL     1       1.047   1.152   0.907  1.00  0.00     0.125 HD
ENDBRANCH   1  14
TORSDOF 2
