REMARK  5 active torsions:
REMARK  status: ('A' for Active; 'I' for Inactive)
REMARK    1  A    between atoms: C_2  and  C_3 
REMARK    2  A    between atoms: C_2  and  N_10 
REMARK    3  A    between atoms: C_3  and  N_4 
REMARK       I    between atoms: N_10  and  C_11 
REMARK    4  A    between atoms: C_11  and  C_13 
REMARK    5  A    between atoms: N_15  and  C_16 
ROOT
HETATM    1  N   UNL     1       3.237  -0.619  -1.352  1.00  0.00    -0.355 N 
HETATM    2  C   UNL     1       4.597  -0.718  -1.557  1.00  0.00     0.224 C 
HETATM    3  O   UNL     1       5.409  -0.511  -0.666  1.00  0.00    -0.273 OA
HETATM    4  H   UNL     1       2.597  -0.898  -2.087  1.00  0.00     0.162 HD
ENDROOT
BRANCH   1   5
HETATM    5  C   UNL     1       2.666  -0.222  -0.053  1.00  0.00     0.100 C 
HETATM    6  C   UNL     1       1.259   0.331  -0.282  1.00  0.00     0.034 C 
BRANCH   5   7
HETATM    7  C   UNL     1       2.685  -1.389   0.953  1.00  0.00     0.172 C 
BRANCH   7   8
HETATM    8  N   UNL     1       2.245  -1.008   2.282  1.00  0.00    -0.302 N 
HETATM    9  C   UNL     1       3.021  -0.547   3.306  1.00  0.00     0.111 A 
HETATM   10  C   UNL     1       2.164  -0.297   4.352  1.00  0.00     0.037 A 
HETATM   11  C   UNL     1       0.894  -0.657   3.866  1.00  0.00     0.108 A 
HETATM   12  N   UNL     1       0.940  -1.109   2.611  1.00  0.00    -0.310 N 
ATOM     13  HN  UNL     1       0.170  -1.450   2.036  1.00  0.00     0.186 HD
ENDBRANCH   7   8
ENDBRANCH   5   7
ENDBRANCH   1   5
BRANCH   2  14
HETATM   14  C   UNL     1       4.991  -1.182  -2.947  1.00  0.00     0.104 C 
HETATM   15  C   UNL     1       6.497  -1.091  -3.173  1.00  0.00     0.141 C 
HETATM   16  N   UNL     1       6.631  -0.835  -4.584  1.00  0.00    -0.347 N 
HETATM   17  C   UNL     1       5.450  -0.354  -5.139  1.00  0.00     0.221 C 
HETATM   18  O   UNL     1       5.276   0.024  -6.287  1.00  0.00    -0.273 OA
HETATM   19  C   UNL     1       4.404  -0.316  -4.059  1.00  0.00     0.118 C 
BRANCH  16  20
HETATM   20  C   UNL     1       7.889  -0.705  -5.251  1.00  0.00     0.087 A 
HETATM   21  C   UNL     1       9.236  -0.747  -4.582  1.00  0.00     0.027 A 
HETATM   22  C   UNL     1       8.689   0.561  -5.071  1.00  0.00     0.027 A 
ENDBRANCH  16  20
ENDBRANCH   2  14
TORSDOF 5
