REMARK  7 active torsions:
REMARK  status: ('A' for Active; 'I' for Inactive)
REMARK    1  A    between atoms: N_2  and  C_17 
REMARK    2  A    between atoms: C_3  and  N_9 
REMARK    3  A    between atoms: C_7  and  N_9 
REMARK    4  A    between atoms: C_12  and  O_24 
REMARK    5  A    between atoms: C_17  and  C_18 
REMARK    6  A    between atoms: C_18  and  C_20 
REMARK    7  A    between atoms: C_18  and  O_25 
ROOT
HETATM    1  C   UNL     1       0.338  -0.614   0.045  1.00  0.00     0.122 A 
HETATM    2  N   UNL     1       1.468   1.264   0.020  1.00  0.00    -0.325 N 
HETATM    3  C   UNL     1      -0.807  -1.429  -0.177  1.00  0.00     0.135 A 
HETATM    4  C   UNL     1       0.211   0.756  -0.167  1.00  0.00     0.140 A 
HETATM    5  N   UNL     1       1.629  -0.915   0.442  1.00  0.00    -0.346 N 
ATOM      6  HN  UNL     1       2.003  -1.830   0.692  1.00  0.00     0.167 HD
HETATM    7  C   UNL     1       2.267   0.229   0.427  1.00  0.00     0.185 A 
HETATM    8  N   UNL     1      -1.944  -0.754  -0.527  1.00  0.00    -0.337 N 
ATOM      9  HN  UNL     1      -2.803  -1.272  -0.713  1.00  0.00     0.168 HD
HETATM   10  N   UNL     1      -0.900   1.432  -0.500  1.00  0.00    -0.336 N 
ATOM     11  HN  UNL     1      -0.948   2.442  -0.636  1.00  0.00     0.168 HD
HETATM   12  C   UNL     1      -1.940   0.591  -0.629  1.00  0.00     0.183 A 
ENDROOT
BRANCH   3  13
HETATM   13  N   UNL     1      -0.844  -2.858  -0.056  1.00  0.00    -0.364 N 
HETATM   14  C   UNL     1       0.469  -3.449  -0.347  1.00  0.00     0.152 C 
BRANCH  13  15
HETATM   15  C   UNL     1      -2.018  -3.678  -0.363  1.00  0.00     0.099 C 
HETATM   16  C   UNL     1      -2.301  -4.846   0.610  1.00  0.00     0.007 C 
HETATM   17  C   UNL     1      -2.994  -3.873   1.543  1.00  0.00     0.133 C 
HETATM   18  C   UNL     1      -3.117  -6.006   0.040  1.00  0.00     0.014 C 
HETATM   19  C   UNL     1      -1.287  -5.812   1.165  1.00  0.00     0.014 C 
HETATM   20  C   UNL     1      -3.357  -3.109   0.242  1.00  0.00     0.059 C 
HETATM   21  C   UNL     1      -1.839  -6.864   0.171  1.00  0.00     0.002 C 
BRANCH  17  22
HETATM   22  O   UNL     1      -4.114  -4.276   2.354  1.00  0.00    -0.390 OA
HETATM   23  C   UNL     1      -4.649  -3.210   3.137  1.00  0.00     0.202 C 
ENDBRANCH  17  22
ENDBRANCH  13  15
ENDBRANCH   3  13
BRANCH   2  24
HETATM   24  C   UNL     1       1.892   2.649  -0.142  1.00  0.00     0.165 C 
BRANCH  24  25
HETATM   25  C   UNL     1       2.797   2.867  -1.361  1.00  0.00     0.165 C 
BRANCH  25  26
HETATM   26  C   UNL     1       3.311   4.309  -1.503  1.00  0.00     0.151 C 
HETATM   27  O   UNL     1       4.032   4.687  -0.308  1.00  0.00    -0.383 OA
HETATM   28  C   UNL     1       3.912   6.113  -0.155  1.00  0.00     0.168 C 
HETATM   29  C   UNL     1       3.083   6.623  -1.318  1.00  0.00     0.029 C 
HETATM   30  C   UNL     1       2.288   5.403  -1.721  1.00  0.00     0.036 C 
ENDBRANCH  25  26
BRANCH  25  31
HETATM   31  O   UNL     1       3.968   2.033  -1.251  1.00  0.00    -0.391 OA
HETATM   32  H   UNL     1       4.635   2.551  -0.757  1.00  0.00     0.210 HD
ENDBRANCH  25  31
ENDBRANCH  24  25
ENDBRANCH   2  24
TORSDOF 7
