REMARK  5 active torsions:
REMARK  status: ('A' for Active; 'I' for Inactive)
REMARK    1  A    between atoms: O_1  and  C_2 
REMARK    2  A    between atoms: C_2  and  C_3 
REMARK    3  A    between atoms: C_9  and  N_10 
REMARK       I    between atoms: N_10  and  C_11 
REMARK    4  A    between atoms: C_11  and  C_13 
REMARK    5  A    between atoms: C_13  and  C_14 
ROOT
HETATM    1  N   UNL     1       4.218   1.325  -1.600  1.00  0.00    -0.356 N 
HETATM    2  C   UNL     1       5.269   0.720  -2.247  1.00  0.00     0.223 C 
HETATM    3  O   UNL     1       6.276   0.312  -1.671  1.00  0.00    -0.273 OA
HETATM    4  H   UNL     1       3.401   1.593  -2.142  1.00  0.00     0.162 HD
ENDROOT
BRANCH   1   5
HETATM    5  C   UNL     1       4.158   1.519  -0.157  1.00  0.00     0.090 C 
HETATM    6  C   UNL     1       2.711   1.428   0.384  1.00  0.00     0.032 C 
HETATM    7  C   UNL     1       1.806   2.607  -0.025  1.00  0.00     0.009 C 
HETATM    8  C   UNL     1       2.120   3.882   0.754  1.00  0.00     0.001 C 
HETATM    9  C   UNL     1       3.213   4.764   0.165  1.00  0.00     0.000 C 
HETATM   10  C   UNL     1       4.435   4.078  -0.437  1.00  0.00     0.002 C 
HETATM   11  C   UNL     1       4.901   2.802   0.263  1.00  0.00     0.026 C 
BRANCH   6  12
HETATM   12  C   UNL     1       2.058   0.082   0.015  1.00  0.00     0.170 C 
BRANCH  12  13
HETATM   13  O   UNL     1       1.765   0.001  -1.375  1.00  0.00    -0.400 OA
HETATM   14  H   UNL     1       1.476  -0.914  -1.544  1.00  0.00     0.209 HD
ENDBRANCH  12  13
ENDBRANCH   6  12
ENDBRANCH   1   5
BRANCH   2  15
HETATM   15  C   UNL     1       5.093   0.600  -3.747  1.00  0.00     0.161 C 
BRANCH  15  16
HETATM   16  C   UNL     1       5.722   1.749  -4.444  1.00  0.00     0.043 A 
HETATM   17  C   UNL     1       7.086   2.125  -4.464  1.00  0.00     0.054 A 
HETATM   18  C   UNL     1       7.118   3.237  -5.260  1.00  0.00     0.169 A 
HETATM   19  O   UNL     1       5.866   3.514  -5.702  1.00  0.00    -0.250 OA
HETATM   20  N   UNL     1       4.981   2.579  -5.192  1.00  0.00    -0.265 N 
ATOM     21  HN  UNL     1       3.975   2.532  -5.352  1.00  0.00     0.194 HD
ENDBRANCH  15  16
ENDBRANCH   2  15
TORSDOF 5
