REMARK  3 active torsions:
REMARK  status: ('A' for Active; 'I' for Inactive)
REMARK    1  A    between atoms: C_4  and  O_6 
REMARK    2  A    between atoms: C_4  and  C_7 
REMARK    3  A    between atoms: N_9  and  C_13 
ROOT
HETATM    1  C   UNL     2       3.098   0.784   0.915  1.00  0.00     0.074 A 
HETATM    2  C   UNL     2       2.870   2.127   1.160  1.00  0.00     0.137 A 
HETATM    3  N   UNL     2       3.318   2.364   2.407  1.00  0.00    -0.277 N 
HETATM    4  N   UNL     2       3.810   1.236   2.896  1.00  0.00    -0.020 NA
HETATM    5  N   UNL     2       3.690   0.259   2.010  1.00  0.00    -0.284 N 
ATOM      6  HN  UNL     2       3.989  -0.709   2.132  1.00  0.00     0.184 HD
ENDROOT
BRANCH   1   7
HETATM    7  C   UNL     2       2.714  -0.001  -0.321  1.00  0.00     0.095 C 
HETATM    8  C   UNL     2       3.134  -1.480  -0.161  1.00  0.00     0.052 C 
HETATM    9  C   UNL     2       3.396   0.599  -1.562  1.00  0.00     0.052 C 
BRANCH   7  10
HETATM   10  O   UNL     2       1.315   0.087  -0.461  1.00  0.00    -0.384 OA
HETATM   11  H   UNL     2       1.029  -0.550  -1.168  1.00  0.00     0.211 HD
ENDBRANCH   7  10
ENDBRANCH   1   7
BRANCH   3  12
HETATM   12  C   UNL     2       3.276   3.634   3.134  1.00  0.00     0.161 C 
HETATM   13  C   UNL     2       3.240   3.517   4.652  1.00  0.00     0.298 C 
HETATM   14  N   UNL     2       2.085   4.412   4.756  1.00  0.00     0.087 N 
HETATM   15  C   UNL     2       1.889   4.229   3.314  1.00  0.00     0.298 C 
HETATM   16  H   UNL     2       2.457   5.381   4.903  1.00  0.00     0.316 HD
ENDBRANCH   3  12
TORSDOF 3
