REMARK  4 active torsions:
REMARK  status: ('A' for Active; 'I' for Inactive)
REMARK    1  A    between atoms: C_2  and  C_5 
REMARK    2  A    between atoms: C_9  and  N_11 
REMARK       I    between atoms: N_11  and  C_12 
REMARK    3  A    between atoms: C_12  and  C_14 
REMARK    4  A    between atoms: C_14  and  N_15 
ROOT
HETATM    1  N   UNL     1       5.930  -0.319  -1.354  1.00  0.00    -0.355 N 
HETATM    2  C   UNL     1       6.057  -1.684  -1.171  1.00  0.00     0.237 C 
HETATM    3  O   UNL     1       5.101  -2.415  -0.921  1.00  0.00    -0.272 OA
HETATM    4  H   UNL     1       6.758   0.266  -1.323  1.00  0.00     0.162 HD
ENDROOT
BRANCH   1   5
HETATM    5  C   UNL     1       4.631   0.316  -1.193  1.00  0.00     0.085 C 
HETATM    6  C   UNL     1       4.504   1.575  -2.053  1.00  0.00     0.025 C 
HETATM    7  C   UNL     1       3.119   2.202  -1.893  1.00  0.00     0.003 C 
HETATM    8  C   UNL     1       2.765   2.464  -0.427  1.00  0.00     0.014 C 
HETATM    9  C   UNL     1       2.954   1.235   0.481  1.00  0.00     0.095 C 
HETATM   10  C   UNL     1       4.359   0.647   0.281  1.00  0.00     0.038 C 
BRANCH   9  11
HETATM   11  C   UNL     1       1.843   0.186   0.318  1.00  0.00     0.391 C 
HETATM   12  F   UNL     1       0.959   0.520  -0.646  1.00  0.00    -0.171 F 
HETATM   13  F   UNL     1       1.146   0.067   1.472  1.00  0.00    -0.171 F 
HETATM   14  F   UNL     1       2.320  -1.039   0.020  1.00  0.00    -0.171 F 
ENDBRANCH   9  11
ENDBRANCH   1   5
BRANCH   2  15
HETATM   15  C   UNL     1       7.447  -2.243  -1.329  1.00  0.00     0.249 C 
BRANCH  15  16
HETATM   16  N   UNL     1       7.894  -2.861  -0.108  1.00  0.00    -0.264 N 
HETATM   17  C   UNL     1       7.371  -3.921   0.560  1.00  0.00     0.213 A 
HETATM   18  N   UNL     1       8.134  -4.168   1.600  1.00  0.00    -0.281 N 
HETATM   19  N   UNL     1       9.146  -3.236   1.560  1.00  0.00    -0.008 NA
ATOM     20  HN  UNL     1       8.003  -4.902   2.296  1.00  0.00     0.184 HD
HETATM   21  N   UNL     1       9.006  -2.432   0.510  1.00  0.00    -0.005 NA
ENDBRANCH  15  16
ENDBRANCH   2  15
TORSDOF 4
