REMARK  3 active torsions:
REMARK  status: ('A' for Active; 'I' for Inactive)
REMARK    1  A    between atoms: O_1  and  C_2 
REMARK    2  A    between atoms: C_2  and  C_4 
REMARK    3  A    between atoms: C_4  and  C_5 
ROOT
HETATM    1  C   UNL     1       4.563  -0.968  -0.347  1.00  0.00     0.029 A 
HETATM    2  C   UNL     1       5.391  -2.021  -0.299  1.00  0.00     0.100 A 
HETATM    3  C   UNL     1       6.849  -1.798  -0.209  1.00  0.00     0.251 A 
HETATM    4  O   UNL     1       7.623  -2.745  -0.135  1.00  0.00    -0.268 OA
HETATM    5  N   UNL     1       7.256  -0.497  -0.199  1.00  0.00    -0.275 N 
HETATM    6  C   UNL     1       6.426   0.584  -0.242  1.00  0.00     0.327 A 
HETATM    7  O   UNL     1       6.847   1.735  -0.217  1.00  0.00    -0.247 OA
HETATM    8  N   UNL     1       5.088   0.303  -0.304  1.00  0.00    -0.312 N 
HETATM    9  H   UNL     1       8.246  -0.316  -0.144  1.00  0.00     0.173 HD
HETATM   10  H   UNL     1       4.490   1.118  -0.393  1.00  0.00     0.170 HD
ENDROOT
BRANCH   1  11
HETATM   11  C   UNL     1       3.063  -1.116  -0.395  1.00  0.00     0.167 C 
BRANCH  11  12
HETATM   12  C   UNL     1       2.431  -0.566  -1.665  1.00  0.00     0.145 C 
HETATM   13  O   UNL     1       3.023   0.001  -2.569  1.00  0.00    -0.650 OA
BRANCH  12  14
HETATM   14  O   UNL     1       1.087  -0.741  -1.690  1.00  0.00    -0.776 OA
HETATM   15  H   UNL     1       0.715  -1.193  -0.909  1.00  0.00     0.167 HD
ENDBRANCH  12  14
ENDBRANCH  11  12
ENDBRANCH   1  11
TORSDOF 3
