REMARK  5 active torsions:
REMARK  status: ('A' for Active; 'I' for Inactive)
REMARK    1  A    between atoms: O_2  and  C_3 
REMARK    2  A    between atoms: C_3  and  C_4 
REMARK    3  A    between atoms: C_4  and  N_5 
REMARK    4  A    between atoms: C_6  and  N_7 
REMARK    5  A    between atoms: N_7  and  N_8 
ROOT
HETATM    1  N   UNL     1       4.884   2.382  -0.699  1.00  0.00    -0.171 N 
HETATM    2  C   UNL     1       4.436   3.662  -0.404  1.00  0.00     0.697 A 
HETATM    3  N   UNL     1       5.224   4.571  -0.959  1.00  0.00    -0.173 N 
ATOM      4  HN  UNL     1       5.143   5.585  -0.888  1.00  0.00     0.186 HD
HETATM    5  C   UNL     1       6.163   3.867  -1.643  1.00  0.00     0.160 A 
HETATM    6  N   UNL     1       7.177   4.386  -2.419  1.00  0.00    -0.287 N 
HETATM    7  C   UNL     1       7.338   5.811  -2.631  1.00  0.00     0.163 C 
HETATM    8  C   UNL     1       8.075   3.523  -3.049  1.00  0.00     0.332 A 
HETATM    9  O   UNL     1       8.995   3.956  -3.745  1.00  0.00    -0.246 OA
HETATM   10  N   UNL     1       7.876   2.146  -2.863  1.00  0.00    -0.269 N 
HETATM   11  C   UNL     1       8.793   1.217  -3.496  1.00  0.00     0.164 C 
HETATM   12  C   UNL     1       6.828   1.571  -2.144  1.00  0.00     0.282 A 
HETATM   13  O   UNL     1       6.648   0.359  -2.076  1.00  0.00    -0.265 OA
HETATM   14  C   UNL     1       5.987   2.524  -1.505  1.00  0.00     0.164 A 
ENDROOT
BRANCH   2  15
HETATM   15  N   UNL     1       3.338   3.894   0.366  1.00  0.00    -0.156 N 
HETATM   16  H   UNL     1       2.657   3.153   0.536  1.00  0.00     0.199 HD
BRANCH  15  17
HETATM   17  N   UNL     1       2.776   5.169   0.125  1.00  0.00    -0.235 NA
HETATM   18  H   UNL     1       3.481   5.770  -0.325  1.00  0.00     0.143 HD
HETATM   19  H   UNL     1       2.576   5.630   1.015  1.00  0.00     0.143 HD
ENDBRANCH  15  17
ENDBRANCH   2  15
BRANCH   1  20
HETATM   20  C   UNL     1       4.243   1.127  -0.369  1.00  0.00     0.174 C 
BRANCH  20  21
HETATM   21  C   UNL     1       5.041   0.198   0.544  1.00  0.00     0.187 C 
BRANCH  21  22
HETATM   22  O   UNL     1       4.249  -0.969   0.790  1.00  0.00    -0.394 OA
HETATM   23  C   UNL     1       5.015  -2.010   1.385  1.00  0.00     0.201 C 
ENDBRANCH  21  22
ENDBRANCH  20  21
ENDBRANCH   1  20
TORSDOF 5
