REMARK  4 active torsions:
REMARK  status: ('A' for Active; 'I' for Inactive)
REMARK    1  A    between atoms: N_6  and  C_7 
REMARK    2  A    between atoms: C_7  and  C_8 
REMARK       I    between atoms: C_8  and  N_10 
REMARK    3  A    between atoms: N_10  and  C_11 
REMARK    4  A    between atoms: C_11  and  C_12 
REMARK       I    between atoms: C_12  and  N_14 
ROOT
HETATM    1  C   UNL     1       5.406  -3.117  -0.161  1.00  0.00     0.237 C 
HETATM    2  O   UNL     1       4.227  -3.417  -0.374  1.00  0.00    -0.272 OA
HETATM    3  N   UNL     1       6.359  -4.084   0.062  1.00  0.00    -0.351 N 
HETATM    4  H   UNL     1       7.339  -3.828   0.191  1.00  0.00     0.163 HD
ENDROOT
BRANCH   1   5
HETATM    5  C   UNL     1       5.844  -1.674  -0.243  1.00  0.00     0.250 C 
BRANCH   5   6
HETATM    6  N   UNL     1       6.993  -1.342   0.574  1.00  0.00    -0.293 N 
HETATM    7  N   UNL     1       8.202  -1.868   0.272  1.00  0.00    -0.308 N 
HETATM    8  C   UNL     1       9.017  -1.303   1.177  1.00  0.00     0.132 A 
ATOM      9  HN  UNL     1       8.437  -2.533  -0.465  1.00  0.00     0.186 HD
HETATM   10  C   UNL     1       8.339  -0.417   2.027  1.00  0.00     0.068 A 
HETATM   11 CL   UNL     1       9.014   0.502   3.274  1.00  0.00    -0.081 Cl
HETATM   12  C   UNL     1       7.030  -0.455   1.612  1.00  0.00     0.136 A 
ENDBRANCH   5   6
ENDBRANCH   1   5
BRANCH   3  13
HETATM   13  C   UNL     1       5.984  -5.479   0.011  1.00  0.00     0.225 C 
BRANCH  13  14
HETATM   14  C   UNL     1       7.128  -6.489   0.177  1.00  0.00     0.237 C 
HETATM   15  O   UNL     1       8.170  -6.205   0.770  1.00  0.00    -0.272 OA
HETATM   16  N   UNL     1       6.876  -7.755  -0.328  1.00  0.00    -0.351 N 
HETATM   17  C   UNL     1       5.709  -8.156  -1.105  1.00  0.00     0.126 C 
HETATM   18  C   UNL     1       7.778  -8.871  -0.140  1.00  0.00     0.126 C 
HETATM   19  C   UNL     1       5.991  -9.574  -1.580  1.00  0.00     0.021 C 
HETATM   20  C   UNL     1       7.480  -9.788  -1.314  1.00  0.00     0.021 C 
ENDBRANCH  13  14
ENDBRANCH   3  13
TORSDOF 4
