REMARK  5 active torsions:
REMARK  status: ('A' for Active; 'I' for Inactive)
REMARK    1  A    between atoms: C_2  and  C_3 
REMARK       I    between atoms: C_2  and  N_11 
REMARK    2  A    between atoms: C_3  and  C_4 
REMARK    3  A    between atoms: N_11  and  C_12 
REMARK    4  A    between atoms: C_12  and  C_13 
REMARK    5  A    between atoms: C_13  and  C_14 
ROOT
HETATM    1  O   UNL     1       1.601   0.647  -0.465  1.00  0.00    -0.274 OA
HETATM    2  C   UNL     1       2.304  -0.047   0.260  1.00  0.00     0.217 C 
HETATM    3  N   UNL     1       2.636   0.297   1.553  1.00  0.00    -0.361 N 
HETATM    4  H   UNL     1       3.047  -0.418   2.140  1.00  0.00     0.162 HD
ENDROOT
BRANCH   3   5
HETATM    5  C   UNL     1       1.998   1.423   2.218  1.00  0.00     0.128 C 
BRANCH   5   6
HETATM    6  C   UNL     1       2.801   1.868   3.435  1.00  0.00     0.076 C 
BRANCH   6   7
HETATM    7  C   UNL     1       2.198   3.066   4.115  1.00  0.00     0.010 A 
HETATM    8  C   UNL     1       2.526   4.354   3.700  1.00  0.00     0.025 A 
HETATM    9  C   UNL     1       1.976   5.439   4.377  1.00  0.00     0.003 A 
HETATM   10  C   UNL     1       1.112   5.211   5.440  1.00  0.00     0.017 A 
HETATM   11  C   UNL     1       0.825   3.900   5.779  1.00  0.00     0.088 A 
HETATM   12  N   UNL     1       1.344   2.827   5.141  1.00  0.00    -0.369 N 
ATOM     13  HN  UNL     1       1.103   1.876   5.420  1.00  0.00     0.165 HD
ENDBRANCH   6   7
ENDBRANCH   5   6
ENDBRANCH   3   5
BRANCH   2  14
HETATM   14  C   UNL     1       2.907  -1.367  -0.194  1.00  0.00     0.108 C 
BRANCH  14  15
HETATM   15  C   UNL     1       1.853  -2.250  -0.854  1.00  0.00    -0.001 C 
HETATM   16  C   UNL     1       0.717  -2.701   0.092  1.00  0.00     0.010 C 
HETATM   17  C   UNL     1       0.611  -4.213  -0.187  1.00  0.00    -0.014 C 
HETATM   18  C   UNL     1       1.786  -4.919   0.508  1.00  0.00     0.005 C 
HETATM   19  C   UNL     1       1.023  -4.314  -1.656  1.00  0.00     0.009 C 
HETATM   20  C   UNL     1       2.991  -4.485  -0.339  1.00  0.00     0.005 C 
HETATM   21  C   UNL     1       2.357  -3.596  -1.426  1.00  0.00    -0.010 C 
ENDBRANCH  14  15
ENDBRANCH   2  14
TORSDOF 5
