REMARK  8 active torsions:
REMARK  status: ('A' for Active; 'I' for Inactive)
REMARK    1  A    between atoms: O_2  and  C_3 
REMARK    2  A    between atoms: C_3  and  C_4 
REMARK    3  A    between atoms: C_4  and  O_5 
REMARK    4  A    between atoms: O_5  and  C_6 
REMARK    5  A    between atoms: C_11  and  C_14 
REMARK       I    between atoms: C_14  and  N_16 
REMARK    6  A    between atoms: N_19  and  C_20 
REMARK    7  A    between atoms: C_20  and  C_21 
REMARK    8  A    between atoms: C_21  and  O_22 
ROOT
HETATM    1  C   UNL     1       6.366   1.213  -2.299  1.00  0.00     0.142 A 
HETATM    2  C   UNL     1       6.898   2.450  -2.605  1.00  0.00     0.058 A 
HETATM    3  C   UNL     1       8.256   2.528  -2.904  1.00  0.00     0.030 A 
HETATM    4  C   UNL     1       9.030   1.364  -2.936  1.00  0.00     0.066 A 
HETATM    5 CL   UNL     1      10.684   1.532  -3.390  1.00  0.00    -0.082 Cl
HETATM    6  C   UNL     1       8.400   0.152  -2.647  1.00  0.00     0.124 A 
HETATM    7  N   UNL     1       7.085   0.074  -2.288  1.00  0.00    -0.331 N 
ATOM      8  HN  UNL     1       6.662  -0.815  -2.021  1.00  0.00     0.168 HD
ENDROOT
BRANCH   6   9
HETATM    9  C   UNL     1       9.133  -1.160  -2.688  1.00  0.00     0.272 C 
HETATM   10  O   UNL     1      10.282  -1.205  -2.245  1.00  0.00    -0.266 OA
HETATM   11  N   UNL     1       8.515  -2.314  -3.222  1.00  0.00    -0.343 N 
HETATM   12  C   UNL     1       9.221  -3.586  -3.047  1.00  0.00     0.156 C 
HETATM   13  C   UNL     1       7.078  -2.418  -3.510  1.00  0.00     0.156 C 
HETATM   14  C   UNL     1       8.774  -4.685  -4.037  1.00  0.00     0.292 C 
HETATM   15  N   UNL     1       7.306  -4.870  -4.157  1.00  0.00     0.093 N 
HETATM   16  C   UNL     1       6.725  -3.553  -4.488  1.00  0.00     0.292 C 
BRANCH  15  17
HETATM   17  C   UNL     1       6.754  -5.472  -2.922  1.00  0.00     0.298 C 
BRANCH  17  18
HETATM   18  C   UNL     1       5.242  -5.748  -2.983  1.00  0.00     0.194 C 
BRANCH  18  19
HETATM   19  O   UNL     1       4.917  -6.530  -4.128  1.00  0.00    -0.399 OA
HETATM   20  H   UNL     1       5.503  -6.201  -4.839  1.00  0.00     0.209 HD
ENDBRANCH  18  19
ENDBRANCH  17  18
ENDBRANCH  15  17
ENDBRANCH   6   9
BRANCH   1  21
HETATM   21  O   UNL     1       5.011   1.164  -2.050  1.00  0.00    -0.334 OA
BRANCH  21  22
HETATM   22  C   UNL     1       4.600  -0.064  -1.435  1.00  0.00     0.203 C 
BRANCH  22  23
HETATM   23  C   UNL     1       3.079  -0.083  -1.318  1.00  0.00     0.193 C 
BRANCH  23  24
HETATM   24  O   UNL     1       2.509  -0.299  -2.614  1.00  0.00    -0.394 OA
HETATM   25  C   UNL     1       1.089  -0.325  -2.562  1.00  0.00     0.201 C 
ENDBRANCH  23  24
ENDBRANCH  22  23
ENDBRANCH  21  22
ENDBRANCH   1  21
TORSDOF 8
