REMARK  3 active torsions:
REMARK  status: ('A' for Active; 'I' for Inactive)
REMARK       I    between atoms: C_2  and  N_3 
REMARK       I    between atoms: C_2  and  N_10 
REMARK    1  A    between atoms: N_3  and  C_4 
REMARK    2  A    between atoms: C_4  and  C_5 
REMARK    3  A    between atoms: N_10  and  C_11 
ROOT
HETATM    1  O   UNL     1       1.118   0.314   0.278  1.00  0.00    -0.247 OA
HETATM    2  C   UNL     1       2.257   0.044  -0.080  1.00  0.00     0.320 C 
HETATM    3  N   UNL     1       2.953   0.810  -1.000  1.00  0.00    -0.342 N 
HETATM    4  N   UNL     1       3.008  -1.040   0.319  1.00  0.00    -0.308 N 
HETATM    5  H   UNL     1       3.949   0.840  -0.835  1.00  0.00     0.164 HD
HETATM    6  H   UNL     1       3.796  -1.259  -0.271  1.00  0.00     0.170 HD
ENDROOT
BRANCH   3   7
HETATM    7  C   UNL     1       2.354   2.032  -1.508  1.00  0.00     0.131 C 
BRANCH   7   8
HETATM    8  C   UNL     1       2.912   2.433  -2.866  1.00  0.00     0.029 C 
HETATM    9  C   UNL     1       4.395   2.748  -2.893  1.00  0.00     0.034 C 
HETATM   10  C   UNL     1       4.532   3.777  -4.003  1.00  0.00     0.168 C 
HETATM   11  O   UNL     1       3.214   4.208  -4.366  1.00  0.00    -0.391 OA
HETATM   12  C   UNL     1       2.306   3.728  -3.371  1.00  0.00     0.173 C 
ENDBRANCH   7   8
ENDBRANCH   3   7
BRANCH   4  13
HETATM   13  C   UNL     1       2.647  -2.006   1.285  1.00  0.00     0.051 A 
HETATM   14  C   UNL     1       1.583  -1.866   2.172  1.00  0.00     0.032 A 
HETATM   15  C   UNL     1       1.299  -2.884   3.084  1.00  0.00     0.019 A 
HETATM   16  C   UNL     1       2.100  -4.013   3.085  1.00  0.00     0.088 A 
HETATM   17  N   UNL     1       3.154  -4.181   2.260  1.00  0.00    -0.373 N 
HETATM   18  C   UNL     1       3.401  -3.176   1.385  1.00  0.00     0.117 A 
ATOM     19  HN  UNL     1       3.734  -5.019   2.293  1.00  0.00     0.164 HD
ENDBRANCH   4  13
TORSDOF 3
