REMARK  3 active torsions:
REMARK  status: ('A' for Active; 'I' for Inactive)
REMARK    1  A    between atoms: C_2  and  C_3 
REMARK       I    between atoms: C_2  and  N_12 
REMARK    2  A    between atoms: C_3  and  N_4 
REMARK    3  A    between atoms: N_12  and  C_13 
ROOT
HETATM    1  O   UNL     1       2.646  -0.636   0.867  1.00  0.00    -0.272 OA
HETATM    2  C   UNL     1       2.136  -0.210  -0.168  1.00  0.00     0.236 C 
HETATM    3  N   UNL     1       2.866   0.265  -1.239  1.00  0.00    -0.355 N 
HETATM    4  H   UNL     1       2.363   0.708  -2.005  1.00  0.00     0.162 HD
ENDROOT
BRANCH   2   5
HETATM    5  C   UNL     1       0.620  -0.091  -0.328  1.00  0.00     0.235 C 
BRANCH   5   6
HETATM    6  N   UNL     1       0.147   1.189   0.187  1.00  0.00    -0.301 N 
HETATM    7  C   UNL     1      -0.251   1.299   1.501  1.00  0.00     0.097 A 
HETATM    8  C   UNL     1      -0.680   2.460   1.992  1.00  0.00     0.034 A 
HETATM    9  C   UNL     1      -0.680   3.565   1.025  1.00  0.00     0.094 A 
HETATM   10  N   UNL     1      -0.294   3.494  -0.202  1.00  0.00    -0.319 N 
HETATM   11  C   UNL     1       0.162   2.289  -0.679  1.00  0.00     0.326 A 
ATOM     12  HN  UNL     1      -0.326   4.315  -0.806  1.00  0.00     0.170 HD
HETATM   13  O   UNL     1       0.576   2.173  -1.832  1.00  0.00    -0.246 OA
ENDBRANCH   5   6
ENDBRANCH   2   5
BRANCH   3  14
HETATM   14  C   UNL     1       4.329   0.261  -1.262  1.00  0.00     0.084 C 
HETATM   15  C   UNL     1       4.834   1.454  -2.089  1.00  0.00     0.025 C 
HETATM   16  C   UNL     1       6.305   1.771  -1.832  1.00  0.00     0.002 C 
HETATM   17  C   UNL     1       7.303   0.998  -2.688  1.00  0.00     0.000 C 
HETATM   18  C   UNL     1       6.977  -0.460  -2.993  1.00  0.00     0.000 C 
HETATM   19  C   UNL     1       6.358  -1.240  -1.837  1.00  0.00     0.002 C 
HETATM   20  C   UNL     1       4.836  -1.098  -1.766  1.00  0.00     0.025 C 
ENDBRANCH   3  14
TORSDOF 3
