REMARK  5 active torsions:
REMARK  status: ('A' for Active; 'I' for Inactive)
REMARK    1  A    between atoms: C_3  and  C_4 
REMARK    2  A    between atoms: C_5  and  C_6 
REMARK       I    between atoms: C_6  and  N_8 
REMARK    3  A    between atoms: N_8  and  C_9 
REMARK    4  A    between atoms: C_9  and  C_10 
REMARK    5  A    between atoms: C_10  and  C_11 
ROOT
HETATM    1  C   UNL     1       2.344  -4.259   2.568  1.00  0.00     0.223 C 
HETATM    2  O   UNL     1       2.213  -3.826   3.707  1.00  0.00    -0.273 OA
HETATM    3  N   UNL     1       2.566  -5.587   2.274  1.00  0.00    -0.360 N 
HETATM    4  H   UNL     1       2.522  -5.882   1.308  1.00  0.00     0.162 HD
ENDROOT
BRANCH   1   5
HETATM    5  C   UNL     1       2.280  -3.362   1.374  1.00  0.00     0.094 A 
HETATM    6  C   UNL     1       2.284  -1.854   1.546  1.00  0.00     0.030 A 
HETATM    7  C   UNL     1       1.035  -2.549   1.027  1.00  0.00    -0.027 A 
HETATM    8  C   UNL     1      -0.166  -2.491   1.939  1.00  0.00     0.016 C 
HETATM    9  C   UNL     1       0.661  -2.502  -0.438  1.00  0.00     0.016 C 
BRANCH   6  10
HETATM   10  C   UNL     1       3.069  -0.996   0.643  1.00  0.00    -0.019 C 
HETATM   11  C   UNL     1       2.796   0.279   0.301  1.00  0.00    -0.091 C 
HETATM   12  C   UNL     1       1.609   1.048   0.813  1.00  0.00     0.042 C 
HETATM   13  C   UNL     1       3.687   1.033  -0.648  1.00  0.00     0.042 C 
ENDBRANCH   6  10
ENDBRANCH   1   5
BRANCH   3  14
HETATM   14  C   UNL     1       2.589  -6.595   3.329  1.00  0.00     0.128 C 
BRANCH  14  15
HETATM   15  C   UNL     1       2.975  -7.977   2.807  1.00  0.00     0.076 C 
BRANCH  15  16
HETATM   16  C   UNL     1       3.023  -9.018   3.897  1.00  0.00     0.010 A 
HETATM   17  C   UNL     1       4.200  -9.256   4.603  1.00  0.00     0.025 A 
HETATM   18  C   UNL     1       4.216 -10.256   5.574  1.00  0.00     0.003 A 
HETATM   19  C   UNL     1       3.059 -10.985   5.820  1.00  0.00     0.017 A 
HETATM   20  C   UNL     1       1.929 -10.678   5.085  1.00  0.00     0.088 A 
HETATM   21  N   UNL     1       1.885  -9.715   4.133  1.00  0.00    -0.369 N 
ATOM     22  HN  UNL     1       1.028  -9.522   3.614  1.00  0.00     0.165 HD
ENDBRANCH  15  16
ENDBRANCH  14  15
ENDBRANCH   3  14
TORSDOF 5
