REMARK  4 active torsions:
REMARK  status: ('A' for Active; 'I' for Inactive)
REMARK    1  A    between atoms: C_2  and  C_5 
REMARK    2  A    between atoms: C_11  and  N_12 
REMARK    3  A    between atoms: N_12  and  C_13 
REMARK    4  A    between atoms: C_13  and  C_14 
ROOT
HETATM    1  C   UNL     1       2.414  -2.847  -1.534  1.00  0.00     0.086 A 
HETATM    2  C   UNL     1       3.707  -2.864  -2.087  1.00  0.00     0.021 A 
HETATM    3  C   UNL     1       4.774  -2.329  -1.381  1.00  0.00     0.018 A 
HETATM    4  C   UNL     1       4.510  -1.782  -0.148  1.00  0.00     0.089 A 
HETATM    5  N   UNL     1       3.277  -1.741   0.403  1.00  0.00    -0.356 N 
ATOM      6  HN  UNL     1       3.134  -1.314   1.318  1.00  0.00     0.166 HD
HETATM    7  C   UNL     1       2.234  -2.275  -0.276  1.00  0.00     0.095 A 
ENDROOT
BRANCH   7   8
HETATM    8  N   UNL     1       0.972  -2.223   0.310  1.00  0.00    -0.276 NA
HETATM    9  H   UNL     1       0.616  -3.144   0.563  1.00  0.00     0.129 HD
BRANCH   8  10
HETATM   10  C   UNL     1       0.752  -1.230   1.371  1.00  0.00     0.125 C 
BRANCH  10  11
HETATM   11  C   UNL     1       0.632  -1.821   2.780  1.00  0.00     0.134 C 
HETATM   12  C   UNL     1       1.836  -2.570   3.332  1.00  0.00     0.035 C 
HETATM   13  C   UNL     1       1.240  -3.694   4.159  1.00  0.00     0.029 C 
HETATM   14  C   UNL     1      -0.255  -3.471   4.089  1.00  0.00     0.168 C 
HETATM   15  O   UNL     1      -0.469  -2.746   2.874  1.00  0.00    -0.385 OA
ENDBRANCH  10  11
ENDBRANCH   8  10
ENDBRANCH   7   8
BRANCH   1  16
HETATM   16  C   UNL     1       1.255  -3.383  -2.319  1.00  0.00     0.420 C 
HETATM   17  F   UNL     1       1.631  -3.892  -3.534  1.00  0.00    -0.166 F 
HETATM   18  F   UNL     1       0.304  -2.453  -2.612  1.00  0.00    -0.166 F 
HETATM   19  F   UNL     1       0.612  -4.411  -1.695  1.00  0.00    -0.166 F 
ENDBRANCH   1  16
TORSDOF 4
