REMARK  4 active torsions:
REMARK  status: ('A' for Active; 'I' for Inactive)
REMARK    1  A    between atoms: C_5  and  C_9 
REMARK       I    between atoms: C_9  and  N_11 
REMARK    2  A    between atoms: N_11  and  C_12 
REMARK    3  A    between atoms: N_15  and  C_16 
REMARK    4  A    between atoms: C_16  and  C_17 
REMARK       I    between atoms: C_17  and  N_19 
ROOT
HETATM    1  C   UNL     1       7.586   1.059   1.708  1.00  0.00     0.123 A 
HETATM    2  C   UNL     1       8.513   2.094   1.981  1.00  0.00     0.068 A 
HETATM    3  C   UNL     1       9.064   1.778   3.204  1.00  0.00     0.114 A 
HETATM    4  N   UNL     1       8.464   0.617   3.588  1.00  0.00    -0.293 N 
HETATM    5  N   UNL     1       7.557   0.180   2.707  1.00  0.00    -0.283 N 
ATOM      6  HN  UNL     1       6.969  -0.650   2.784  1.00  0.00     0.189 HD
ENDROOT
BRANCH   1   7
HETATM    7  N   UNL     1       6.819   0.960   0.565  1.00  0.00    -0.312 N 
HETATM    8  C   UNL     1       5.931  -0.073   0.335  1.00  0.00     0.228 C 
HETATM    9  O   UNL     1       5.656  -0.981   1.117  1.00  0.00    -0.273 OA
HETATM   10  H   UNL     1       6.936   1.696  -0.114  1.00  0.00     0.170 HD
BRANCH   8  11
HETATM   11  C   UNL     1       5.200   0.020  -1.007  1.00  0.00     0.088 C 
HETATM   12  C   UNL     1       4.185  -1.116  -1.167  1.00  0.00     0.034 C 
HETATM   13  C   UNL     1       4.893  -2.437  -1.431  1.00  0.00     0.126 C 
HETATM   14  N   UNL     1       5.769  -2.343  -2.588  1.00  0.00    -0.356 N 
HETATM   15  C   UNL     1       6.155  -3.582  -3.235  1.00  0.00     0.152 C 
HETATM   16  C   UNL     1       6.660  -1.281  -2.675  1.00  0.00     0.220 C 
HETATM   17  C   UNL     1       6.135   0.063  -2.209  1.00  0.00     0.117 C 
HETATM   18  O   UNL     1       7.751  -1.357  -3.239  1.00  0.00    -0.273 OA
ENDBRANCH   8  11
ENDBRANCH   1   7
BRANCH   4  19
HETATM   19  C   UNL     1       8.725  -0.186   4.764  1.00  0.00     0.250 C 
BRANCH  19  20
HETATM   20  C   UNL     1       8.271   0.513   6.013  1.00  0.00     0.235 C 
HETATM   21  O   UNL     1       9.000   1.253   6.672  1.00  0.00    -0.272 OA
HETATM   22  N   UNL     1       6.982   0.280   6.409  1.00  0.00    -0.369 N 
HETATM   23  H   UNL     1       6.298  -0.087   5.757  1.00  0.00     0.159 HD
HETATM   24  H   UNL     1       6.642   0.814   7.198  1.00  0.00     0.159 HD
ENDBRANCH  19  20
ENDBRANCH   4  19
TORSDOF 4
