REMARK  3 active torsions:
REMARK  status: ('A' for Active; 'I' for Inactive)
REMARK    1  A    between atoms: C_2  and  C_4 
REMARK    2  A    between atoms: C_9  and  N_12 
REMARK    3  A    between atoms: C_17  and  C_18 
REMARK       I    between atoms: C_18  and  N_20 
ROOT
HETATM    1  C   UNL     1       2.880  -0.960  -1.270  1.00  0.00     0.086 A 
HETATM    2  N   UNL     1       3.768  -0.320  -2.053  1.00  0.00    -0.355 N 
ATOM      3  HN  UNL     1       4.026   0.653  -1.890  1.00  0.00     0.166 HD
HETATM    4  C   UNL     1       4.293  -1.031  -3.057  1.00  0.00     0.093 A 
HETATM    5  C   UNL     1       3.953  -2.335  -3.306  1.00  0.00     0.065 A 
HETATM    6  C   UNL     1       2.991  -2.910  -2.492  1.00  0.00     0.106 A 
HETATM    7  N   UNL     1       2.459  -2.233  -1.461  1.00  0.00    -0.332 N 
ATOM      8  HN  UNL     1       1.766  -2.660  -0.847  1.00  0.00     0.168 HD
ENDROOT
BRANCH   6   9
HETATM    9  N   UNL     1       2.625  -4.226  -2.749  1.00  0.00    -0.350 N 
HETATM   10  C   UNL     1       2.209  -5.041  -1.594  1.00  0.00     0.151 C 
HETATM   11  C   UNL     1       2.330  -6.528  -2.000  1.00  0.00     0.187 C 
HETATM   12  O   UNL     1       1.568  -6.838  -3.185  1.00  0.00    -0.387 OA
HETATM   13  C   UNL     1       1.960  -5.986  -4.286  1.00  0.00     0.202 C 
HETATM   14  C   UNL     1       1.735  -4.510  -3.918  1.00  0.00     0.201 C 
BRANCH  14  15
HETATM   15  C   UNL     1       1.947  -3.617  -5.145  1.00  0.00     0.240 C 
HETATM   16  O   UNL     1       2.691  -3.881  -6.082  1.00  0.00    -0.271 OA
HETATM   17  N   UNL     1       1.249  -2.435  -5.123  1.00  0.00    -0.368 N 
HETATM   18  H   UNL     1       0.907  -2.061  -4.244  1.00  0.00     0.159 HD
HETATM   19  H   UNL     1       1.463  -1.769  -5.854  1.00  0.00     0.159 HD
ENDBRANCH  14  15
ENDBRANCH   6   9
BRANCH   1  20
HETATM   20  C   UNL     1       2.378  -0.188  -0.069  1.00  0.00     0.045 C 
HETATM   21  C   UNL     1       0.857  -0.068  -0.069  1.00  0.00     0.017 C 
HETATM   22  C   UNL     1       2.895  -0.812   1.226  1.00  0.00     0.017 C 
ENDBRANCH   1  20
TORSDOF 3
