REMARK  4 active torsions:
REMARK  status: ('A' for Active; 'I' for Inactive)
REMARK    1  A    between atoms: C_2  and  C_3 
REMARK    2  A    between atoms: C_8  and  N_9 
REMARK    3  A    between atoms: N_9  and  C_10 
REMARK    4  A    between atoms: C_20  and  C_21 
ROOT
HETATM    1  C   UNL     1       2.958  -1.228   0.903  1.00  0.00     0.033 A 
HETATM    2  N   UNL     1       2.510  -2.479   0.668  1.00  0.00    -0.303 N 
ATOM      3  HN  UNL     1       1.893  -2.645  -0.127  1.00  0.00     0.186 HD
HETATM    4  N   UNL     1       2.862  -3.528   1.468  1.00  0.00    -0.289 N 
ATOM      5  HN  UNL     1       2.489  -4.454   1.260  1.00  0.00     0.188 HD
HETATM    6  C   UNL     1       3.679  -3.379   2.514  1.00  0.00     0.117 A 
HETATM    7  C   UNL     1       4.161  -2.096   2.792  1.00  0.00     0.092 A 
HETATM    8  C   UNL     1       5.026  -1.928   3.928  1.00  0.00     0.103 C 
HETATM    9  N   UNL     1       5.693  -1.788   4.869  1.00  0.00    -0.191 NA
HETATM   10  C   UNL     1       3.780  -0.962   2.000  1.00  0.00    -0.010 A 
ENDROOT
BRANCH   6  11
HETATM   11  N   UNL     1       4.110  -4.531   3.210  1.00  0.00    -0.269 NA
HETATM   12  H   UNL     1       4.283  -4.315   4.191  1.00  0.00     0.129 HD
BRANCH  11  13
HETATM   13  C   UNL     1       3.209  -5.694   3.108  1.00  0.00     0.093 C 
HETATM   14  C   UNL     1       3.796  -6.906   3.861  1.00  0.00     0.054 C 
HETATM   15  C   UNL     1       3.680  -8.031   2.828  1.00  0.00     0.123 C 
HETATM   16  C   UNL     1       4.742  -7.898   1.742  1.00  0.00     0.034 C 
HETATM   17  O   UNL     1       2.500  -7.643   2.096  1.00  0.00    -0.379 OA
HETATM   18  C   UNL     1       4.272  -6.653   0.992  1.00  0.00     0.036 C 
HETATM   19  C   UNL     1       2.969  -6.316   1.717  1.00  0.00     0.140 C 
ENDBRANCH  11  13
ENDBRANCH   6  11
BRANCH  10  20
HETATM   20  C   UNL     1       4.290   0.399   2.456  1.00  0.00     0.038 C 
HETATM   21  C   UNL     1       3.989   1.690   1.710  1.00  0.00     0.010 C 
ENDBRANCH  10  20
BRANCH   1  22
HETATM   22  C   UNL     1       2.441  -0.264  -0.122  1.00  0.00     0.055 C 
HETATM   23  C   UNL     1       1.069   0.281   0.243  1.00  0.00     0.011 C 
ENDBRANCH   1  22
TORSDOF 4
