REMARK  3 active torsions:
REMARK  status: ('A' for Active; 'I' for Inactive)
REMARK    1  A    between atoms: C_8  and  N_9 
REMARK       I    between atoms: N_9  and  C_10 
REMARK       I    between atoms: C_10  and  N_12 
REMARK    2  A    between atoms: N_12  and  C_13 
REMARK    3  A    between atoms: C_17  and  C_19 
ROOT
HETATM    1  N   UNL     1       2.044  -2.633   0.533  1.00  0.00    -0.306 N 
HETATM    2  C   UNL     1       0.670  -2.657   0.555  1.00  0.00     0.321 C 
HETATM    3  O   UNL     1      -0.049  -1.823   1.095  1.00  0.00    -0.247 OA
HETATM    4  N   UNL     1       0.132  -3.731  -0.115  1.00  0.00    -0.338 N 
HETATM    5  H   UNL     1       2.530  -3.452   0.191  1.00  0.00     0.171 HD
HETATM    6  H   UNL     1       0.733  -4.469  -0.448  1.00  0.00     0.164 HD
ENDROOT
BRANCH   1   7
HETATM    7  C   UNL     1       2.855  -1.631   1.130  1.00  0.00     0.077 A 
HETATM    8  C   UNL     1       4.214  -1.881   1.295  1.00  0.00     0.158 A 
HETATM    9  F   UNL     1       4.752  -3.038   0.884  1.00  0.00    -0.202 F 
HETATM   10  C   UNL     1       5.005  -0.927   1.920  1.00  0.00     0.132 A 
HETATM   11  N   UNL     1       4.536   0.258   2.370  1.00  0.00    -0.372 N 
HETATM   12  C   UNL     1       3.221   0.493   2.178  1.00  0.00     0.090 A 
ATOM     13  HN  UNL     1       5.143   0.937   2.829  1.00  0.00     0.164 HD
HETATM   14  C   UNL     1       2.358  -0.403   1.567  1.00  0.00     0.050 A 
ENDBRANCH   1   7
BRANCH   4  15
HETATM   15  C   UNL     1      -1.320  -3.864  -0.225  1.00  0.00     0.086 C 
HETATM   16  C   UNL     1      -1.750  -5.313  -0.464  1.00  0.00     0.025 C 
HETATM   17  C   UNL     1      -1.447  -5.800  -1.878  1.00  0.00     0.003 C 
HETATM   18  C   UNL     1      -1.994  -4.852  -2.943  1.00  0.00     0.014 C 
HETATM   19  C   UNL     1      -1.519  -3.408  -2.729  1.00  0.00     0.095 C 
HETATM   20  C   UNL     1      -1.883  -2.936  -1.313  1.00  0.00     0.038 C 
BRANCH  19  21
HETATM   21  C   UNL     1      -2.057  -2.457  -3.800  1.00  0.00     0.391 C 
HETATM   22  F   UNL     1      -2.777  -3.105  -4.741  1.00  0.00    -0.171 F 
HETATM   23  F   UNL     1      -2.844  -1.489  -3.287  1.00  0.00    -0.171 F 
HETATM   24  F   UNL     1      -1.031  -1.846  -4.438  1.00  0.00    -0.171 F 
ENDBRANCH  19  21
ENDBRANCH   4  15
TORSDOF 3
