REMARK  6 active torsions:
REMARK  status: ('A' for Active; 'I' for Inactive)
REMARK    1  A    between atoms: C_2  and  C_3 
REMARK    2  A    between atoms: C_2  and  C_13 
REMARK    3  A    between atoms: C_3  and  N_4 
REMARK       I    between atoms: N_4  and  C_5 
REMARK    4  A    between atoms: C_5  and  C_7 
REMARK    5  A    between atoms: C_7  and  O_8 
REMARK    6  A    between atoms: O_8  and  C_9 
ROOT
HETATM    1  C   UNL     1       3.161  -0.435  -1.212  1.00  0.00     0.134 C 
ENDROOT
BRANCH   1   2
HETATM    2  C   UNL     1       4.535  -0.484  -0.513  1.00  0.00     0.069 C 
HETATM    3  C   UNL     1       4.483  -1.324   0.764  1.00  0.00     0.020 C 
BRANCH   2   4
HETATM    4  C   UNL     1       4.990   0.906  -0.210  1.00  0.00     0.112 A 
HETATM    5  N   UNL     1       4.742   1.634   0.860  1.00  0.00    -0.273 N 
HETATM    6  N   UNL     1       5.367   2.840   0.655  1.00  0.00    -0.007 NA
ATOM      7  HN  UNL     1       4.196   1.358   1.676  1.00  0.00     0.185 HD
HETATM    8  N   UNL     1       5.980   2.862  -0.521  1.00  0.00    -0.007 NA
HETATM    9  N   UNL     1       5.747   1.659  -1.063  1.00  0.00    -0.273 N 
HETATM   10  H   UNL     1       6.113   1.441  -1.978  1.00  0.00     0.185 HD
ENDBRANCH   2   4
ENDBRANCH   1   2
BRANCH   1  11
HETATM   11  N   UNL     1       2.695  -1.734  -1.670  1.00  0.00    -0.358 N 
HETATM   12  C   UNL     1       3.153  -2.297  -2.840  1.00  0.00     0.241 C 
HETATM   13  O   UNL     1       4.023  -1.770  -3.532  1.00  0.00    -0.271 OA
HETATM   14  H   UNL     1       1.900  -2.174  -1.216  1.00  0.00     0.162 HD
BRANCH  12  15
HETATM   15  C   UNL     1       2.583  -3.688  -3.144  1.00  0.00     0.271 C 
BRANCH  15  16
HETATM   16  O   UNL     1       1.165  -3.768  -3.046  1.00  0.00    -0.372 OA
BRANCH  16  17
HETATM   17  C   UNL     1       0.579  -5.048  -3.365  1.00  0.00     0.050 C 
HETATM   18  C   UNL     1       0.922  -6.083  -2.283  1.00  0.00     0.045 C 
HETATM   19  C   UNL     1      -0.945  -4.839  -3.367  1.00  0.00     0.045 C 
HETATM   20  C   UNL     1       0.989  -5.560  -4.753  1.00  0.00     0.045 C 
ENDBRANCH  16  17
ENDBRANCH  15  16
ENDBRANCH  12  15
ENDBRANCH   1  11
TORSDOF 6
