REMARK  4 active torsions:
REMARK  status: ('A' for Active; 'I' for Inactive)
REMARK       I    between atoms: C_2  and  N_3 
REMARK       I    between atoms: C_2  and  N_14 
REMARK    1  A    between atoms: N_3  and  C_4 
REMARK    2  A    between atoms: C_4  and  C_5 
REMARK    3  A    between atoms: C_5  and  N_6 
REMARK    4  A    between atoms: N_14  and  C_15 
ROOT
HETATM    1  O   UNL     1       1.018  -0.084   0.076  1.00  0.00    -0.247 OA
HETATM    2  C   UNL     1       2.235  -0.075  -0.061  1.00  0.00     0.320 C 
HETATM    3  N   UNL     1       2.943  -1.178  -0.495  1.00  0.00    -0.341 N 
HETATM    4  N   UNL     1       3.075   0.984   0.202  1.00  0.00    -0.308 N 
HETATM    5  H   UNL     1       3.716  -0.944  -1.103  1.00  0.00     0.164 HD
HETATM    6  H   UNL     1       4.038   0.733   0.383  1.00  0.00     0.170 HD
ENDROOT
BRANCH   3   7
HETATM    7  C   UNL     1       2.171  -2.350  -0.880  1.00  0.00     0.144 C 
BRANCH   7   8
HETATM    8  C   UNL     1       3.016  -3.577  -1.244  1.00  0.00     0.145 C 
BRANCH   8   9
HETATM    9  N   UNL     1       2.161  -4.664  -1.732  1.00  0.00    -0.351 N 
HETATM   10  C   UNL     1       1.314  -5.362  -0.766  1.00  0.00     0.126 C 
HETATM   11  C   UNL     1      -0.174  -5.154  -1.002  1.00  0.00     0.020 C 
HETATM   12  C   UNL     1      -0.772  -6.112  -2.031  1.00  0.00     0.002 C 
HETATM   13  C   UNL     1       0.130  -6.480  -3.207  1.00  0.00     0.009 C 
HETATM   14  C   UNL     1       0.915  -5.312  -3.769  1.00  0.00     0.103 C 
HETATM   15  C   UNL     1       2.226  -4.992  -3.075  1.00  0.00     0.219 C 
HETATM   16  O   UNL     1       3.256  -4.846  -3.736  1.00  0.00    -0.273 OA
ENDBRANCH   8   9
ENDBRANCH   7   8
ENDBRANCH   3   7
BRANCH   4  17
HETATM   17  C   UNL     1       2.681   2.306   0.499  1.00  0.00     0.051 A 
HETATM   18  C   UNL     1       1.404   2.806   0.248  1.00  0.00     0.032 A 
HETATM   19  C   UNL     1       1.110   4.138   0.540  1.00  0.00     0.019 A 
HETATM   20  C   UNL     1       2.108   4.933   1.077  1.00  0.00     0.088 A 
HETATM   21  N   UNL     1       3.357   4.492   1.332  1.00  0.00    -0.373 N 
HETATM   22  C   UNL     1       3.611   3.193   1.035  1.00  0.00     0.117 A 
ATOM     23  HN  UNL     1       4.072   5.103   1.727  1.00  0.00     0.164 HD
ENDBRANCH   4  17
TORSDOF 4
