REMARK  4 active torsions:
REMARK  status: ('A' for Active; 'I' for Inactive)
REMARK    1  A    between atoms: C_2  and  O_3 
REMARK    2  A    between atoms: O_3  and  C_4 
REMARK    3  A    between atoms: C_6  and  N_7 
REMARK       I    between atoms: N_7  and  C_8 
REMARK       I    between atoms: C_8  and  N_10 
REMARK    4  A    between atoms: N_10  and  C_11 
ROOT
HETATM    1  N   UNL     1       4.744  -0.982  -5.135  1.00  0.00    -0.337 N 
HETATM    2  C   UNL     1       4.411  -0.115  -6.144  1.00  0.00     0.321 C 
HETATM    3  O   UNL     1       3.815   0.937  -5.936  1.00  0.00    -0.247 OA
HETATM    4  N   UNL     1       4.805  -0.574  -7.381  1.00  0.00    -0.304 N 
HETATM    5  H   UNL     1       5.028  -1.903  -5.433  1.00  0.00     0.164 HD
HETATM    6  H   UNL     1       4.950  -1.569  -7.497  1.00  0.00     0.171 HD
ENDROOT
BRANCH   1   7
HETATM    7  C   UNL     1       4.167  -0.827  -3.793  1.00  0.00     0.099 C 
HETATM    8  C   UNL     1       4.412   0.494  -3.023  1.00  0.00     0.059 C 
HETATM    9  C   UNL     1       4.334  -0.383  -1.730  1.00  0.00     0.133 C 
HETATM   10  C   UNL     1       4.943  -1.534  -2.625  1.00  0.00     0.006 C 
HETATM   11  C   UNL     1       4.554  -2.995  -2.435  1.00  0.00     0.014 C 
HETATM   12  C   UNL     1       6.478  -1.563  -2.643  1.00  0.00     0.014 C 
HETATM   13  C   UNL     1       5.659  -3.798  -3.125  1.00  0.00     0.001 C 
HETATM   14  C   UNL     1       6.806  -2.834  -3.411  1.00  0.00     0.001 C 
BRANCH   9  15
HETATM   15  O   UNL     1       2.975  -0.558  -1.257  1.00  0.00    -0.385 OA
BRANCH  15  16
HETATM   16  C   UNL     1       2.772  -1.300  -0.064  1.00  0.00     0.163 C 
HETATM   17  C   UNL     1       1.279  -1.447   0.149  1.00  0.00     0.033 C 
ENDBRANCH  15  16
ENDBRANCH   9  15
ENDBRANCH   1   7
BRANCH   4  18
HETATM   18  C   UNL     1       4.668   0.114  -8.572  1.00  0.00     0.105 A 
HETATM   19  C   UNL     1       4.545   1.444  -8.682  1.00  0.00     0.037 A 
HETATM   20  C   UNL     1       4.373   2.077  -9.964  1.00  0.00     0.020 A 
HETATM   21  C   UNL     1       4.305   1.339 -11.074  1.00  0.00     0.094 A 
HETATM   22  N   UNL     1       4.427  -0.037 -11.025  1.00  0.00    -0.327 N 
HETATM   23  C   UNL     1       4.291  -0.813 -12.243  1.00  0.00     0.159 C 
HETATM   24  C   UNL     1       4.650  -0.724  -9.830  1.00  0.00     0.274 A 
HETATM   25  O   UNL     1       4.796  -1.945  -9.742  1.00  0.00    -0.266 OA
ENDBRANCH   4  18
TORSDOF 4
