REMARK  3 active torsions:
REMARK  status: ('A' for Active; 'I' for Inactive)
REMARK    1  A    between atoms: O_2  and  C_3 
REMARK    2  A    between atoms: C_10  and  N_11 
REMARK       I    between atoms: N_11  and  C_12 
REMARK       I    between atoms: C_12  and  N_14 
REMARK    3  A    between atoms: N_14  and  C_15 
ROOT
HETATM    1  N   UNL     1       3.530  -0.999   2.151  1.00  0.00    -0.292 N 
HETATM    2  C   UNL     1       2.826  -2.015   1.568  1.00  0.00     0.322 C 
HETATM    3  O   UNL     1       3.131  -3.183   1.803  1.00  0.00    -0.247 OA
HETATM    4  N   UNL     1       1.754  -1.648   0.802  1.00  0.00    -0.334 N 
HETATM    5  H   UNL     1       4.204  -1.295   2.846  1.00  0.00     0.172 HD
HETATM    6  H   UNL     1       1.744  -0.654   0.580  1.00  0.00     0.165 HD
ENDROOT
BRANCH   1   7
HETATM    7  C   UNL     1       3.402   0.385   1.950  1.00  0.00     0.143 A 
HETATM    8  C   UNL     1       4.058   1.269   2.819  1.00  0.00     0.112 A 
HETATM    9  C   UNL     1       3.848   2.634   2.629  1.00  0.00     0.042 A 
HETATM   10  C   UNL     1       3.087   3.076   1.550  1.00  0.00     0.027 A 
HETATM   11  C   UNL     1       2.538   2.137   0.691  1.00  0.00     0.007 A 
HETATM   12  C   UNL     1       1.775   2.557  -0.529  1.00  0.00     0.068 C 
HETATM   13  N   UNL     1       2.654   0.810   0.902  1.00  0.00    -0.344 N 
ATOM     14  HN  UNL     1       2.190   0.141   0.287  1.00  0.00     0.167 HD
BRANCH   8  15
HETATM   15  O   UNL     1       4.837   0.746   3.822  1.00  0.00    -0.352 OA
HETATM   16  C   UNL     1       5.741   1.664   4.438  1.00  0.00     0.210 C 
ENDBRANCH   8  15
ENDBRANCH   1   7
BRANCH   4  17
HETATM   17  C   UNL     1       0.792  -2.554   0.146  1.00  0.00     0.031 C 
HETATM   18  C   UNL     1       1.243  -2.837  -1.279  1.00  0.00     0.038 C 
HETATM   19  C   UNL     1      -0.678  -2.039   0.265  1.00  0.00     0.031 C 
HETATM   20  C   UNL     1      -1.109  -3.500   0.500  1.00  0.00     0.005 C 
HETATM   21  C   UNL     1       0.325  -3.774   0.994  1.00  0.00     0.031 C 
ENDBRANCH   4  17
TORSDOF 3
