REMARK  5 active torsions:
REMARK  status: ('A' for Active; 'I' for Inactive)
REMARK    1  A    between atoms: C_2  and  C_3 
REMARK    2  A    between atoms: C_2  and  N_10 
REMARK    3  A    between atoms: C_3  and  N_4 
REMARK       I    between atoms: N_10  and  C_11 
REMARK    4  A    between atoms: C_11  and  C_13 
REMARK    5  A    between atoms: C_13  and  N_14 
ROOT
HETATM    1  N   UNL     1       3.083  -0.463  -1.352  1.00  0.00    -0.354 N 
HETATM    2  C   UNL     1       4.450  -0.482  -1.516  1.00  0.00     0.235 C 
HETATM    3  O   UNL     1       5.236  -0.120  -0.640  1.00  0.00    -0.272 OA
HETATM    4  H   UNL     1       2.510  -0.576  -2.189  1.00  0.00     0.163 HD
ENDROOT
BRANCH   1   5
HETATM    5  C   UNL     1       2.467  -0.073  -0.080  1.00  0.00     0.098 C 
HETATM    6  C   UNL     1       1.053   0.450  -0.324  1.00  0.00     0.034 C 
BRANCH   5   7
HETATM    7  C   UNL     1       2.482  -1.245   0.929  1.00  0.00     0.153 C 
BRANCH   7   8
HETATM    8  N   UNL     1       2.023  -0.892   2.257  1.00  0.00    -0.350 N 
HETATM    9  C   UNL     1       0.926  -1.396   2.902  1.00  0.00     0.108 A 
HETATM   10  C   UNL     1       0.925  -0.783   4.132  1.00  0.00     0.106 A 
HETATM   11  N   UNL     1       1.992   0.070   4.250  1.00  0.00    -0.361 N 
HETATM   12  C   UNL     1       2.646  -0.031   3.117  1.00  0.00     0.182 A 
ATOM     13  HN  UNL     1       2.227   0.658   5.049  1.00  0.00     0.166 HD
ENDBRANCH   7   8
ENDBRANCH   5   7
ENDBRANCH   1   5
BRANCH   2  14
HETATM   14  C   UNL     1       4.935  -0.995  -2.871  1.00  0.00     0.228 C 
BRANCH  14  15
HETATM   15  N   UNL     1       5.049   0.004  -3.929  1.00  0.00    -0.343 N 
HETATM   16  C   UNL     1       6.228   0.867  -3.941  1.00  0.00     0.126 C 
HETATM   17  C   UNL     1       7.098   0.643  -5.169  1.00  0.00     0.020 C 
HETATM   18  C   UNL     1       6.649   1.431  -6.399  1.00  0.00     0.002 C 
HETATM   19  C   UNL     1       5.145   1.657  -6.539  1.00  0.00     0.009 C 
HETATM   20  C   UNL     1       4.302   0.428  -6.251  1.00  0.00     0.103 C 
HETATM   21  C   UNL     1       3.981   0.136  -4.793  1.00  0.00     0.220 C 
HETATM   22  O   UNL     1       2.839  -0.180  -4.448  1.00  0.00    -0.273 OA
ENDBRANCH  14  15
ENDBRANCH   2  14
TORSDOF 5
