REMARK  7 active torsions:
REMARK  status: ('A' for Active; 'I' for Inactive)
REMARK    1  A    between atoms: C_2  and  S_4 
REMARK    2  A    between atoms: S_4  and  N_7 
REMARK    3  A    between atoms: N_7  and  C_9 
REMARK    4  A    between atoms: C_9  and  C_10 
REMARK    5  A    between atoms: C_10  and  O_11 
REMARK    6  A    between atoms: C_10  and  C_12 
REMARK    7  A    between atoms: C_12  and  N_13 
ROOT
HETATM    1  C   UNL     1       7.385  -2.089   4.060  1.00  0.00     0.163 C 
ENDROOT
BRANCH   1   2
HETATM    2  C   UNL     1       6.906  -1.306   2.828  1.00  0.00     0.155 C 
BRANCH   2   3
HETATM    3  C   UNL     1       5.368  -1.423   2.696  1.00  0.00     0.167 C 
BRANCH   3   4
HETATM    4  N   UNL     1       4.787  -0.798   1.473  1.00  0.00    -0.312 N 
HETATM    5  C   UNL     1       3.405  -0.302   1.627  1.00  0.00     0.162 C 
BRANCH   4   6
HETATM    6  S   UNL     1       5.230  -1.304  -0.079  1.00  0.00     0.231 S 
HETATM    7  O   UNL     1       6.571  -1.843  -0.045  1.00  0.00    -0.205 OA
HETATM    8  O   UNL     1       4.889  -0.218  -0.982  1.00  0.00    -0.205 OA
BRANCH   6   9
HETATM    9  C   UNL     1       4.117  -2.674  -0.488  1.00  0.00     0.121 C 
HETATM   10  C   UNL     1       4.641  -3.362  -1.750  1.00  0.00     0.027 C 
HETATM   11  C   UNL     1       3.965  -3.694   0.631  1.00  0.00     0.027 C 
ENDBRANCH   6   9
ENDBRANCH   4   6
ENDBRANCH   3   4
ENDBRANCH   2   3
BRANCH   2  12
HETATM   12  O   UNL     1       7.307   0.066   2.944  1.00  0.00    -0.392 OA
HETATM   13  H   UNL     1       6.698   0.541   3.535  1.00  0.00     0.210 HD
ENDBRANCH   2  12
ENDBRANCH   1   2
BRANCH   1  14
HETATM   14  N   UNL     1       8.831  -2.187   4.134  1.00  0.00    -0.339 N 
HETATM   15  C   UNL     1       9.642  -1.261   4.732  1.00  0.00     0.184 A 
HETATM   16  N   UNL     1      10.898  -1.633   4.722  1.00  0.00    -0.350 N 
HETATM   17  C   UNL     1      10.906  -2.836   4.063  1.00  0.00     0.060 A 
ATOM     18  HN  UNL     1      11.696  -1.136   5.118  1.00  0.00     0.166 HD
HETATM   19  C   UNL     1      11.991  -3.672   3.758  1.00  0.00     0.039 A 
HETATM   20  C   UNL     1       9.625  -3.215   3.681  1.00  0.00     0.062 A 
HETATM   21  C   UNL     1      11.774  -4.888   3.079  1.00  0.00    -0.054 A 
HETATM   22  C   UNL     1      12.967  -5.759   2.789  1.00  0.00     0.049 C 
HETATM   23  C   UNL     1      10.465  -5.251   2.698  1.00  0.00    -0.054 A 
HETATM   24  C   UNL     1      10.163  -6.544   1.981  1.00  0.00     0.049 C 
HETATM   25  C   UNL     1       9.370  -4.407   2.993  1.00  0.00     0.039 A 
ENDBRANCH   1  14
TORSDOF 7
