REMARK  8 active torsions:
REMARK  status: ('A' for Active; 'I' for Inactive)
REMARK    1  A    between atoms: C_2  and  C_3 
REMARK    2  A    between atoms: C_2  and  N_11 
REMARK    3  A    between atoms: C_3  and  N_4 
REMARK    4  A    between atoms: N_11  and  C_12 
REMARK    5  A    between atoms: C_12  and  C_13 
REMARK    6  A    between atoms: N_23  and  C_24 
REMARK    7  A    between atoms: C_24  and  C_25 
REMARK    8  A    between atoms: C_25  and  O_26 
ROOT
HETATM    1  C   UNL     1       4.982   0.762  -2.835  1.00  0.00     0.113 A 
HETATM    2  N   UNL     1       5.090   2.002  -3.266  1.00  0.00    -0.342 N 
ATOM      3  HN  UNL     1       4.907   2.854  -2.736  1.00  0.00     0.167 HD
HETATM    4  C   UNL     1       5.498   1.914  -4.569  1.00  0.00     0.062 A 
HETATM    5  C   UNL     1       5.781   2.945  -5.475  1.00  0.00     0.055 A 
HETATM    6  C   UNL     1       6.187   2.595  -6.764  1.00  0.00     0.036 A 
HETATM    7 CL   UNL     1       6.546   3.841  -7.898  1.00  0.00    -0.084 Cl
HETATM    8  C   UNL     1       6.304   1.260  -7.151  1.00  0.00     0.026 A 
HETATM    9  C   UNL     1       6.021   0.222  -6.255  1.00  0.00     0.034 A 
HETATM   10  C   UNL     1       5.625   0.584  -4.963  1.00  0.00     0.062 A 
HETATM   11  N   UNL     1       5.287  -0.137  -3.838  1.00  0.00    -0.331 N 
ENDROOT
BRANCH   1  12
HETATM   12  C   UNL     1       4.557   0.386  -1.450  1.00  0.00     0.346 C 
BRANCH  12  13
HETATM   13  N   UNL     1       3.110   0.147  -1.439  1.00  0.00     0.096 N 
HETATM   14  H   UNL     1       2.673   1.026  -1.737  1.00  0.00     0.316 HD
BRANCH  13  15
HETATM   15  C   UNL     1       2.591  -0.206  -0.098  1.00  0.00     0.236 C 
HETATM   16  C   UNL     1       1.062  -0.265  -0.220  1.00  0.00     0.044 C 
BRANCH  15  17
HETATM   17  C   UNL     1       3.165  -1.548   0.397  1.00  0.00     0.183 C 
BRANCH  17  18
HETATM   18  N   UNL     1       2.656  -1.991   1.677  1.00  0.00    -0.301 N 
HETATM   19  C   UNL     1       2.010  -3.165   1.926  1.00  0.00     0.118 A 
HETATM   20  C   UNL     1       1.822  -3.221   3.290  1.00  0.00    -0.028 A 
HETATM   21  C   UNL     1       1.187  -4.298   4.078  1.00  0.00     0.051 C 
HETATM   22  C   UNL     1       2.392  -2.017   3.764  1.00  0.00     0.115 A 
HETATM   23  N   UNL     1       2.906  -1.272   2.784  1.00  0.00    -0.310 N 
ATOM     24  HN  UNL     1       3.377  -0.370   2.858  1.00  0.00     0.186 HD
ENDBRANCH  17  18
ENDBRANCH  15  17
ENDBRANCH  13  15
ENDBRANCH  12  13
ENDBRANCH   1  12
BRANCH  11  25
HETATM   25  C   UNL     1       5.316  -1.587  -3.732  1.00  0.00     0.156 C 
BRANCH  25  26
HETATM   26  C   UNL     1       3.969  -2.253  -3.999  1.00  0.00     0.184 C 
BRANCH  26  27
HETATM   27  O   UNL     1       3.587  -2.134  -5.365  1.00  0.00    -0.399 OA
HETATM   28  H   UNL     1       3.236  -1.233  -5.490  1.00  0.00     0.209 HD
ENDBRANCH  26  27
ENDBRANCH  25  26
ENDBRANCH  11  25
TORSDOF 8
