REMARK  5 active torsions:
REMARK  status: ('A' for Active; 'I' for Inactive)
REMARK    1  A    between atoms: N_7  and  C_8 
REMARK    2  A    between atoms: C_8  and  C_9 
REMARK    3  A    between atoms: C_9  and  N_10 
REMARK       I    between atoms: N_10  and  C_11 
REMARK    4  A    between atoms: C_11  and  C_13 
REMARK    5  A    between atoms: C_13  and  C_14 
ROOT
HETATM    1  N   UNL     1       2.504  -3.168   2.924  1.00  0.00    -0.359 N 
HETATM    2  C   UNL     1       3.253  -4.303   3.149  1.00  0.00     0.222 C 
HETATM    3  O   UNL     1       4.264  -4.568   2.503  1.00  0.00    -0.273 OA
HETATM    4  H   UNL     1       1.744  -2.951   3.556  1.00  0.00     0.162 HD
ENDROOT
BRANCH   2   5
HETATM    5  C   UNL     1       2.714  -5.224   4.232  1.00  0.00     0.145 C 
BRANCH   5   6
HETATM    6  C   UNL     1       3.196  -4.887   5.610  1.00  0.00    -0.002 A 
HETATM    7  C   UNL     1       4.540  -4.861   6.089  1.00  0.00     0.030 A 
HETATM    8  C   UNL     1       5.811  -5.137   5.372  1.00  0.00     0.070 C 
HETATM    9  N   UNL     1       4.596  -4.557   7.389  1.00  0.00    -0.303 N 
HETATM   10  N   UNL     1       3.316  -4.417   7.762  1.00  0.00    -0.300 N 
ATOM     11  HN  UNL     1       5.429  -4.454   7.969  1.00  0.00     0.186 HD
HETATM   12  C   UNL     1       3.025  -4.116   9.144  1.00  0.00     0.177 C 
HETATM   13  C   UNL     1       2.427  -4.612   6.734  1.00  0.00     0.033 A 
HETATM   14  C   UNL     1       0.952  -4.551   6.907  1.00  0.00     0.070 C 
ENDBRANCH   5   6
ENDBRANCH   2   5
BRANCH   1  15
HETATM   15  C   UNL     1       2.936  -2.147   1.982  1.00  0.00     0.152 C 
BRANCH  15  16
HETATM   16  C   UNL     1       2.460  -2.402   0.534  1.00  0.00     0.292 C 
BRANCH  16  17
HETATM   17  N   UNL     1       2.917  -1.401  -0.456  1.00  0.00     0.094 N 
HETATM   18  C   UNL     1       2.659   0.005  -0.093  1.00  0.00     0.219 C 
HETATM   19  C   UNL     1       1.180   0.345   0.147  1.00  0.00     0.043 C 
HETATM   20  C   UNL     1       3.284   0.948  -1.138  1.00  0.00     0.035 C 
HETATM   21  C   UNL     1       2.807   0.648  -2.553  1.00  0.00     0.004 C 
HETATM   22  C   UNL     1       3.033  -0.822  -2.878  1.00  0.00     0.030 C 
HETATM   23  C   UNL     1       2.439  -1.743  -1.807  1.00  0.00     0.273 C 
ENDBRANCH  16  17
ENDBRANCH  15  16
ENDBRANCH   1  15
TORSDOF 5
