REMARK  3 active torsions:
REMARK  status: ('A' for Active; 'I' for Inactive)
REMARK       I    between atoms: C_2  and  N_3 
REMARK       I    between atoms: C_2  and  N_11 
REMARK    1  A    between atoms: N_3  and  C_4 
REMARK    2  A    between atoms: N_11  and  C_12 
REMARK    3  A    between atoms: C_18  and  N_19 
ROOT
HETATM    1  C   UNL     1       4.485   0.027  -1.170  1.00  0.00     0.080 A 
HETATM    2  C   UNL     1       4.893  -1.294  -0.951  1.00  0.00     0.035 A 
HETATM    3  C   UNL     1       6.208  -1.660  -1.186  1.00  0.00     0.019 A 
HETATM    4  C   UNL     1       7.070  -0.680  -1.635  1.00  0.00     0.090 A 
HETATM    5  N   UNL     1       6.714   0.611  -1.821  1.00  0.00    -0.351 N 
ATOM      6  HN  UNL     1       7.399   1.291  -2.151  1.00  0.00     0.166 HD
HETATM    7  C   UNL     1       5.439   0.995  -1.566  1.00  0.00     0.130 A 
ENDROOT
BRANCH   1   8
HETATM    8  N   UNL     1       3.099   0.314  -1.118  1.00  0.00    -0.305 N 
HETATM    9  C   UNL     1       2.317  -0.041  -0.043  1.00  0.00     0.321 C 
HETATM   10  O   UNL     1       2.702  -0.629   0.960  1.00  0.00    -0.247 OA
HETATM   11  N   UNL     1       1.022   0.419  -0.195  1.00  0.00    -0.338 N 
HETATM   12  H   UNL     1       0.700   0.492  -1.148  1.00  0.00     0.164 HD
HETATM   13  H   UNL     1       2.810   1.146  -1.610  1.00  0.00     0.171 HD
BRANCH  11  14
HETATM   14  C   UNL     1       0.008   0.152   0.831  1.00  0.00     0.086 C 
HETATM   15  C   UNL     1      -0.581  -1.256   0.634  1.00  0.00     0.025 C 
HETATM   16  C   UNL     1      -1.387  -1.739   1.837  1.00  0.00     0.002 C 
HETATM   17  C   UNL     1      -2.858  -1.336   1.833  1.00  0.00     0.000 C 
HETATM   18  C   UNL     1      -3.186   0.075   1.360  1.00  0.00     0.000 C 
HETATM   19  C   UNL     1      -2.186   1.144   1.788  1.00  0.00     0.002 C 
HETATM   20  C   UNL     1      -1.022   1.286   0.808  1.00  0.00     0.025 C 
ENDBRANCH  11  14
ENDBRANCH   1   8
BRANCH   7  21
HETATM   21  N   UNL     1       5.173   2.355  -1.663  1.00  0.00    -0.361 N 
HETATM   22  C   UNL     1       6.042   3.199  -2.503  1.00  0.00     0.150 C 
HETATM   23  C   UNL     1       6.423   4.512  -1.800  1.00  0.00     0.187 C 
HETATM   24  O   UNL     1       5.270   5.198  -1.289  1.00  0.00    -0.388 OA
HETATM   25  C   UNL     1       4.632   4.375  -0.308  1.00  0.00     0.187 C 
HETATM   26  C   UNL     1       4.127   3.059  -0.915  1.00  0.00     0.150 C 
ENDBRANCH   7  21
TORSDOF 3
