REMARK  4 active torsions:
REMARK  status: ('A' for Active; 'I' for Inactive)
REMARK    1  A    between atoms: C_2  and  C_3 
REMARK    2  A    between atoms: C_2  and  N_15 
REMARK    3  A    between atoms: C_3  and  N_4 
REMARK       I    between atoms: N_4  and  C_5 
REMARK       I    between atoms: C_5  and  N_7 
REMARK    4  A    between atoms: N_7  and  C_8 
ROOT
HETATM    1  N   UNL     1       4.399  -1.302  -0.967  1.00  0.00    -0.341 N 
HETATM    2  C   UNL     1       5.108  -2.212  -1.678  1.00  0.00     0.321 C 
HETATM    3  O   UNL     1       4.582  -3.083  -2.371  1.00  0.00    -0.247 OA
HETATM    4  N   UNL     1       6.468  -2.152  -1.579  1.00  0.00    -0.293 N 
HETATM    5  H   UNL     1       4.906  -0.502  -0.591  1.00  0.00     0.164 HD
HETATM    6  H   UNL     1       6.956  -2.867  -2.097  1.00  0.00     0.172 HD
ENDROOT
BRANCH   1   7
HETATM    7  C   UNL     1       2.961  -1.214  -0.961  1.00  0.00     0.159 C 
BRANCH   7   8
HETATM    8  C   UNL     1       2.471  -0.063  -0.042  1.00  0.00     0.236 C 
HETATM    9  C   UNL     1       0.943  -0.098   0.002  1.00  0.00     0.044 C 
BRANCH   8  10
HETATM   10  N   UNL     1       3.122   1.239  -0.321  1.00  0.00     0.098 N 
HETATM   11  C   UNL     1       2.777   2.333   0.604  1.00  0.00     0.299 C 
HETATM   12  C   UNL     1       1.530   3.139   0.199  1.00  0.00     0.198 C 
HETATM   13  O   UNL     1       1.639   3.641  -1.138  1.00  0.00    -0.388 OA
HETATM   14  C   UNL     1       1.859   2.574  -2.068  1.00  0.00     0.198 C 
HETATM   15  C   UNL     1       3.101   1.746  -1.703  1.00  0.00     0.299 C 
ENDBRANCH   8  10
ENDBRANCH   7   8
ENDBRANCH   1   7
BRANCH   4  16
HETATM   16  C   UNL     1       7.213  -1.270  -0.821  1.00  0.00     0.132 A 
HETATM   17  C   UNL     1       8.621  -1.300  -0.695  1.00  0.00     0.084 A 
HETATM   18  C   UNL     1       8.912  -0.270   0.167  1.00  0.00     0.076 A 
HETATM   19  C   UNL     1      10.138   0.276   0.769  1.00  0.00     0.079 C 
HETATM   20  O   UNL     1       7.761   0.358   0.516  1.00  0.00    -0.241 OA
HETATM   21  N   UNL     1       6.703  -0.264  -0.100  1.00  0.00    -0.245 N 
ATOM     22  HN  UNL     1       5.718  -0.009  -0.023  1.00  0.00     0.196 HD
ENDBRANCH   4  16
TORSDOF 4
