REMARK  6 active torsions:
REMARK  status: ('A' for Active; 'I' for Inactive)
REMARK    1  A    between atoms: C_2  and  C_4 
REMARK    2  A    between atoms: C_7  and  C_8 
REMARK    3  A    between atoms: C_8  and  C_9 
REMARK    4  A    between atoms: C_9  and  N_10 
REMARK       I    between atoms: N_10  and  C_11 
REMARK    5  A    between atoms: C_11  and  C_13 
REMARK    6  A    between atoms: C_13  and  C_14 
ROOT
HETATM    1  C   UNL     1       3.588   5.801   1.943  1.00  0.00     0.128 C 
ENDROOT
BRANCH   1   2
HETATM    2  C   UNL     1       2.812   4.968   0.922  1.00  0.00     0.077 C 
BRANCH   2   3
HETATM    3  C   UNL     1       3.183   5.293  -0.491  1.00  0.00     0.018 A 
HETATM    4  N   UNL     1       4.511   5.181  -0.875  1.00  0.00    -0.356 N 
HETATM    5  C   UNL     1       4.651   5.514  -2.142  1.00  0.00     0.054 A 
ATOM      6  HN  UNL     1       5.271   4.883  -0.264  1.00  0.00     0.166 HD
HETATM    7  S   UNL     1       3.198   5.970  -2.942  1.00  0.00    -0.086 SA
HETATM    8  C   UNL     1       2.328   5.709  -1.492  1.00  0.00     0.076 A 
BRANCH   5   9
HETATM    9  C   UNL     1       5.965   5.531  -2.880  1.00  0.00     0.035 C 
HETATM   10  C   UNL     1       6.944   6.488  -2.199  1.00  0.00     0.016 C 
HETATM   11  C   UNL     1       6.557   4.124  -2.963  1.00  0.00     0.016 C 
ENDBRANCH   5   9
ENDBRANCH   2   3
ENDBRANCH   1   2
BRANCH   1  12
HETATM   12  N   UNL     1       3.277   7.221   1.878  1.00  0.00    -0.361 N 
HETATM   13  C   UNL     1       2.245   7.771   2.598  1.00  0.00     0.217 C 
HETATM   14  O   UNL     1       1.505   7.115   3.325  1.00  0.00    -0.274 OA
HETATM   15  H   UNL     1       3.775   7.781   1.197  1.00  0.00     0.162 HD
BRANCH  13  16
HETATM   16  C   UNL     1       2.068   9.263   2.404  1.00  0.00     0.107 C 
BRANCH  16  17
HETATM   17  C   UNL     1       1.125   9.583   1.248  1.00  0.00    -0.006 C 
HETATM   18  C   UNL     1       0.926  11.094   1.059  1.00  0.00     0.005 C 
HETATM   19  C   UNL     1      -0.523  11.288   0.609  1.00  0.00     0.000 C 
HETATM   20  C   UNL     1      -1.120   9.893   0.490  1.00  0.00     0.000 C 
HETATM   21  C   UNL     1      -0.296   9.054   1.452  1.00  0.00     0.005 C 
ENDBRANCH  16  17
ENDBRANCH  13  16
ENDBRANCH   1  12
TORSDOF 6
