REMARK  6 active torsions:
REMARK  status: ('A' for Active; 'I' for Inactive)
REMARK    1  A    between atoms: C_2  and  N_3 
REMARK    2  A    between atoms: C_5  and  C_6 
REMARK    3  A    between atoms: C_6  and  N_7 
REMARK    4  A    between atoms: N_12  and  C_13 
REMARK    5  A    between atoms: C_13  and  C_14 
REMARK       I    between atoms: C_14  and  N_16 
REMARK    6  A    between atoms: N_16  and  C_17 
ROOT
HETATM    1  N   UNL     1       2.983   1.057   0.956  1.00  0.00    -0.308 N 
HETATM    2  C   UNL     1       3.608   0.572   2.088  1.00  0.00     0.122 C 
HETATM    3  C   UNL     1       3.863   1.361   3.131  1.00  0.00     0.110 C 
HETATM    4  C   UNL     1       3.409   2.775   3.072  1.00  0.00     0.273 C 
HETATM    5  O   UNL     1       3.347   3.443   4.102  1.00  0.00    -0.266 OA
HETATM    6  N   UNL     1       3.016   3.250   1.836  1.00  0.00    -0.256 N 
HETATM    7  C   UNL     1       2.717   2.423   0.758  1.00  0.00     0.331 C 
HETATM    8  O   UNL     1       2.199   2.850  -0.270  1.00  0.00    -0.246 OA
ENDROOT
BRANCH   6   9
HETATM    9  C   UNL     1       2.666   4.665   1.722  1.00  0.00     0.239 C 
BRANCH   9  10
HETATM   10  C   UNL     1       3.761   5.508   1.049  1.00  0.00     0.236 C 
HETATM   11  O   UNL     1       4.814   5.038   0.625  1.00  0.00    -0.272 OA
HETATM   12  N   UNL     1       3.423   6.854   0.966  1.00  0.00    -0.355 N 
HETATM   13  H   UNL     1       2.524   7.158   1.318  1.00  0.00     0.162 HD
BRANCH  12  14
HETATM   14  C   UNL     1       4.202   7.811   0.240  1.00  0.00     0.084 A 
HETATM   15  C   UNL     1       5.248   8.656   0.912  1.00  0.00     0.027 A 
HETATM   16  C   UNL     1       3.969   9.289   0.448  1.00  0.00     0.027 A 
ENDBRANCH  12  14
ENDBRANCH   9  10
ENDBRANCH   6   9
BRANCH   3  17
HETATM   17  C   UNL     1       4.497   0.918   4.439  1.00  0.00    -0.030 C 
BRANCH  17  18
HETATM   18  N   UNL     1       5.022   0.551   5.525  1.00  0.00    -0.365 N 
ATOM     19  HN2 UNL     1       4.555   0.871   4.677  1.00  0.00     0.165 HD
ATOM     20  HN1 UNL     1       5.448   0.254   6.403  1.00  0.00     0.165 HD
ENDBRANCH  17  18
ENDBRANCH   3  17
BRANCH   1  21
HETATM   21  C   UNL     1       2.572   0.117  -0.089  1.00  0.00     0.128 C 
HETATM   22  C   UNL     1       3.659  -0.127  -1.122  1.00  0.00     0.027 C 
ENDBRANCH   1  21
TORSDOF 6
