REMARK  5 active torsions:
REMARK  status: ('A' for Active; 'I' for Inactive)
REMARK    1  A    between atoms: C_2  and  C_3 
REMARK    2  A    between atoms: C_2  and  N_15 
REMARK    3  A    between atoms: C_3  and  N_4 
REMARK       I    between atoms: N_4  and  C_5 
REMARK    4  A    between atoms: C_5  and  C_7 
REMARK    5  A    between atoms: C_7  and  N_8 
ROOT
HETATM    1  N   UNL     1       4.151   1.406   1.164  1.00  0.00    -0.358 N 
HETATM    2  C   UNL     1       4.651   2.647   1.486  1.00  0.00     0.235 C 
HETATM    3  O   UNL     1       3.932   3.601   1.780  1.00  0.00    -0.272 OA
HETATM    4  H   UNL     1       4.770   0.628   0.954  1.00  0.00     0.162 HD
ENDROOT
BRANCH   1   5
HETATM    5  C   UNL     1       2.732   1.141   1.237  1.00  0.00     0.158 C 
BRANCH   5   6
HETATM    6  C   UNL     1       2.275   0.067   0.223  1.00  0.00     0.236 C 
HETATM    7  C   UNL     1       0.742   0.055   0.224  1.00  0.00     0.044 C 
BRANCH   6   8
HETATM    8  N   UNL     1       3.006  -1.217   0.351  1.00  0.00     0.099 N 
HETATM    9  C   UNL     1       2.674  -2.210  -0.692  1.00  0.00     0.304 C 
HETATM   10  C   UNL     1       1.416  -3.048  -0.367  1.00  0.00     0.146 C 
HETATM   11  C   UNL     1       1.103  -4.031  -1.484  1.00  0.00     0.041 C 
HETATM   12  O   UNL     1       1.589  -3.744   0.878  1.00  0.00    -0.378 OA
HETATM   13  C   UNL     1       1.792  -2.794   1.943  1.00  0.00     0.146 C 
HETATM   14  C   UNL     1       1.961  -3.561   3.248  1.00  0.00     0.041 C 
HETATM   15  C   UNL     1       3.018  -1.895   1.662  1.00  0.00     0.304 C 
ENDBRANCH   6   8
ENDBRANCH   5   6
ENDBRANCH   1   5
BRANCH   2  16
HETATM   16  C   UNL     1       6.164   2.788   1.369  1.00  0.00     0.234 C 
BRANCH  16  17
HETATM   17  N   UNL     1       6.565   3.203   0.026  1.00  0.00    -0.316 N 
HETATM   18  C   UNL     1       6.208   4.459  -0.436  1.00  0.00     0.095 A 
HETATM   19  C   UNL     1       6.597   4.891  -1.642  1.00  0.00     0.017 A 
HETATM   20  C   UNL     1       7.442   4.062  -2.462  1.00  0.00     0.007 A 
HETATM   21  C   UNL     1       7.774   2.825  -2.068  1.00  0.00     0.074 A 
HETATM   22  C   UNL     1       7.286   2.304  -0.757  1.00  0.00     0.247 A 
HETATM   23  O   UNL     1       7.553   1.150  -0.433  1.00  0.00    -0.268 OA
ENDBRANCH  16  17
ENDBRANCH   2  16
TORSDOF 5
