REMARK  8 active torsions:
REMARK  status: ('A' for Active; 'I' for Inactive)
REMARK    1  A    between atoms: C_2  and  N_3 
REMARK    2  A    between atoms: C_2  and  C_15 
REMARK    3  A    between atoms: N_3  and  C_4 
REMARK    4  A    between atoms: C_4  and  C_5 
REMARK    5  A    between atoms: C_5  and  O_6 
REMARK    6  A    between atoms: C_5  and  C_7 
REMARK    7  A    between atoms: C_7  and  N_8 
REMARK    8  A    between atoms: C_15  and  N_17 
ROOT
HETATM    1  N   UNL     1       2.698  -1.026   0.207  1.00  0.00     0.092 N 
HETATM    2  H   UNL     1       3.705  -0.866   0.304  1.00  0.00     0.316 HD
ENDROOT
BRANCH   1   3
HETATM    3  C   UNL     1       2.012   0.242  -0.083  1.00  0.00     0.240 C 
HETATM    4  C   UNL     1       2.341   1.270   1.008  1.00  0.00     0.045 C 
BRANCH   3   5
HETATM    5  C   UNL     1       0.483   0.135  -0.368  1.00  0.00     0.136 C 
HETATM    6  C   UNL     1      -0.134   1.482  -0.770  1.00  0.00     0.036 C 
BRANCH   5   7
HETATM    7  N   UNL     1       0.164  -0.868  -1.388  1.00  0.00    -0.297 N 
HETATM    8  C   UNL     1      -0.575  -2.006  -1.198  1.00  0.00     0.112 A 
HETATM    9  C   UNL     1      -0.702  -2.594  -2.437  1.00  0.00     0.037 A 
HETATM   10  C   UNL     1      -0.020  -1.730  -3.310  1.00  0.00     0.108 A 
HETATM   11  N   UNL     1       0.490  -0.666  -2.686  1.00  0.00    -0.310 N 
ATOM     12  HN  UNL     1       1.004   0.116  -3.092  1.00  0.00     0.186 HD
ENDBRANCH   5   7
ENDBRANCH   3   5
ENDBRANCH   1   3
BRANCH   1  13
HETATM   13  C   UNL     1       2.259  -1.794   1.382  1.00  0.00     0.303 C 
BRANCH  13  14
HETATM   14  C   UNL     1       3.171  -3.038   1.448  1.00  0.00     0.174 C 
BRANCH  14  15
HETATM   15  O   UNL     1       4.484  -2.585   1.844  1.00  0.00    -0.392 OA
HETATM   16  H   UNL     1       5.073  -3.357   1.820  1.00  0.00     0.210 HD
ENDBRANCH  14  15
BRANCH  14  17
HETATM   17  C   UNL     1       2.706  -4.141   2.422  1.00  0.00     0.305 C 
BRANCH  17  18
HETATM   18  N   UNL     1       1.316  -4.609   2.339  1.00  0.00     0.094 N 
HETATM   19  C   UNL     1       1.081  -5.691   3.319  1.00  0.00     0.302 C 
HETATM   20  C   UNL     1       1.473  -7.098   2.817  1.00  0.00     0.302 C 
HETATM   21  N   UNL     1       0.767  -7.500   1.590  1.00  0.00     0.087 N 
HETATM   22  C   UNL     1      -0.667  -7.675   1.832  1.00  0.00     0.310 C 
HETATM   23  C   UNL     1       1.020  -6.482   0.552  1.00  0.00     0.302 C 
HETATM   24  C   UNL     1       0.844  -5.002   0.994  1.00  0.00     0.302 C 
ENDBRANCH  17  18
ENDBRANCH  14  17
ENDBRANCH  13  14
ENDBRANCH   1  13
TORSDOF 8
