REMARK  6 active torsions:
REMARK  status: ('A' for Active; 'I' for Inactive)
REMARK    1  A    between atoms: O_1  and  C_2 
REMARK    2  A    between atoms: C_2  and  C_3 
REMARK    3  A    between atoms: C_3  and  C_4 
REMARK    4  A    between atoms: C_4  and  C_5 
REMARK    5  A    between atoms: C_5  and  N_6 
REMARK       I    between atoms: N_6  and  C_7 
REMARK       I    between atoms: C_7  and  N_9 
REMARK    6  A    between atoms: N_9  and  C_10 
ROOT
HETATM    1  N   UNL     1       4.687   2.232   1.840  1.00  0.00    -0.342 N 
HETATM    2  C   UNL     1       5.041   3.267   2.679  1.00  0.00     0.320 C 
HETATM    3  O   UNL     1       5.670   4.240   2.277  1.00  0.00    -0.247 OA
HETATM    4  N   UNL     1       4.575   3.079   3.962  1.00  0.00    -0.308 N 
HETATM    5  H   UNL     1       4.686   1.322   2.280  1.00  0.00     0.164 HD
HETATM    6  H   UNL     1       3.782   2.459   4.048  1.00  0.00     0.170 HD
ENDROOT
BRANCH   1   7
HETATM    7  C   UNL     1       5.158   2.307   0.467  1.00  0.00     0.134 C 
BRANCH   7   8
HETATM    8  C   UNL     1       4.585   1.221  -0.474  1.00  0.00    -0.022 C 
HETATM    9  C   UNL     1       5.113   1.459  -1.910  1.00  0.00     0.011 C 
HETATM   10  C   UNL     1       6.382   0.622  -2.069  1.00  0.00     0.001 C 
HETATM   11  C   UNL     1       6.540  -0.182  -0.788  1.00  0.00     0.001 C 
HETATM   12  C   UNL     1       5.161  -0.169  -0.142  1.00  0.00     0.011 C 
BRANCH   8  13
HETATM   13  C   UNL     1       3.039   1.199  -0.444  1.00  0.00     0.037 C 
BRANCH  13  14
HETATM   14  C   UNL     1       2.372   2.505  -0.874  1.00  0.00     0.165 C 
BRANCH  14  15
HETATM   15  O   UNL     1       0.961   2.329  -0.831  1.00  0.00    -0.401 OA
HETATM   16  H   UNL     1       0.564   3.184  -1.074  1.00  0.00     0.209 HD
ENDBRANCH  14  15
ENDBRANCH  13  14
ENDBRANCH   8  13
ENDBRANCH   7   8
ENDBRANCH   1   7
BRANCH   4  17
HETATM   17  C   UNL     1       4.846   3.947   5.046  1.00  0.00     0.051 A 
HETATM   18  C   UNL     1       5.919   4.840   5.063  1.00  0.00     0.032 A 
HETATM   19  C   UNL     1       6.090   5.709   6.138  1.00  0.00     0.019 A 
HETATM   20  C   UNL     1       5.188   5.643   7.185  1.00  0.00     0.088 A 
HETATM   21  N   UNL     1       4.163   4.766   7.234  1.00  0.00    -0.373 N 
HETATM   22  C   UNL     1       4.021   3.939   6.168  1.00  0.00     0.117 A 
ATOM     23  HN  UNL     1       3.528   4.727   8.031  1.00  0.00     0.164 HD
ENDBRANCH   4  17
TORSDOF 6
