REMARK  5 active torsions:
REMARK  status: ('A' for Active; 'I' for Inactive)
REMARK    1  A    between atoms: C_2  and  C_3 
REMARK    2  A    between atoms: C_6  and  C_7 
REMARK    3  A    between atoms: C_7  and  C_8 
REMARK       I    between atoms: C_8  and  N_10 
REMARK    4  A    between atoms: N_10  and  C_11 
REMARK    5  A    between atoms: C_11  and  C_12 
ROOT
HETATM    1  C   UNL     1       2.383   3.691   6.157  1.00  0.00     0.223 C 
HETATM    2  O   UNL     1       1.697   3.551   7.167  1.00  0.00    -0.273 OA
HETATM    3  N   UNL     1       3.760   3.760   6.181  1.00  0.00    -0.360 N 
HETATM    4  H   UNL     1       4.229   3.661   5.282  1.00  0.00     0.162 HD
ENDROOT
BRANCH   1   5
HETATM    5  C   UNL     1       1.761   3.886   4.786  1.00  0.00     0.160 C 
BRANCH   5   6
HETATM    6  C   UNL     1       2.155   2.829   3.806  1.00  0.00     0.025 A 
HETATM    7  N   UNL     1       3.471   2.775   3.354  1.00  0.00    -0.356 N 
HETATM    8  C   UNL     1       3.603   1.820   2.454  1.00  0.00     0.050 A 
ATOM      9  HN  UNL     1       4.224   3.385   3.673  1.00  0.00     0.166 HD
HETATM   10  S   UNL     1       2.171   0.933   2.105  1.00  0.00    -0.087 SA
HETATM   11  C   UNL     1       1.314   1.895   3.230  1.00  0.00     0.077 A 
BRANCH   8  12
HETATM   12  C   UNL     1       4.879   1.499   1.739  1.00  0.00     0.060 C 
HETATM   13  C   UNL     1       5.686   0.441   2.474  1.00  0.00     0.012 C 
ENDBRANCH   8  12
ENDBRANCH   5   6
ENDBRANCH   1   5
BRANCH   3  14
HETATM   14  C   UNL     1       4.526   3.528   7.389  1.00  0.00     0.127 C 
BRANCH  14  15
HETATM   15  C   UNL     1       4.742   4.800   8.217  1.00  0.00     0.008 C 
HETATM   16  C   UNL     1       5.648   5.850   7.534  1.00  0.00     0.011 C 
HETATM   17  C   UNL     1       6.756   6.084   8.576  1.00  0.00    -0.014 C 
HETATM   18  C   UNL     1       7.655   4.835   8.626  1.00  0.00     0.005 C 
HETATM   19  C   UNL     1       5.980   5.980   9.887  1.00  0.00     0.010 C 
HETATM   20  C   UNL     1       6.793   3.822   9.393  1.00  0.00     0.005 C 
HETATM   21  C   UNL     1       5.464   4.572   9.575  1.00  0.00    -0.009 C 
ENDBRANCH  14  15
ENDBRANCH   3  14
TORSDOF 5
