REMARK  6 active torsions:
REMARK  status: ('A' for Active; 'I' for Inactive)
REMARK    1  A    between atoms: C_2  and  N_3 
REMARK    2  A    between atoms: C_2  and  C_21 
REMARK       I    between atoms: N_3  and  C_4 
REMARK    3  A    between atoms: C_4  and  C_6 
REMARK    4  A    between atoms: C_6  and  N_7 
REMARK    5  A    between atoms: C_14  and  C_15 
REMARK    6  A    between atoms: C_15  and  N_16 
ROOT
HETATM    1  N   UNL     1       2.611  -4.735  -1.668  1.00  0.00    -0.247 N 
HETATM    2  N   UNL     1       3.572  -5.579  -1.171  1.00  0.00    -0.299 N 
ATOM      3  HN  UNL     1       4.498  -5.225  -0.931  1.00  0.00     0.187 HD
HETATM    4  C   UNL     1       3.285  -6.830  -1.011  1.00  0.00     0.029 A 
HETATM    5  C   UNL     1       4.373  -7.710  -0.437  1.00  0.00     0.070 C 
HETATM    6  C   UNL     1       1.975  -7.437  -1.356  1.00  0.00    -0.013 A 
HETATM    7  C   UNL     1       1.723  -8.907  -1.176  1.00  0.00     0.052 C 
HETATM    8  C   UNL     1       1.051  -6.581  -1.831  1.00  0.00     0.103 A 
HETATM    9  C   UNL     1       1.321  -5.135  -1.982  1.00  0.00     0.282 A 
HETATM   10  O   UNL     1       0.441  -4.357  -2.340  1.00  0.00    -0.265 OA
ENDROOT
BRANCH   1  11
HETATM   11  C   UNL     1       3.027  -3.350  -1.879  1.00  0.00     0.255 C 
BRANCH  11  12
HETATM   12  C   UNL     1       2.682  -2.441  -0.702  1.00  0.00     0.237 C 
HETATM   13  N   UNL     1       1.337  -2.338  -0.420  1.00  0.00    -0.355 N 
HETATM   14  H   UNL     1       0.672  -2.853  -0.992  1.00  0.00     0.162 HD
HETATM   15  O   UNL     1       3.536  -1.764  -0.132  1.00  0.00    -0.272 OA
BRANCH  13  16
HETATM   16  C   UNL     1       0.829  -1.421   0.582  1.00  0.00     0.084 C 
HETATM   17  C   UNL     1       0.757  -2.101   1.946  1.00  0.00     0.032 C 
BRANCH  16  18
HETATM   18  C   UNL     1      -0.525  -0.936   0.132  1.00  0.00     0.008 A 
HETATM   19  C   UNL     1      -0.648  -0.161  -1.160  1.00  0.00     0.007 A 
HETATM   20  C   UNL     1      -0.867   0.535   0.153  1.00  0.00     0.007 A 
ENDBRANCH  16  18
ENDBRANCH  13  16
ENDBRANCH  11  12
ENDBRANCH   1  11
BRANCH   8  21
HETATM   21  C   UNL     1      -0.325  -7.116  -2.192  1.00  0.00    -0.031 C 
BRANCH  21  22
HETATM   22  N   UNL     1      -1.467  -7.559  -2.492  1.00  0.00    -0.365 N 
ATOM     23  HN2 UNL     1      -0.554  -7.163  -2.268  1.00  0.00     0.165 HD
ATOM     24  HN1 UNL     1      -2.390  -7.918  -2.734  1.00  0.00     0.165 HD
ENDBRANCH  21  22
ENDBRANCH   8  21
TORSDOF 6
