REMARK  5 active torsions:
REMARK  status: ('A' for Active; 'I' for Inactive)
REMARK    1  A    between atoms: N_7  and  C_8 
REMARK    2  A    between atoms: C_8  and  C_9 
REMARK    3  A    between atoms: C_9  and  N_10 
REMARK       I    between atoms: N_10  and  C_11 
REMARK    4  A    between atoms: C_11  and  C_13 
REMARK    5  A    between atoms: C_13  and  N_14 
ROOT
HETATM    1  N   UNL     1       3.095  -5.000  -3.786  1.00  0.00    -0.358 N 
HETATM    2  C   UNL     1       2.594  -6.087  -3.101  1.00  0.00     0.237 C 
HETATM    3  O   UNL     1       1.824  -5.989  -2.147  1.00  0.00    -0.272 OA
HETATM    4  H   UNL     1       3.510  -5.190  -4.697  1.00  0.00     0.162 HD
ENDROOT
BRANCH   1   5
HETATM    5  C   UNL     1       2.624  -3.650  -3.522  1.00  0.00     0.152 C 
BRANCH   5   6
HETATM    6  C   UNL     1       3.111  -3.085  -2.169  1.00  0.00     0.292 C 
BRANCH   6   7
HETATM    7  N   UNL     1       2.606  -1.729  -1.854  1.00  0.00     0.090 N 
HETATM    8  C   UNL     1       3.086  -0.722  -2.812  1.00  0.00     0.276 C 
HETATM    9  C   UNL     1       2.556   0.685  -2.488  1.00  0.00     0.010 C 
HETATM   10  C   UNL     1       2.903   1.078  -1.048  1.00  0.00     0.012 C 
HETATM   11  C   UNL     1       3.112   1.704  -3.482  1.00  0.00     0.011 C 
HETATM   12  C   UNL     1       2.448   0.006  -0.051  1.00  0.00     0.010 C 
HETATM   13  C   UNL     1       0.923  -0.014   0.109  1.00  0.00     0.011 C 
HETATM   14  C   UNL     1       2.992  -1.369  -0.476  1.00  0.00     0.276 C 
ENDBRANCH   6   7
ENDBRANCH   5   6
ENDBRANCH   1   5
BRANCH   2  15
HETATM   15  C   UNL     1       3.116  -7.428  -3.557  1.00  0.00     0.251 C 
BRANCH  15  16
HETATM   16  N   UNL     1       2.675  -7.741  -4.901  1.00  0.00    -0.288 N 
HETATM   17  N   UNL     1       3.479  -7.418  -5.938  1.00  0.00    -0.303 N 
HETATM   18  C   UNL     1       2.857  -7.930  -7.006  1.00  0.00     0.024 A 
ATOM     19  HN  UNL     1       4.359  -6.902  -5.912  1.00  0.00     0.186 HD
HETATM   20  C   UNL     1       3.457  -7.838  -8.358  1.00  0.00     0.070 C 
HETATM   21  C   UNL     1       1.629  -8.531  -6.654  1.00  0.00     0.052 A 
HETATM   22  C   UNL     1       1.524  -8.379  -5.288  1.00  0.00     0.027 A 
HETATM   23  C   UNL     1       0.447  -8.798  -4.357  1.00  0.00     0.070 C 
ENDBRANCH  15  16
ENDBRANCH   2  15
TORSDOF 5
