REMARK  3 active torsions:
REMARK  status: ('A' for Active; 'I' for Inactive)
REMARK    1  A    between atoms: C_2  and  N_9 
REMARK       I    between atoms: N_9  and  C_10 
REMARK    2  A    between atoms: C_10  and  C_12 
REMARK    3  A    between atoms: C_12  and  N_13 
ROOT
HETATM    1  N   UNL     1       3.228   0.266   1.503  1.00  0.00    -0.351 N 
HETATM    2  C   UNL     1       2.916   1.314   2.350  1.00  0.00     0.237 C 
HETATM    3  O   UNL     1       2.115   2.204   2.073  1.00  0.00    -0.272 OA
HETATM    4  H   UNL     1       4.002  -0.341   1.751  1.00  0.00     0.163 HD
ENDROOT
BRANCH   1   5
HETATM    5  C   UNL     1       2.658   0.111   0.144  1.00  0.00     0.029 C 
HETATM    6  C   UNL     1       1.114   0.030   0.259  1.00  0.00     0.038 C 
HETATM    7  C   UNL     1       3.014   1.292  -0.792  1.00  0.00     0.031 C 
HETATM    8  C   UNL     1       4.475   1.741  -0.816  1.00  0.00     0.002 C 
HETATM    9  C   UNL     1       5.502   0.849  -1.508  1.00  0.00     0.000 C 
HETATM   10  C   UNL     1       5.097  -0.560  -1.912  1.00  0.00     0.000 C 
HETATM   11  C   UNL     1       4.583  -1.433  -0.779  1.00  0.00     0.002 C 
HETATM   12  C   UNL     1       3.103  -1.244  -0.459  1.00  0.00     0.031 C 
ENDBRANCH   1   5
BRANCH   2  13
HETATM   13  C   UNL     1       3.632   1.313   3.678  1.00  0.00     0.249 C 
BRANCH  13  14
HETATM   14  N   UNL     1       4.469   2.477   3.790  1.00  0.00    -0.264 N 
HETATM   15  C   UNL     1       4.115   3.789   3.818  1.00  0.00     0.213 A 
HETATM   16  N   UNL     1       5.210   4.509   3.907  1.00  0.00    -0.281 N 
HETATM   17  N   UNL     1       6.250   3.610   3.946  1.00  0.00    -0.008 NA
ATOM     18  HN  UNL     1       5.276   5.526   3.940  1.00  0.00     0.184 HD
HETATM   19  N   UNL     1       5.804   2.363   3.878  1.00  0.00    -0.005 NA
ENDBRANCH  13  14
ENDBRANCH   2  13
TORSDOF 3
