REMARK  3 active torsions:
REMARK  status: ('A' for Active; 'I' for Inactive)
REMARK    1  A    between atoms: C_2  and  N_5 
REMARK       I    between atoms: N_5  and  C_6 
REMARK    2  A    between atoms: C_6  and  C_8 
REMARK    3  A    between atoms: C_8  and  N_9 
ROOT
HETATM    1  N   UNL     1       5.740  -2.464   2.393  1.00  0.00    -0.246 N 
HETATM    2  N   UNL     1       7.121  -2.586   2.182  1.00  0.00    -0.261 N 
HETATM    3  C   UNL     1       8.030  -2.544   3.203  1.00  0.00     0.260 A 
HETATM    4  O   UNL     1       9.236  -2.674   3.027  1.00  0.00    -0.267 OA
HETATM    5  C   UNL     1       7.484  -2.321   4.552  1.00  0.00     0.081 A 
HETATM    6  C   UNL     1       6.172  -2.161   4.753  1.00  0.00     0.081 A 
HETATM    7  C   UNL     1       5.203  -2.243   3.641  1.00  0.00     0.262 A 
HETATM    8  O   UNL     1       4.001  -2.144   3.864  1.00  0.00    -0.267 OA
HETATM    9  H   UNL     1       7.480  -2.598   1.232  1.00  0.00     0.190 HD
ENDROOT
BRANCH   1  10
HETATM   10  C   UNL     1       4.894  -2.680   1.230  1.00  0.00     0.255 C 
BRANCH  10  11
HETATM   11  C   UNL     1       4.507  -1.344   0.598  1.00  0.00     0.238 C 
HETATM   12  N   UNL     1       3.144  -1.139   0.463  1.00  0.00    -0.352 N 
HETATM   13  H   UNL     1       2.527  -1.769   0.966  1.00  0.00     0.163 HD
HETATM   14  O   UNL     1       5.361  -0.538   0.234  1.00  0.00    -0.272 OA
BRANCH  12  15
HETATM   15  C   UNL     1       2.542   0.095  -0.072  1.00  0.00     0.022 C 
HETATM   16  C   UNL     1       2.958   0.312  -1.536  1.00  0.00     0.037 C 
HETATM   17  C   UNL     1       2.930   1.312   0.783  1.00  0.00     0.037 C 
HETATM   18  C   UNL     1       1.007  -0.046  -0.032  1.00  0.00     0.037 C 
ENDBRANCH  12  15
ENDBRANCH  10  11
ENDBRANCH   1  10
TORSDOF 3
