REMARK  5 active torsions:
REMARK  status: ('A' for Active; 'I' for Inactive)
REMARK    1  A    between atoms: O_2  and  C_3 
REMARK    2  A    between atoms: C_6  and  N_7 
REMARK       I    between atoms: N_7  and  C_8 
REMARK       I    between atoms: C_8  and  N_10 
REMARK    3  A    between atoms: N_10  and  C_11 
REMARK    4  A    between atoms: C_11  and  C_12 
REMARK    5  A    between atoms: C_12  and  N_17 
ROOT
HETATM    1  N   UNL     1       5.687  -4.706   1.321  1.00  0.00    -0.308 N 
HETATM    2  C   UNL     1       5.292  -5.950   0.887  1.00  0.00     0.320 C 
HETATM    3  O   UNL     1       4.966  -6.233  -0.262  1.00  0.00    -0.247 OA
HETATM    4  N   UNL     1       5.323  -6.902   1.877  1.00  0.00    -0.340 N 
HETATM    5  H   UNL     1       6.184  -4.677   2.199  1.00  0.00     0.170 HD
HETATM    6  H   UNL     1       5.462  -6.649   2.843  1.00  0.00     0.164 HD
ENDROOT
BRANCH   1   7
HETATM    7  C   UNL     1       5.701  -3.535   0.521  1.00  0.00     0.051 A 
HETATM    8  C   UNL     1       5.012  -3.423  -0.687  1.00  0.00     0.035 A 
HETATM    9  C   UNL     1       5.096  -2.251  -1.434  1.00  0.00     0.058 A 
HETATM   10  C   UNL     1       5.861  -1.209  -0.944  1.00  0.00     0.141 A 
HETATM   11  N   UNL     1       6.528  -1.258   0.230  1.00  0.00    -0.345 N 
HETATM   12  C   UNL     1       6.427  -2.417   0.932  1.00  0.00     0.119 A 
ATOM     13  HN  UNL     1       7.077  -0.469   0.570  1.00  0.00     0.167 HD
BRANCH  10  14
HETATM   14  O   UNL     1       5.900  -0.075  -1.730  1.00  0.00    -0.341 OA
HETATM   15  C   UNL     1       6.740   0.945  -1.207  1.00  0.00     0.211 C 
ENDBRANCH  10  14
ENDBRANCH   1   7
BRANCH   4  16
HETATM   16  C   UNL     1       4.977  -8.286   1.581  1.00  0.00     0.166 C 
BRANCH  16  17
HETATM   17  C   UNL     1       6.158  -9.294   1.799  1.00  0.00     0.174 C 
HETATM   18  C   UNL     1       7.346  -8.872   0.885  1.00  0.00     0.043 C 
HETATM   19  C   UNL     1       7.992 -10.148   0.339  1.00  0.00     0.003 C 
HETATM   20  C   UNL     1       7.059 -11.300   0.680  1.00  0.00     0.003 C 
HETATM   21  C   UNL     1       5.768 -10.652   1.156  1.00  0.00     0.043 C 
BRANCH  17  22
HETATM   22  N   UNL     1       6.546  -9.338   3.248  1.00  0.00     0.091 N 
HETATM   23  C   UNL     1       5.456  -9.739   4.147  1.00  0.00     0.310 C 
HETATM   24  C   UNL     1       7.740 -10.112   3.584  1.00  0.00     0.310 C 
ENDBRANCH  17  22
ENDBRANCH  16  17
ENDBRANCH   4  16
TORSDOF 5
