REMARK  5 active torsions:
REMARK  status: ('A' for Active; 'I' for Inactive)
REMARK    1  A    between atoms: C_2  and  C_4 
REMARK    2  A    between atoms: C_4  and  C_5 
REMARK    3  A    between atoms: C_5  and  N_6 
REMARK       I    between atoms: N_6  and  C_7 
REMARK    4  A    between atoms: C_7  and  C_9 
REMARK    5  A    between atoms: C_9  and  C_10 
ROOT
HETATM    1  C   UNL     1       6.984   4.504   2.619  1.00  0.00     0.041 A 
HETATM    2  C   UNL     1       8.054   5.064   2.019  1.00  0.00     0.018 A 
HETATM    3  C   UNL     1       9.396   4.383   1.911  1.00  0.00     0.069 C 
HETATM    4  N   UNL     1       8.031   6.300   1.411  1.00  0.00    -0.349 N 
ATOM      5  HN  UNL     1       8.869   6.686   0.975  1.00  0.00     0.167 HD
HETATM    6  C   UNL     1       6.920   6.956   1.409  1.00  0.00     0.080 A 
HETATM    7  C   UNL     1       6.819   8.300   0.750  1.00  0.00     0.089 C 
HETATM    8  N   UNL     1       5.777   6.493   1.990  1.00  0.00    -0.313 N 
HETATM    9  C   UNL     1       5.718   5.276   2.592  1.00  0.00     0.255 A 
HETATM   10  O   UNL     1       4.676   4.835   3.069  1.00  0.00    -0.268 OA
HETATM   11  H   UNL     1       4.921   7.025   1.957  1.00  0.00     0.170 HD
ENDROOT
BRANCH   1  12
HETATM   12  C   UNL     1       6.914   3.174   3.306  1.00  0.00     0.149 C 
BRANCH  12  13
HETATM   13  C   UNL     1       6.506   2.122   2.292  1.00  0.00     0.222 C 
HETATM   14  N   UNL     1       5.146   1.985   2.126  1.00  0.00    -0.361 N 
HETATM   15  H   UNL     1       4.525   2.623   2.620  1.00  0.00     0.162 HD
HETATM   16  O   UNL     1       7.335   1.470   1.662  1.00  0.00    -0.273 OA
BRANCH  14  17
HETATM   17  C   UNL     1       4.578   1.023   1.206  1.00  0.00     0.123 C 
BRANCH  17  18
HETATM   18  C   UNL     1       4.388  -0.356   1.843  1.00  0.00     0.023 C 
BRANCH  18  19
HETATM   19  C   UNL     1       3.421  -0.383   3.043  1.00  0.00    -0.021 C 
HETATM   20  C   UNL     1       2.010   0.065   2.662  1.00  0.00     0.009 C 
HETATM   21  C   UNL     1       3.367  -1.792   3.642  1.00  0.00     0.009 C 
ENDBRANCH  18  19
ENDBRANCH  17  18
ENDBRANCH  14  17
ENDBRANCH  12  13
ENDBRANCH   1  12
TORSDOF 5
