REMARK  4 active torsions:
REMARK  status: ('A' for Active; 'I' for Inactive)
REMARK    1  A    between atoms: C_5  and  N_9 
REMARK    2  A    between atoms: N_9  and  C_10 
REMARK    3  A    between atoms: C_10  and  C_11 
REMARK    4  A    between atoms: C_11  and  C_12 
ROOT
HETATM    1  N   UNL     1       4.443  -0.686  -2.943  1.00  0.00     0.088 N 
HETATM    2  H   UNL     1       4.864  -0.377  -2.067  1.00  0.00     0.316 HD
ENDROOT
BRANCH   1   3
HETATM    3  C   UNL     1       2.974  -0.688  -2.816  1.00  0.00     0.220 C 
HETATM    4  C   UNL     1       2.503   0.726  -2.432  1.00  0.00     0.036 C 
HETATM    5  C   UNL     1       2.830   1.100  -0.983  1.00  0.00     0.007 C 
HETATM    6  C   UNL     1       2.330   0.058   0.035  1.00  0.00    -0.015 C 
HETATM    7  C   UNL     1       0.806   0.152   0.196  1.00  0.00     0.010 C 
HETATM    8  C   UNL     1       2.828  -1.356  -0.353  1.00  0.00    -0.013 C 
HETATM    9  C   UNL     1       2.432  -1.708  -1.797  1.00  0.00     0.040 C 
HETATM   10  C   UNL     1       2.366  -2.448   0.612  1.00  0.00     0.010 C 
ENDBRANCH   1   3
BRANCH   1  11
HETATM   11  C   UNL     1       5.030  -1.980  -3.304  1.00  0.00     0.276 C 
BRANCH  11  12
HETATM   12  C   UNL     1       4.586  -2.510  -4.676  1.00  0.00     0.089 C 
BRANCH  12  13
HETATM   13  C   UNL     1       5.155  -3.864  -4.933  1.00  0.00     0.031 A 
HETATM   14  C   UNL     1       4.624  -5.113  -4.685  1.00  0.00     0.045 A 
HETATM   15  C   UNL     1       5.624  -6.014  -5.084  1.00  0.00     0.109 A 
HETATM   16  N   UNL     1       6.703  -5.396  -5.562  1.00  0.00    -0.310 N 
HETATM   17  N   UNL     1       6.395  -4.089  -5.473  1.00  0.00    -0.301 N 
ATOM     18  HN  UNL     1       7.563  -5.816  -5.914  1.00  0.00     0.186 HD
HETATM   19  C   UNL     1       7.349  -3.100  -5.919  1.00  0.00     0.177 C 
ENDBRANCH  12  13
ENDBRANCH  11  12
ENDBRANCH   1  11
TORSDOF 4
