REMARK  4 active torsions:
REMARK  status: ('A' for Active; 'I' for Inactive)
REMARK    1  A    between atoms: N_2  and  C_3 
REMARK    2  A    between atoms: C_6  and  N_7 
REMARK       I    between atoms: N_7  and  C_8 
REMARK       I    between atoms: C_8  and  N_10 
REMARK    3  A    between atoms: N_10  and  C_11 
REMARK    4  A    between atoms: N_14  and  S_17 
ROOT
HETATM    1  N   UNL     1       5.413  -4.667   6.882  1.00  0.00    -0.308 N 
HETATM    2  C   UNL     1       5.843  -5.732   6.114  1.00  0.00     0.321 C 
HETATM    3  O   UNL     1       6.577  -6.637   6.483  1.00  0.00    -0.247 OA
HETATM    4  N   UNL     1       5.360  -5.653   4.821  1.00  0.00    -0.338 N 
HETATM    5  H   UNL     1       5.240  -3.808   6.380  1.00  0.00     0.170 HD
HETATM    6  H   UNL     1       4.440  -5.242   4.750  1.00  0.00     0.164 HD
ENDROOT
BRANCH   1   7
HETATM    7  C   UNL     1       5.506  -4.594   8.295  1.00  0.00     0.051 A 
HETATM    8  C   UNL     1       5.625  -5.725   9.090  1.00  0.00     0.034 A 
HETATM    9  C   UNL     1       5.657  -5.601  10.479  1.00  0.00     0.044 A 
HETATM   10  C   UNL     1       5.571  -4.345  11.073  1.00  0.00     0.079 A 
HETATM   11  N   UNL     1       5.440  -3.230  10.327  1.00  0.00    -0.355 N 
HETATM   12  C   UNL     1       5.413  -3.377   8.969  1.00  0.00     0.119 A 
ATOM     13  HN  UNL     1       5.364  -2.310  10.761  1.00  0.00     0.166 HD
BRANCH  10  14
HETATM   14  N   UNL     1       5.578  -4.307  12.478  1.00  0.00    -0.283 NA
HETATM   15  C   UNL     1       5.458  -2.998  13.089  1.00  0.00     0.114 C 
HETATM   16  H   UNL     1       6.388  -4.817  12.817  1.00  0.00     0.128 HD
ENDBRANCH  10  14
ENDBRANCH   1   7
BRANCH   4  17
HETATM   17  C   UNL     1       5.711  -6.648   3.795  1.00  0.00     0.089 C 
HETATM   18  C   UNL     1       5.078  -8.031   4.049  1.00  0.00     0.045 C 
HETATM   19  C   UNL     1       5.193  -8.971   2.844  1.00  0.00     0.137 C 
HETATM   20  N   UNL     1       4.730  -8.315   1.595  1.00  0.00    -0.311 N 
HETATM   21  C   UNL     1       5.518  -7.096   1.306  1.00  0.00     0.137 C 
HETATM   22  C   UNL     1       5.333  -6.080   2.421  1.00  0.00     0.045 C 
BRANCH  20  23
HETATM   23  S   UNL     1       3.054  -8.235   1.300  1.00  0.00     0.224 S 
HETATM   24  O   UNL     1       2.368  -8.123   2.565  1.00  0.00    -0.206 OA
HETATM   25  O   UNL     1       2.827  -7.271   0.243  1.00  0.00    -0.206 OA
HETATM   26  C   UNL     1       2.719  -9.845   0.615  1.00  0.00     0.186 C 
ENDBRANCH  20  23
ENDBRANCH   4  17
TORSDOF 4
