REMARK  5 active torsions:
REMARK  status: ('A' for Active; 'I' for Inactive)
REMARK    1  A    between atoms: S_2  and  N_5 
REMARK    2  A    between atoms: C_9  and  C_10 
REMARK       I    between atoms: C_10  and  N_12 
REMARK    3  A    between atoms: N_12  and  C_13 
REMARK    4  A    between atoms: C_13  and  C_14 
REMARK    5  A    between atoms: C_14  and  C_15 
ROOT
HETATM    1  C   UNL     1       2.110   2.591   1.499  1.00  0.00     0.236 C 
HETATM    2  O   UNL     1       2.803   3.097   2.380  1.00  0.00    -0.272 OA
HETATM    3  N   UNL     1       0.892   1.996   1.759  1.00  0.00    -0.359 N 
HETATM    4  H   UNL     1       0.486   1.392   1.049  1.00  0.00     0.162 HD
ENDROOT
BRANCH   1   5
HETATM    5  C   UNL     1       2.525   2.572   0.023  1.00  0.00     0.166 C 
HETATM    6  N   UNL     1       3.534   1.531  -0.309  1.00  0.00    -0.198 NA
HETATM    7  C   UNL     1       4.882   2.099  -0.059  1.00  0.00     0.108 C 
HETATM    8  C   UNL     1       4.690   3.609   0.051  1.00  0.00     0.018 C 
HETATM    9  C   UNL     1       3.249   3.860  -0.361  1.00  0.00     0.031 C 
BRANCH   6  10
HETATM   10  S   UNL     1       3.213  -0.033   0.218  1.00  0.00     0.208 S 
HETATM   11  C   UNL     1       4.335  -0.988  -0.786  1.00  0.00     0.180 C 
HETATM   12  O   UNL     1       1.856  -0.335  -0.186  1.00  0.00    -0.212 OA
HETATM   13  O   UNL     1       3.618  -0.153   1.600  1.00  0.00    -0.212 OA
ENDBRANCH   6  10
ENDBRANCH   1   5
BRANCH   3  14
HETATM   14  C   UNL     1       0.409   1.856   3.124  1.00  0.00     0.128 C 
BRANCH  14  15
HETATM   15  C   UNL     1       0.028   3.200   3.744  1.00  0.00     0.076 C 
BRANCH  15  16
HETATM   16  C   UNL     1      -0.506   3.034   5.140  1.00  0.00     0.010 A 
HETATM   17  C   UNL     1       0.352   3.092   6.235  1.00  0.00     0.025 A 
HETATM   18  C   UNL     1      -0.185   2.947   7.513  1.00  0.00     0.003 A 
HETATM   19  C   UNL     1      -1.549   2.738   7.659  1.00  0.00     0.017 A 
HETATM   20  C   UNL     1      -2.327   2.681   6.516  1.00  0.00     0.088 A 
HETATM   21  N   UNL     1      -1.839   2.817   5.265  1.00  0.00    -0.369 N 
ATOM     22  HN  UNL     1      -2.447   2.759   4.448  1.00  0.00     0.165 HD
ENDBRANCH  15  16
ENDBRANCH  14  15
ENDBRANCH   3  14
TORSDOF 5
