REMARK  2 active torsions:
REMARK  status: ('A' for Active; 'I' for Inactive)
REMARK    1  A    between atoms: C_8  and  N_9 
REMARK       I    between atoms: N_9  and  C_10 
REMARK    2  A    between atoms: C_10  and  C_12 
ROOT
HETATM    1  N   UNL     1       2.329  -2.321   0.335  1.00  0.00    -0.307 N 
HETATM    2  C   UNL     1       0.978  -2.556   0.178  1.00  0.00     0.282 C 
HETATM    3  O   UNL     1       0.126  -1.749  -0.180  1.00  0.00    -0.265 OA
HETATM    4  H   UNL     1       2.907  -3.108   0.585  1.00  0.00     0.170 HD
ENDROOT
BRANCH   1   5
HETATM    5  C   UNL     1       2.938  -1.056   0.179  1.00  0.00     0.113 A 
HETATM    6  C   UNL     1       4.328  -0.902   0.287  1.00  0.00    -0.018 A 
HETATM    7  C   UNL     1       5.274  -2.028   0.581  1.00  0.00     0.052 C 
HETATM    8  C   UNL     1       4.864   0.387   0.100  1.00  0.00     0.012 A 
HETATM    9  C   UNL     1       4.032   1.465  -0.171  1.00  0.00     0.018 A 
HETATM   10  C   UNL     1       2.680   1.220  -0.240  1.00  0.00     0.089 A 
HETATM   11  N   UNL     1       2.138  -0.001  -0.071  1.00  0.00    -0.352 N 
ATOM     12  HN  UNL     1       1.128  -0.127  -0.132  1.00  0.00     0.166 HD
ENDBRANCH   1   5
BRANCH   2  13
HETATM   13  C   UNL     1       0.559  -3.967   0.521  1.00  0.00     0.159 C 
HETATM   14  C   UNL     1      -0.757  -4.230   0.491  1.00  0.00     0.177 C 
HETATM   15  O   UNL     1      -1.349  -5.411   0.822  1.00  0.00    -0.358 OA
HETATM   16  C   UNL     1      -0.456  -6.421   1.283  1.00  0.00     0.201 C 
HETATM   17  C   UNL     1       0.969  -5.978   1.629  1.00  0.00     0.202 C 
HETATM   18  O   UNL     1       1.515  -4.900   0.864  1.00  0.00    -0.342 OA
ENDBRANCH   2  13
TORSDOF 2
