REMARK  9 active torsions:
REMARK  status: ('A' for Active; 'I' for Inactive)
REMARK    1  A    between atoms: N_3  and  C_12 
REMARK    2  A    between atoms: C_5  and  N_11 
REMARK    3  A    between atoms: C_12  and  C_22 
REMARK    4  A    between atoms: C_17  and  C_18 
REMARK    5  A    between atoms: C_17  and  C_31 
REMARK    6  A    between atoms: C_22  and  C_27 
REMARK    7  A    between atoms: C_22  and  O_30 
REMARK    8  A    between atoms: O_25  and  C_27 
REMARK    9  A    between atoms: O_25  and  C_26 
ROOT
HETATM    1  C   UNL     1      -1.538   3.813  -1.282  1.00  0.00     0.149 A 
HETATM    2  C   UNL     1      -0.838   3.886  -2.465  1.00  0.00     0.149 A 
HETATM    3  N   UNL     1      -2.047   2.514  -1.233  1.00  0.00    -0.295 N 
HETATM    4  N   UNL     1      -1.575   4.922  -0.438  1.00  0.00    -0.287 N 
HETATM    5  C   UNL     1      -1.699   1.939  -2.447  1.00  0.00     0.254 A 
HETATM    6  C   UNL     1      -0.948   6.162  -0.862  1.00  0.00     0.332 A 
HETATM    7  N   UNL     1      -0.250   6.158  -2.051  1.00  0.00    -0.269 N 
HETATM    8  N   UNL     1      -0.946   2.732  -3.184  1.00  0.00    -0.315 N 
ATOM      9  HN  UNL     1      -0.534   2.527  -4.094  1.00  0.00     0.169 HD
HETATM   10  C   UNL     1      -0.088   5.053  -2.870  1.00  0.00     0.281 A 
HETATM   11  O   UNL     1      -1.069   7.139  -0.131  1.00  0.00    -0.246 OA
HETATM   12  O   UNL     1       0.639   5.047  -3.858  1.00  0.00    -0.265 OA
HETATM   13  C   UNL     1      -2.308   5.034   0.830  1.00  0.00     0.163 C 
HETATM   14  C   UNL     1       0.377   7.406  -2.443  1.00  0.00     0.164 C 
ENDROOT
BRANCH   3  15
HETATM   15  C   UNL     1      -2.582   1.822  -0.065  1.00  0.00     0.168 C 
BRANCH  15  16
HETATM   16  C   UNL     1      -4.113   1.888   0.130  1.00  0.00     0.161 C 
BRANCH  16  17
HETATM   17  C   UNL     1      -4.558   1.227   1.464  1.00  0.00     0.209 C 
BRANCH  17  18
HETATM   18  O   UNL     1      -3.925   1.940   2.539  1.00  0.00    -0.349 OA
BRANCH  18  19
HETATM   19  C   UNL     1      -4.531   1.919   3.765  1.00  0.00     0.068 A 
HETATM   20  C   UNL     1      -5.382   0.925   4.242  1.00  0.00     0.037 A 
HETATM   21  C   UNL     1      -5.943   1.041   5.528  1.00  0.00     0.018 A 
HETATM   22  C   UNL     1      -5.666   2.154   6.334  1.00  0.00     0.010 A 
HETATM   23  C   UNL     1      -4.780   3.128   5.868  1.00  0.00     0.018 A 
HETATM   24  C   UNL     1      -4.212   3.000   4.595  1.00  0.00     0.037 A 
BRANCH  22  25
HETATM   25  C   UNL     1      -6.317   2.258   7.672  1.00  0.00     0.159 C 
HETATM   26  O   UNL     1      -6.635   1.226   8.259  1.00  0.00    -0.292 OA
BRANCH  25  27
HETATM   27  C   UNL     1      -6.566   3.641   8.256  1.00  0.00     0.079 C 
HETATM   28  C   UNL     1      -7.774   3.653   9.181  1.00  0.00     0.013 C 
ENDBRANCH  25  27
ENDBRANCH  22  25
ENDBRANCH  18  19
ENDBRANCH  17  18
ENDBRANCH  16  17
BRANCH  16  29
HETATM   29  O   UNL     1      -4.540   3.261   0.111  1.00  0.00    -0.392 OA
HETATM   30  H   UNL     1      -5.071   3.424   0.916  1.00  0.00     0.210 HD
ENDBRANCH  16  29
ENDBRANCH  15  16
ENDBRANCH   3  15
BRANCH   5  31
HETATM   31  N   UNL     1      -2.038   0.611  -2.905  1.00  0.00    -0.079 N 
HETATM   32  O   UNL     1      -2.793  -0.055  -2.189  1.00  0.00    -0.529 OA
HETATM   33  O   UNL     1      -1.560   0.238  -3.984  1.00  0.00    -0.529 OA
ENDBRANCH   5  31
TORSDOF 9
