REMARK  6 active torsions:
REMARK  status: ('A' for Active; 'I' for Inactive)
REMARK    1  A    between atoms: N_8  and  C_9 
REMARK    2  A    between atoms: C_9  and  C_10 
REMARK    3  A    between atoms: C_10  and  O_11 
REMARK    4  A    between atoms: C_10  and  C_12 
REMARK    5  A    between atoms: C_12  and  N_13 
REMARK    6  A    between atoms: C_16  and  C_19 
REMARK       I    between atoms: C_19  and  N_21 
ROOT
HETATM    1  C   UNL     1       7.230   2.272   0.197  1.00  0.00     0.164 C 
ENDROOT
BRANCH   1   2
HETATM    2  C   UNL     1       7.683   0.802   0.139  1.00  0.00     0.163 C 
BRANCH   2   3
HETATM    3  N   UNL     1       6.564  -0.128   0.159  1.00  0.00    -0.339 N 
HETATM    4  C   UNL     1       6.034  -0.686   1.290  1.00  0.00     0.184 A 
HETATM    5  N   UNL     1       5.013  -1.467   1.017  1.00  0.00    -0.350 N 
HETATM    6  C   UNL     1       4.874  -1.406  -0.348  1.00  0.00     0.060 A 
ATOM      7  HN  UNL     1       4.447  -2.002   1.676  1.00  0.00     0.166 HD
HETATM    8  C   UNL     1       3.919  -2.022  -1.169  1.00  0.00     0.039 A 
HETATM    9  C   UNL     1       5.852  -0.598  -0.919  1.00  0.00     0.062 A 
HETATM   10  C   UNL     1       3.959  -1.814  -2.562  1.00  0.00    -0.054 A 
HETATM   11  C   UNL     1       2.897  -2.452  -3.418  1.00  0.00     0.049 C 
HETATM   12  C   UNL     1       4.975  -1.011  -3.124  1.00  0.00    -0.054 A 
HETATM   13  C   UNL     1       5.944  -0.395  -2.302  1.00  0.00     0.039 A 
HETATM   14  C   UNL     1       5.039  -0.778  -4.612  1.00  0.00     0.049 C 
ENDBRANCH   2   3
ENDBRANCH   1   2
BRANCH   1  15
HETATM   15  O   UNL     1       6.566   2.546   1.441  1.00  0.00    -0.392 OA
HETATM   16  H   UNL     1       7.200   2.432   2.166  1.00  0.00     0.210 HD
ENDBRANCH   1  15
BRANCH   1  17
HETATM   17  C   UNL     1       8.416   3.264   0.049  1.00  0.00     0.305 C 
BRANCH  17  18
HETATM   18  N   UNL     1       9.235   3.048  -1.146  1.00  0.00     0.091 N 
HETATM   19  C   UNL     1       8.517   3.330  -2.395  1.00  0.00     0.273 C 
HETATM   20  C   UNL     1       9.324   2.718  -3.538  1.00  0.00     0.044 C 
HETATM   21  C   UNL     1      10.739   3.306  -3.614  1.00  0.00     0.081 C 
HETATM   22  C   UNL     1      11.407   3.333  -2.230  1.00  0.00     0.044 C 
HETATM   23  C   UNL     1      10.475   3.843  -1.125  1.00  0.00     0.273 C 
BRANCH  21  24
HETATM   24  C   UNL     1      10.722   4.686  -4.260  1.00  0.00     0.219 C 
HETATM   25  O   UNL     1      11.090   5.716  -3.708  1.00  0.00    -0.273 OA
HETATM   26  N   UNL     1      10.269   4.715  -5.546  1.00  0.00    -0.370 N 
HETATM   27  H   UNL     1      10.104   3.879  -6.090  1.00  0.00     0.159 HD
HETATM   28  H   UNL     1      10.306   5.604  -6.030  1.00  0.00     0.159 HD
ENDBRANCH  21  24
ENDBRANCH  17  18
ENDBRANCH   1  17
TORSDOF 6
