REMARK  6 active torsions:
REMARK  status: ('A' for Active; 'I' for Inactive)
REMARK    1  A    between atoms: C_1  and  C_2 
REMARK    2  A    between atoms: C_1  and  N_10 
REMARK    3  A    between atoms: C_2  and  O_3 
REMARK    4  A    between atoms: O_3  and  C_4 
REMARK    5  A    between atoms: C_4  and  C_5 
REMARK    6  A    between atoms: N_10  and  C_11 
ROOT
HETATM    1  N   UNL     1       2.510  -0.003   0.022  1.00  0.00    -0.262 NA
HETATM    2  H   UNL     1       2.942   0.824   0.427  1.00  0.00     0.130 HD
ENDROOT
BRANCH   1   3
HETATM    3  C   UNL     1       1.062   0.020  -0.067  1.00  0.00     0.121 C 
BRANCH   3   4
HETATM    4  C   UNL     1       0.425   0.031   1.327  1.00  0.00     0.182 C 
BRANCH   4   5
HETATM    5  O   UNL     1      -1.007   0.107   1.280  1.00  0.00    -0.390 OA
BRANCH   5   6
HETATM    6  C   UNL     1      -1.604  -1.072   0.741  1.00  0.00     0.174 C 
BRANCH   6   7
HETATM    7  C   UNL     1      -3.117  -0.980   0.829  1.00  0.00     0.035 C 
HETATM    8  C   UNL     1      -3.670  -0.937   2.239  1.00  0.00     0.035 C 
HETATM    9  C   UNL     1      -5.003  -1.659   2.132  1.00  0.00     0.168 C 
HETATM   10  O   UNL     1      -5.089  -2.246   0.827  1.00  0.00    -0.391 OA
HETATM   11  C   UNL     1      -3.786  -2.207   0.246  1.00  0.00     0.174 C 
ENDBRANCH   6   7
ENDBRANCH   5   6
ENDBRANCH   4   5
ENDBRANCH   3   4
ENDBRANCH   1   3
BRANCH   1  12
HETATM   12  C   UNL     1       3.157  -0.209  -1.190  1.00  0.00     0.156 A 
HETATM   13  N   UNL     1       4.347   0.386  -1.319  1.00  0.00    -0.343 N 
HETATM   14  C   UNL     1       5.013   0.170  -2.469  1.00  0.00     0.092 A 
ATOM     15  HN  UNL     1       4.732   0.976  -0.581  1.00  0.00     0.167 HD
HETATM   16  C   UNL     1       4.532  -0.602  -3.496  1.00  0.00     0.034 A 
HETATM   17  C   UNL     1       3.294  -1.156  -3.273  1.00  0.00     0.092 A 
HETATM   18  N   UNL     1       2.596  -0.976  -2.139  1.00  0.00    -0.343 N 
ATOM     19  HN  UNL     1       1.680  -1.403  -2.005  1.00  0.00     0.167 HD
ENDBRANCH   1  12
TORSDOF 6
