REMARK  5 active torsions:
REMARK  status: ('A' for Active; 'I' for Inactive)
REMARK    1  A    between atoms: C_2  and  C_3 
REMARK    2  A    between atoms: C_3  and  C_4 
REMARK    3  A    between atoms: C_3  and  C_6 
REMARK    4  A    between atoms: C_8  and  N_12 
REMARK       I    between atoms: N_12  and  C_13 
REMARK       I    between atoms: C_13  and  N_15 
REMARK    5  A    between atoms: N_15  and  C_16 
ROOT
HETATM    1  N   UNL     1       5.318   3.240  -3.348  1.00  0.00    -0.338 N 
HETATM    2  C   UNL     1       4.621   3.520  -4.510  1.00  0.00     0.321 C 
HETATM    3  O   UNL     1       3.515   3.036  -4.726  1.00  0.00    -0.247 OA
HETATM    4  N   UNL     1       5.275   4.394  -5.347  1.00  0.00    -0.304 N 
HETATM    5  H   UNL     1       6.320   3.373  -3.378  1.00  0.00     0.164 HD
HETATM    6  H   UNL     1       5.826   5.104  -4.874  1.00  0.00     0.171 HD
ENDROOT
BRANCH   1   7
HETATM    7  C   UNL     1       4.786   2.199  -2.460  1.00  0.00     0.090 C 
HETATM    8  C   UNL     1       5.109   2.428  -0.984  1.00  0.00     0.057 C 
HETATM    9  C   UNL     1       4.488   1.315  -0.112  1.00  0.00     0.127 C 
HETATM   10  O   UNL     1       4.940   0.035  -0.589  1.00  0.00    -0.385 OA
HETATM   11  C   UNL     1       4.662  -0.241  -1.960  1.00  0.00     0.170 C 
HETATM   12  C   UNL     1       5.275   0.810  -2.874  1.00  0.00     0.051 C 
BRANCH   9  13
HETATM   13  C   UNL     1       2.932   1.365   0.057  1.00  0.00     0.014 C 
BRANCH  13  14
HETATM   14  C   UNL     1       2.420   0.147   0.873  1.00  0.00     0.002 C 
HETATM   15  C   UNL     1       0.903   0.109   1.048  1.00  0.00     0.005 C 
ENDBRANCH  13  14
BRANCH  13  16
HETATM   16  C   UNL     1       2.430   2.711   0.632  1.00  0.00     0.002 C 
HETATM   17  C   UNL     1       2.942   3.044   2.027  1.00  0.00     0.005 C 
ENDBRANCH  13  16
ENDBRANCH   9  13
ENDBRANCH   1   7
BRANCH   4  18
HETATM   18  C   UNL     1       4.797   4.809  -6.591  1.00  0.00     0.111 C 
HETATM   19  C   UNL     1       4.118   4.068  -7.496  1.00  0.00    -0.028 C 
HETATM   20  C   UNL     1       3.876   2.583  -7.439  1.00  0.00     0.050 C 
HETATM   21  C   UNL     1       3.572   4.694  -8.692  1.00  0.00     0.026 C 
HETATM   22  C   UNL     1       3.811   5.976  -8.973  1.00  0.00     0.094 C 
HETATM   23  N   UNL     1       4.584   6.752  -8.140  1.00  0.00    -0.327 N 
HETATM   24  C   UNL     1       4.882   8.117  -8.527  1.00  0.00     0.159 C 
HETATM   25  C   UNL     1       5.125   6.253  -6.953  1.00  0.00     0.274 C 
HETATM   26  O   UNL     1       5.842   6.910  -6.195  1.00  0.00    -0.265 OA
ENDBRANCH   4  18
TORSDOF 5
