REMARK  5 active torsions:
REMARK  status: ('A' for Active; 'I' for Inactive)
REMARK    1  A    between atoms: C_2  and  C_3 
REMARK    2  A    between atoms: C_2  and  N_10 
REMARK    3  A    between atoms: C_3  and  N_4 
REMARK       I    between atoms: N_10  and  C_11 
REMARK       I    between atoms: C_11  and  N_13 
REMARK    4  A    between atoms: N_13  and  C_14 
REMARK    5  A    between atoms: C_14  and  C_15 
ROOT
HETATM    1  N   UNL     1       3.172   1.321  -0.327  1.00  0.00    -0.337 N 
HETATM    2  C   UNL     1       4.523   1.445  -0.489  1.00  0.00     0.316 C 
HETATM    3  O   UNL     1       5.293   0.493  -0.475  1.00  0.00    -0.247 OA
HETATM    4  N   UNL     1       4.909   2.746  -0.665  1.00  0.00    -0.341 N 
HETATM    5  H   UNL     1       2.600   2.098  -0.625  1.00  0.00     0.164 HD
HETATM    6  H   UNL     1       4.277   3.476  -0.371  1.00  0.00     0.164 HD
ENDROOT
BRANCH   1   7
HETATM    7  C   UNL     1       2.540   0.002  -0.177  1.00  0.00     0.102 C 
HETATM    8  C   UNL     1       1.132   0.195   0.383  1.00  0.00     0.034 C 
BRANCH   7   9
HETATM    9  C   UNL     1       2.552  -0.788  -1.499  1.00  0.00     0.172 C 
BRANCH   9  10
HETATM   10  N   UNL     1       2.035  -2.137  -1.389  1.00  0.00    -0.302 N 
HETATM   11  C   UNL     1       2.742  -3.268  -1.082  1.00  0.00     0.111 A 
HETATM   12  C   UNL     1       1.859  -4.316  -1.197  1.00  0.00     0.037 A 
HETATM   13  C   UNL     1       0.644  -3.717  -1.575  1.00  0.00     0.108 A 
HETATM   14  N   UNL     1       0.745  -2.391  -1.690  1.00  0.00    -0.310 N 
ATOM     15  HN  UNL     1       0.016  -1.725  -1.946  1.00  0.00     0.186 HD
ENDBRANCH   9  10
ENDBRANCH   7   9
ENDBRANCH   1   7
BRANCH   4  16
HETATM   16  C   UNL     1       6.314   3.108  -0.752  1.00  0.00     0.156 C 
BRANCH  16  17
HETATM   17  C   UNL     1       6.935   3.536   0.584  1.00  0.00     0.139 C 
HETATM   18  C   UNL     1       6.831   2.555   1.744  1.00  0.00     0.035 C 
HETATM   19  C   UNL     1       6.700   3.435   2.973  1.00  0.00     0.029 C 
HETATM   20  C   UNL     1       6.744   4.851   2.440  1.00  0.00     0.168 C 
HETATM   21  O   UNL     1       6.338   4.755   1.068  1.00  0.00    -0.384 OA
ENDBRANCH  16  17
ENDBRANCH   4  16
TORSDOF 5
