REMARK  3 active torsions:
REMARK  status: ('A' for Active; 'I' for Inactive)
REMARK    1  A    between atoms: C_5  and  O_6 
REMARK    2  A    between atoms: C_5  and  C_7 
REMARK    3  A    between atoms: C_7  and  N_8 
ROOT
HETATM    1  N   UNL     1       5.162   0.225  -3.814  1.00  0.00    -0.283 N 
HETATM    2  N   UNL     1       4.498   0.446  -4.983  1.00  0.00    -0.308 N 
ATOM      3  HN  UNL     1       3.572   0.113  -5.250  1.00  0.00     0.186 HD
HETATM    4  C   UNL     1       5.338   1.200  -5.700  1.00  0.00     0.122 A 
HETATM    5  C   UNL     1       6.527   1.451  -5.011  1.00  0.00     0.032 A 
HETATM    6  C   UNL     1       7.734   2.148  -5.322  1.00  0.00     0.122 A 
HETATM    7  N   UNL     1       8.697   2.221  -4.451  1.00  0.00    -0.306 N 
ATOM      8  HN  UNL     1       9.557   2.720  -4.677  1.00  0.00     0.186 HD
HETATM    9  N   UNL     1       8.543   1.606  -3.196  1.00  0.00    -0.261 N 
HETATM   10  C   UNL     1       9.651   1.756  -2.273  1.00  0.00     0.181 C 
HETATM   11  C   UNL     1       7.408   0.873  -2.788  1.00  0.00     0.290 A 
HETATM   12  O   UNL     1       7.307   0.336  -1.689  1.00  0.00    -0.264 OA
HETATM   13  C   UNL     1       6.385   0.833  -3.792  1.00  0.00     0.133 A 
ENDROOT
BRANCH   1  14
HETATM   14  C   UNL     1       4.595  -0.689  -2.829  1.00  0.00     0.187 C 
BRANCH  14  15
HETATM   15  C   UNL     1       3.045  -0.686  -2.724  1.00  0.00     0.076 C 
HETATM   16  C   UNL     1       2.461   0.686  -2.343  1.00  0.00     0.040 C 
HETATM   17  C   UNL     1       2.786   1.087  -0.905  1.00  0.00     0.007 C 
HETATM   18  C   UNL     1       2.343   0.032   0.119  1.00  0.00    -0.019 C 
HETATM   19  C   UNL     1       0.820   0.023   0.287  1.00  0.00     0.010 C 
HETATM   20  C   UNL     1       2.874  -1.360  -0.252  1.00  0.00     0.007 C 
HETATM   21  C   UNL     1       2.580  -1.744  -1.702  1.00  0.00     0.040 C 
BRANCH  15  22
HETATM   22  O   UNL     1       2.471  -1.083  -3.980  1.00  0.00    -0.388 OA
HETATM   23  H   UNL     1       2.885  -0.507  -4.663  1.00  0.00     0.210 HD
ENDBRANCH  15  22
ENDBRANCH  14  15
ENDBRANCH   1  14
TORSDOF 3
