REMARK  7 active torsions:
REMARK  status: ('A' for Active; 'I' for Inactive)
REMARK    1  A    between atoms: C_2  and  C_3 
REMARK    2  A    between atoms: C_3  and  N_5 
REMARK       I    between atoms: N_5  and  C_6 
REMARK    3  A    between atoms: C_6  and  C_8 
REMARK    4  A    between atoms: C_8  and  N_10 
REMARK    5  A    between atoms: N_10  and  C_11 
REMARK    6  A    between atoms: C_11  and  C_12 
REMARK    7  A    between atoms: C_12  and  N_13 
ROOT
HETATM    1  C   UNL     1       6.599  -2.500  -0.537  1.00  0.00     0.307 C 
HETATM    2  C   UNL     1       7.105  -2.064   0.835  1.00  0.00     0.053 C 
ENDROOT
BRANCH   1   3
HETATM    3  C   UNL     1       5.062  -2.606  -0.486  1.00  0.00     0.251 C 
HETATM    4  N   UNL     1       4.409  -1.491  -0.970  1.00  0.00    -0.355 N 
HETATM    5  H   UNL     1       4.938  -0.646  -1.145  1.00  0.00     0.162 HD
HETATM    6  O   UNL     1       4.481  -3.604  -0.064  1.00  0.00    -0.271 OA
BRANCH   4   7
HETATM    7  C   UNL     1       2.955  -1.429  -1.066  1.00  0.00     0.080 C 
HETATM    8  C   UNL     1       2.568  -0.499  -2.215  1.00  0.00     0.032 C 
BRANCH   7   9
HETATM    9  C   UNL     1       2.350  -0.993   0.278  1.00  0.00     0.020 C 
HETATM   10  C   UNL     1       0.828  -1.024   0.293  1.00  0.00     0.007 C 
ENDBRANCH   7   9
ENDBRANCH   4   7
ENDBRANCH   1   3
BRANCH   1  11
HETATM   11  N   UNL     1       7.214  -3.798  -0.904  1.00  0.00     0.098 N 
HETATM   12  H   UNL     1       6.875  -4.483  -0.219  1.00  0.00     0.317 HD
BRANCH  11  13
HETATM   13  C   UNL     1       6.801  -4.284  -2.237  1.00  0.00     0.292 C 
BRANCH  13  14
HETATM   14  C   UNL     1       7.244  -3.404  -3.409  1.00  0.00     0.178 C 
BRANCH  14  15
HETATM   15  N   UNL     1       6.784  -3.937  -4.678  1.00  0.00    -0.302 N 
HETATM   16  C   UNL     1       7.468  -4.770  -5.515  1.00  0.00     0.111 A 
HETATM   17  C   UNL     1       6.640  -4.988  -6.591  1.00  0.00     0.037 A 
HETATM   18  C   UNL     1       5.484  -4.237  -6.311  1.00  0.00     0.108 A 
HETATM   19  N   UNL     1       5.570  -3.589  -5.147  1.00  0.00    -0.310 N 
ATOM     20  HN  UNL     1       4.879  -2.975  -4.715  1.00  0.00     0.186 HD
ENDBRANCH  14  15
ENDBRANCH  13  14
ENDBRANCH  11  13
ENDBRANCH   1  11
TORSDOF 7
