REMARK  5 active torsions:
REMARK  status: ('A' for Active; 'I' for Inactive)
REMARK       I    between atoms: C_2  and  N_3 
REMARK       I    between atoms: C_2  and  N_12 
REMARK    1  A    between atoms: N_3  and  C_4 
REMARK    2  A    between atoms: C_4  and  C_5 
REMARK    3  A    between atoms: C_5  and  N_6 
REMARK    4  A    between atoms: N_12  and  C_13 
REMARK    5  A    between atoms: C_13  and  C_14 
ROOT
HETATM    1  O   UNL     1       1.035  -0.086   0.014  1.00  0.00    -0.247 OA
HETATM    2  C   UNL     1       2.257  -0.024  -0.002  1.00  0.00     0.316 C 
HETATM    3  N   UNL     1       2.952   1.020  -0.552  1.00  0.00    -0.342 N 
HETATM    4  N   UNL     1       3.080  -0.962   0.558  1.00  0.00    -0.343 N 
HETATM    5  H   UNL     1       3.900   0.827  -0.837  1.00  0.00     0.164 HD
HETATM    6  H   UNL     1       4.080  -0.835   0.505  1.00  0.00     0.164 HD
ENDROOT
BRANCH   3   7
HETATM    7  C   UNL     1       2.242   2.071  -1.270  1.00  0.00     0.144 C 
BRANCH   7   8
HETATM    8  C   UNL     1       1.309   2.890  -0.375  1.00  0.00     0.149 C 
BRANCH   8   9
HETATM    9  N   UNL     1       0.611   3.927  -1.105  1.00  0.00    -0.350 N 
HETATM   10  C   UNL     1       1.014   5.223  -1.258  1.00  0.00     0.108 A 
HETATM   11  C   UNL     1      -0.005   5.827  -1.958  1.00  0.00     0.106 A 
HETATM   12  N   UNL     1      -1.003   4.930  -2.237  1.00  0.00    -0.361 N 
HETATM   13  C   UNL     1      -0.610   3.796  -1.701  1.00  0.00     0.182 A 
ATOM     14  HN  UNL     1      -1.866   5.105  -2.751  1.00  0.00     0.166 HD
ENDBRANCH   8   9
ENDBRANCH   7   8
ENDBRANCH   3   7
BRANCH   4  15
HETATM   15  C   UNL     1       2.560  -2.114   1.269  1.00  0.00     0.131 C 
BRANCH  15  16
HETATM   16  C   UNL     1       2.433  -3.340   0.374  1.00  0.00     0.029 C 
HETATM   17  C   UNL     1       1.398  -3.226  -0.732  1.00  0.00     0.034 C 
HETATM   18  C   UNL     1       0.857  -4.635  -0.894  1.00  0.00     0.168 C 
HETATM   19  O   UNL     1       1.456  -5.448   0.124  1.00  0.00    -0.391 OA
HETATM   20  C   UNL     1       1.957  -4.565   1.130  1.00  0.00     0.173 C 
ENDBRANCH  15  16
ENDBRANCH   4  15
TORSDOF 5
