REMARK  2 active torsions:
REMARK  status: ('A' for Active; 'I' for Inactive)
REMARK    1  A    between atoms: C_8  and  N_9 
REMARK       I    between atoms: N_9  and  C_10 
REMARK       I    between atoms: C_10  and  N_12 
REMARK    2  A    between atoms: N_12  and  C_13 
ROOT
HETATM    1  N   UNL     1       5.449   2.619   0.629  1.00  0.00    -0.295 N 
HETATM    2  C   UNL     1       6.813   2.512   0.691  1.00  0.00     0.322 C 
HETATM    3  O   UNL     1       7.332   1.429   0.943  1.00  0.00    -0.247 OA
HETATM    4  N   UNL     1       7.512   3.629   0.332  1.00  0.00    -0.338 N 
HETATM    5  H   UNL     1       4.972   1.733   0.702  1.00  0.00     0.172 HD
HETATM    6  H   UNL     1       6.964   4.486   0.364  1.00  0.00     0.164 HD
ENDROOT
BRANCH   1   7
HETATM    7  C   UNL     1       4.700   3.775   0.395  1.00  0.00     0.109 A 
HETATM    8  N   UNL     1       5.317   4.972   0.501  1.00  0.00    -0.346 N 
HETATM    9  C   UNL     1       4.607   6.096   0.278  1.00  0.00     0.007 A 
ATOM     10  HN  UNL     1       6.306   5.025   0.746  1.00  0.00     0.167 HD
HETATM   11  C   UNL     1       3.272   6.064  -0.095  1.00  0.00     0.031 A 
HETATM   12  C   UNL     1       5.351   7.380   0.469  1.00  0.00     0.068 C 
HETATM   13  C   UNL     1       2.640   4.823  -0.226  1.00  0.00    -0.057 A 
HETATM   14  C   UNL     1       1.212   4.737  -0.678  1.00  0.00     0.048 C 
HETATM   15  C   UNL     1       3.363   3.659   0.052  1.00  0.00     0.055 A 
ENDBRANCH   1   7
BRANCH   4  16
HETATM   16  C   UNL     1       8.941   3.709   0.093  1.00  0.00     0.091 C 
HETATM   17  C   UNL     1       9.362   5.131  -0.303  1.00  0.00     0.051 C 
HETATM   18  C   UNL     1       9.060   5.465  -1.763  1.00  0.00     0.171 C 
HETATM   19  O   UNL     1       9.512   4.458  -2.669  1.00  0.00    -0.381 OA
HETATM   20  C   UNL     1       8.999   3.143  -2.404  1.00  0.00     0.055 C 
HETATM   21  C   UNL     1       7.486   3.081  -2.678  1.00  0.00     0.045 C 
HETATM   22  C   UNL     1       9.678   2.185  -3.394  1.00  0.00     0.045 C 
HETATM   23  C   UNL     1       9.413   2.728  -0.982  1.00  0.00     0.062 C 
ENDBRANCH   4  16
TORSDOF 2
