REMARK  7 active torsions:
REMARK  status: ('A' for Active; 'I' for Inactive)
REMARK    1  A    between atoms: C_2  and  C_3 
REMARK    2  A    between atoms: C_3  and  N_4 
REMARK    3  A    between atoms: N_7  and  C_8 
REMARK    4  A    between atoms: C_8  and  C_9 
REMARK    5  A    between atoms: C_9  and  O_10 
REMARK    6  A    between atoms: C_9  and  C_11 
REMARK    7  A    between atoms: C_11  and  C_12 
ROOT
HETATM    1  N   UNL     1       4.481  -0.179  -1.612  1.00  0.00    -0.297 N 
HETATM    2  C   UNL     1       5.225   1.019  -1.625  1.00  0.00     0.330 A 
HETATM    3  O   UNL     1       4.804   2.163  -1.684  1.00  0.00    -0.246 OA
HETATM    4  N   UNL     1       6.581   0.646  -1.545  1.00  0.00    -0.295 N 
HETATM    5  C   UNL     1       6.668  -0.755  -1.519  1.00  0.00     0.066 A 
HETATM    6  C   UNL     1       7.768  -1.584  -1.457  1.00  0.00     0.032 A 
HETATM    7  C   UNL     1       7.531  -2.963  -1.417  1.00  0.00     0.002 A 
HETATM    8  C   UNL     1       6.217  -3.476  -1.431  1.00  0.00     0.002 A 
HETATM    9  C   UNL     1       5.112  -2.622  -1.488  1.00  0.00     0.032 A 
HETATM   10  C   UNL     1       5.365  -1.264  -1.541  1.00  0.00     0.066 A 
ENDROOT
BRANCH   4  11
HETATM   11  C   UNL     1       7.685   1.573  -1.473  1.00  0.00     0.166 C 
BRANCH  11  12
HETATM   12  C   UNL     1       8.283   1.885  -2.860  1.00  0.00     0.145 C 
BRANCH  12  13
HETATM   13  O   UNL     1       7.327   2.542  -3.704  1.00  0.00    -0.394 OA
HETATM   14  H   UNL     1       6.561   2.822  -3.166  1.00  0.00     0.210 HD
ENDBRANCH  12  13
BRANCH  12  15
HETATM   15  C   UNL     1       9.510   2.790  -2.808  1.00  0.00     0.150 C 
BRANCH  15  16
HETATM   16  C   UNL     1      10.662   2.224  -2.012  1.00  0.00     0.390 C 
HETATM   17  F   UNL     1      10.510   0.913  -1.736  1.00  0.00    -0.171 F 
HETATM   18  F   UNL     1      11.826   2.364  -2.682  1.00  0.00    -0.171 F 
HETATM   19  F   UNL     1      10.791   2.876  -0.834  1.00  0.00    -0.171 F 
ENDBRANCH  15  16
ENDBRANCH  12  15
ENDBRANCH  11  12
ENDBRANCH   4  11
BRANCH   1  20
HETATM   20  C   UNL     1       3.042  -0.254  -1.537  1.00  0.00     0.134 C 
BRANCH  20  21
HETATM   21  C   UNL     1       2.557  -0.247  -0.087  1.00  0.00     0.016 C 
HETATM   22  C   UNL     1       1.041  -0.292  -0.001  1.00  0.00     0.006 C 
ENDBRANCH  20  21
ENDBRANCH   1  20
TORSDOF 7
