REMARK  3 active torsions:
REMARK  status: ('A' for Active; 'I' for Inactive)
REMARK    1  A    between atoms: C_9  and  N_11 
REMARK       I    between atoms: N_11  and  C_12 
REMARK       I    between atoms: C_12  and  N_14 
REMARK    2  A    between atoms: N_14  and  C_15 
REMARK    3  A    between atoms: C_21  and  N_22 
ROOT
HETATM    1  N   UNL     1       6.317   0.050   0.233  1.00  0.00    -0.338 N 
HETATM    2  C   UNL     1       6.990   1.218   0.540  1.00  0.00     0.321 C 
HETATM    3  O   UNL     1       6.816   2.277  -0.050  1.00  0.00    -0.247 OA
HETATM    4  N   UNL     1       7.920   0.971   1.525  1.00  0.00    -0.306 N 
HETATM    5  H   UNL     1       6.162  -0.533   1.045  1.00  0.00     0.164 HD
HETATM    6  H   UNL     1       8.317   0.035   1.515  1.00  0.00     0.171 HD
ENDROOT
BRANCH   1   7
HETATM    7  C   UNL     1       5.239   0.010  -0.774  1.00  0.00     0.090 C 
HETATM    8  C   UNL     1       5.000  -1.459  -1.151  1.00  0.00     0.061 C 
HETATM    9  C   UNL     1       3.546  -1.885  -1.380  1.00  0.00     0.225 C 
HETATM   10  N   UNL     1       2.696  -1.261  -0.364  1.00  0.00     0.093 N 
HETATM   11  C   UNL     1       3.055  -1.664  -2.816  1.00  0.00     0.036 C 
HETATM   12  C   UNL     1       1.367  -1.860  -0.286  1.00  0.00     0.310 C 
HETATM   13  C   UNL     1       2.649   0.187  -0.584  1.00  0.00     0.225 C 
HETATM   14  C   UNL     1       2.117   0.591  -1.968  1.00  0.00     0.036 C 
HETATM   15  C   UNL     1       4.020   0.777  -0.247  1.00  0.00     0.061 C 
HETATM   16  C   UNL     1       2.586  -0.253  -3.149  1.00  0.00     0.004 C 
ENDBRANCH   1   7
BRANCH   4  17
HETATM   17  C   UNL     1       8.848   1.948   1.956  1.00  0.00     0.075 A 
HETATM   18  C   UNL     1       8.428   3.217   2.343  1.00  0.00     0.034 A 
HETATM   19  C   UNL     1       9.365   4.101   2.856  1.00  0.00     0.019 A 
HETATM   20  C   UNL     1      10.680   3.674   2.958  1.00  0.00     0.089 A 
HETATM   21  N   UNL     1      11.117   2.448   2.580  1.00  0.00    -0.355 N 
HETATM   22  C   UNL     1      10.210   1.590   2.063  1.00  0.00     0.109 A 
ATOM     23  HN  UNL     1      12.096   2.182   2.682  1.00  0.00     0.166 HD
BRANCH  22  24
HETATM   24  N   UNL     1      10.611   0.321   1.614  1.00  0.00    -0.267 NA
HETATM   25  C   UNL     1      11.945  -0.140   2.010  1.00  0.00     0.097 C 
HETATM   26  C   UNL     1      12.194  -1.342   1.078  1.00  0.00     0.016 C 
HETATM   27  C   UNL     1      11.058  -1.303   0.056  1.00  0.00     0.016 C 
HETATM   28  C   UNL     1      10.537   0.122   0.162  1.00  0.00     0.097 C 
ENDBRANCH  22  24
ENDBRANCH   4  17
TORSDOF 3
