REMARK  4 active torsions:
REMARK  status: ('A' for Active; 'I' for Inactive)
REMARK       I    between atoms: N_2  and  C_3 
REMARK    1  A    between atoms: C_3  and  C_5 
REMARK    2  A    between atoms: C_5  and  N_6 
REMARK    3  A    between atoms: C_9  and  N_12 
REMARK       I    between atoms: N_12  and  C_13 
REMARK       I    between atoms: C_13  and  N_15 
REMARK    4  A    between atoms: N_15  and  C_16 
ROOT
HETATM    1  N   UNL     1       5.043   5.914  -0.332  1.00  0.00    -0.338 N 
HETATM    2  C   UNL     1       5.312   6.936   0.556  1.00  0.00     0.321 C 
HETATM    3  O   UNL     1       4.920   6.916   1.717  1.00  0.00    -0.247 OA
HETATM    4  N   UNL     1       6.020   7.960  -0.034  1.00  0.00    -0.306 N 
HETATM    5  H   UNL     1       5.754   5.747  -1.029  1.00  0.00     0.164 HD
HETATM    6  H   UNL     1       6.085   7.981  -1.041  1.00  0.00     0.171 HD
ENDROOT
BRANCH   1   7
HETATM    7  C   UNL     1       4.232   4.773   0.098  1.00  0.00     0.089 C 
HETATM    8  C   UNL     1       5.043   3.732   0.873  1.00  0.00     0.055 C 
HETATM    9  C   UNL     1       5.953   2.920  -0.048  1.00  0.00     0.275 C 
HETATM   10  N   UNL     1       5.273   2.282  -1.190  1.00  0.00     0.097 N 
HETATM   11  C   UNL     1       4.461   3.261  -1.934  1.00  0.00     0.275 C 
HETATM   12  C   UNL     1       3.519   4.114  -1.082  1.00  0.00     0.055 C 
BRANCH  10  13
HETATM   13  C   UNL     1       4.462   1.100  -0.790  1.00  0.00     0.374 C 
BRANCH  13  14
HETATM   14  C   UNL     1       5.333  -0.079  -0.328  1.00  0.00     0.245 C 
HETATM   15  N   UNL     1       6.551  -0.179  -0.966  1.00  0.00    -0.364 N 
HETATM   16  C   UNL     1       7.518  -1.174  -0.585  1.00  0.00     0.149 C 
HETATM   17  H   UNL     1       6.838   0.643  -1.491  1.00  0.00     0.161 HD
HETATM   18  O   UNL     1       4.938  -0.897   0.499  1.00  0.00    -0.272 OA
ENDBRANCH  13  14
ENDBRANCH  10  13
ENDBRANCH   1   7
BRANCH   4  19
HETATM   19  C   UNL     1       6.414   9.096   0.653  1.00  0.00     0.070 A 
HETATM   20  C   UNL     1       6.390   9.390   2.036  1.00  0.00     0.138 A 
HETATM   21  N   UNL     1       6.855  10.613   2.308  1.00  0.00    -0.310 N 
HETATM   22  N   UNL     1       7.161  11.107   1.102  1.00  0.00    -0.310 N 
ATOM     23  HN  UNL     1       6.953  11.063   3.218  1.00  0.00     0.186 HD
HETATM   24  C   UNL     1       6.934  10.229   0.077  1.00  0.00     0.138 A 
HETATM   25  H   UNL     1       7.518  12.054   1.054  1.00  0.00     0.186 HD
ENDBRANCH   4  19
TORSDOF 4
