REMARK  2 active torsions:
REMARK  status: ('A' for Active; 'I' for Inactive)
REMARK    1  A    between atoms: C_2  and  C_3 
REMARK    2  A    between atoms: C_6  and  C_10 
ROOT
HETATM    1  C   UNL     1       2.728  -1.942  -1.133  1.00  0.00     0.096 A 
HETATM    2  N   UNL     1       3.774  -2.631  -1.539  1.00  0.00    -0.331 N 
ATOM      3  HN  UNL     1       4.115  -2.757  -2.492  1.00  0.00     0.168 HD
HETATM    4  C   UNL     1       4.301  -3.143  -0.371  1.00  0.00     0.128 A 
HETATM    5  N   UNL     1       3.626  -2.781   0.733  1.00  0.00    -0.285 N 
ATOM      6  HN  UNL     1       3.819  -3.012   1.708  1.00  0.00     0.188 HD
HETATM    7  N   UNL     1       2.635  -2.040   0.224  1.00  0.00    -0.287 N 
HETATM    8  H   UNL     1       1.961  -1.615   0.851  1.00  0.00     0.188 HD
ENDROOT
BRANCH   4   9
HETATM    9  C   UNL     1       5.606  -3.907  -0.362  1.00  0.00     0.218 C 
HETATM   10  C   UNL     1       5.590  -5.200  -1.220  1.00  0.00     0.309 C 
HETATM   11  N   UNL     1       5.071  -6.413  -0.550  1.00  0.00     0.088 N 
HETATM   12  C   UNL     1       5.695  -6.543   0.774  1.00  0.00     0.295 C 
HETATM   13  H   UNL     1       5.298  -7.231  -1.115  1.00  0.00     0.316 HD
HETATM   14  C   UNL     1       5.532  -5.262   1.597  1.00  0.00     0.198 C 
HETATM   15  O   UNL     1       6.171  -4.154   0.952  1.00  0.00    -0.375 OA
ENDBRANCH   4   9
BRANCH   1  16
HETATM   16  C   UNL     1       1.783  -1.144  -1.955  1.00  0.00     0.073 C 
HETATM   17  C   UNL     1       2.279   0.280  -2.148  1.00  0.00     0.013 C 
ENDBRANCH   1  16
TORSDOF 2
