REMARK  8 active torsions:
REMARK  status: ('A' for Active; 'I' for Inactive)
REMARK    1  A    between atoms: O_2  and  C_3 
REMARK    2  A    between atoms: C_8  and  C_9 
REMARK    3  A    between atoms: C_9  and  O_10 
REMARK    4  A    between atoms: O_10  and  C_11 
REMARK    5  A    between atoms: C_11  and  C_12 
REMARK    6  A    between atoms: C_12  and  O_13 
REMARK    7  A    between atoms: C_12  and  C_14 
REMARK    8  A    between atoms: C_14  and  N_15 
ROOT
HETATM    1  C   UNL     1       4.337  -3.524  -0.350  1.00  0.00     0.160 C 
ENDROOT
BRANCH   1   2
HETATM    2  C   UNL     1       5.351  -2.444   0.089  1.00  0.00     0.201 C 
BRANCH   2   3
HETATM    3  O   UNL     1       4.608  -1.262   0.379  1.00  0.00    -0.384 OA
BRANCH   3   4
HETATM    4  C   UNL     1       5.399  -0.127   0.742  1.00  0.00     0.209 C 
BRANCH   4   5
HETATM    5  C   UNL     1       4.480   1.063   0.941  1.00  0.00    -0.001 A 
HETATM    6  C   UNL     1       4.783   2.095   1.850  1.00  0.00     0.076 A 
HETATM    7  C   UNL     1       3.896   3.174   1.991  1.00  0.00     0.037 A 
HETATM    8  C   UNL     1       2.723   3.239   1.236  1.00  0.00     0.003 A 
HETATM    9  C   UNL     1       2.432   2.241   0.320  1.00  0.00     0.001 A 
HETATM   10  C   UNL     1       3.308   1.167   0.166  1.00  0.00     0.012 A 
BRANCH   6  11
HETATM   11  O   UNL     1       5.955   1.966   2.553  1.00  0.00    -0.355 OA
HETATM   12  C   UNL     1       6.249   2.979   3.511  1.00  0.00     0.210 C 
ENDBRANCH   6  11
ENDBRANCH   4   5
ENDBRANCH   3   4
ENDBRANCH   2   3
ENDBRANCH   1   2
BRANCH   1  13
HETATM   13  O   UNL     1       3.702  -3.123  -1.577  1.00  0.00    -0.392 OA
HETATM   14  H   UNL     1       4.367  -2.739  -2.171  1.00  0.00     0.210 HD
ENDBRANCH   1  13
BRANCH   1  15
HETATM   15  C   UNL     1       4.987  -4.897  -0.547  1.00  0.00     0.164 C 
BRANCH  15  16
HETATM   16  N   UNL     1       4.028  -5.904  -0.980  1.00  0.00    -0.339 N 
HETATM   17  C   UNL     1       3.727  -6.167  -2.291  1.00  0.00     0.184 A 
HETATM   18  N   UNL     1       2.801  -7.089  -2.406  1.00  0.00    -0.350 N 
HETATM   19  C   UNL     1       2.473  -7.430  -1.121  1.00  0.00     0.063 A 
ATOM     20  HN  UNL     1       2.409  -7.470  -3.267  1.00  0.00     0.166 HD
HETATM   21  C   UNL     1       1.510  -8.343  -0.674  1.00  0.00     0.077 A 
HETATM   22  C   UNL     1       3.249  -6.724  -0.197  1.00  0.00     0.065 A 
HETATM   23  C   UNL     1       1.372  -8.532   0.698  1.00  0.00     0.157 A 
HETATM   24  F   UNL     1       0.453  -9.402   1.145  1.00  0.00    -0.203 F 
HETATM   25  C   UNL     1       2.162  -7.835   1.605  1.00  0.00     0.157 A 
HETATM   26  F   UNL     1       2.009  -8.050   2.920  1.00  0.00    -0.203 F 
HETATM   27  C   UNL     1       3.121  -6.914   1.185  1.00  0.00     0.077 A 
ENDBRANCH  15  16
ENDBRANCH   1  15
TORSDOF 8
