REMARK  4 active torsions:
REMARK  status: ('A' for Active; 'I' for Inactive)
REMARK       I    between atoms: N_2  and  C_4 
REMARK    1  A    between atoms: C_4  and  C_6 
REMARK    2  A    between atoms: C_6  and  C_7 
REMARK    3  A    between atoms: C_7  and  N_8 
REMARK       I    between atoms: N_8  and  C_9 
REMARK       I    between atoms: C_9  and  N_11 
REMARK    4  A    between atoms: N_11  and  C_12 
ROOT
HETATM    1  N   UNL     1       6.710   2.440  -1.569  1.00  0.00    -0.342 N 
HETATM    2  C   UNL     1       7.175   3.456  -2.377  1.00  0.00     0.323 C 
HETATM    3  O   UNL     1       6.426   4.277  -2.888  1.00  0.00    -0.247 OA
HETATM    4  N   UNL     1       8.534   3.401  -2.530  1.00  0.00    -0.273 N 
HETATM    5  H   UNL     1       7.303   1.629  -1.509  1.00  0.00     0.164 HD
HETATM    6  H   UNL     1       9.067   2.619  -2.189  1.00  0.00     0.174 HD
ENDROOT
BRANCH   1   7
HETATM    7  C   UNL     1       5.278   2.216  -1.476  1.00  0.00     0.143 C 
BRANCH   7   8
HETATM    8  C   UNL     1       4.835   1.186  -0.413  1.00  0.00     0.057 C 
HETATM    9  C   UNL     1       5.540  -0.182  -0.688  1.00  0.00     0.021 C 
HETATM   10  C   UNL     1       6.637  -0.367   0.360  1.00  0.00     0.001 C 
HETATM   11  C   UNL     1       6.659   0.897   1.195  1.00  0.00     0.001 C 
HETATM   12  C   UNL     1       5.272   1.495   1.030  1.00  0.00     0.021 C 
BRANCH   8  13
HETATM   13  C   UNL     1       3.298   1.034  -0.553  1.00  0.00     0.229 C 
HETATM   14  N   UNL     1       2.434   2.061  -0.180  1.00  0.00    -0.360 N 
HETATM   15  C   UNL     1       1.012   1.809  -0.380  1.00  0.00     0.152 C 
HETATM   16  C   UNL     1       2.762   3.244   0.601  1.00  0.00     0.152 C 
HETATM   17  O   UNL     1       2.834   0.012  -1.075  1.00  0.00    -0.272 OA
ENDBRANCH   8  13
ENDBRANCH   7   8
ENDBRANCH   1   7
BRANCH   4  18
HETATM   18  C   UNL     1       9.206   4.260  -3.350  1.00  0.00     0.252 A 
HETATM   19  N   UNL     1      10.448   4.113  -3.741  1.00  0.00    -0.309 N 
HETATM   20  C   UNL     1      10.601   5.178  -4.594  1.00  0.00     0.101 A 
ATOM     21  HN  UNL     1      11.124   3.395  -3.480  1.00  0.00     0.170 HD
HETATM   22  C   UNL     1      11.816   5.382  -5.400  1.00  0.00     0.091 C 
HETATM   23  N   UNL     1       9.545   5.994  -4.682  1.00  0.00    -0.246 N 
HETATM   24  O   UNL     1       8.602   5.373  -3.854  1.00  0.00    -0.199 OA
ATOM     25  HN  UNL     1       9.450   6.856  -5.219  1.00  0.00     0.196 HD
ENDBRANCH   4  18
TORSDOF 4
