REMARK  8 active torsions:
REMARK  status: ('A' for Active; 'I' for Inactive)
REMARK    1  A    between atoms: C_4  and  N_5 
REMARK       I    between atoms: N_5  and  C_6 
REMARK       I    between atoms: C_6  and  N_8 
REMARK    2  A    between atoms: N_8  and  C_9 
REMARK    3  A    between atoms: C_9  and  C_10 
REMARK    4  A    between atoms: C_14  and  O_15 
REMARK    5  A    between atoms: N_18  and  C_19 
REMARK    6  A    between atoms: C_19  and  C_20 
REMARK    7  A    between atoms: C_20  and  C_21 
REMARK    8  A    between atoms: C_21  and  N_22 
ROOT
HETATM    1  N   UNL     1       5.814   1.670  -0.105  1.00  0.00    -0.294 N 
HETATM    2  C   UNL     1       5.682   3.026  -0.076  1.00  0.00     0.321 C 
HETATM    3  O   UNL     1       4.556   3.519  -0.014  1.00  0.00    -0.247 OA
HETATM    4  N   UNL     1       6.820   3.769  -0.126  1.00  0.00    -0.342 N 
HETATM    5  H   UNL     1       4.935   1.172  -0.058  1.00  0.00     0.172 HD
HETATM    6  H   UNL     1       7.705   3.249  -0.132  1.00  0.00     0.164 HD
ENDROOT
BRANCH   1   7
HETATM    7  C   UNL     1       6.964   0.929  -0.227  1.00  0.00     0.125 A 
HETATM    8  C   UNL     1       7.030  -0.482  -0.256  1.00  0.00     0.076 A 
HETATM    9  C   UNL     1       8.371  -0.796  -0.382  1.00  0.00     0.028 A 
HETATM   10  C   UNL     1       9.029  -2.124  -0.449  1.00  0.00     0.070 C 
HETATM   11  N   UNL     1       9.015   0.414  -0.433  1.00  0.00    -0.294 N 
HETATM   12  N   UNL     1       8.182   1.457  -0.333  1.00  0.00    -0.283 N 
ATOM     13  HN  UNL     1       8.428   2.447  -0.337  1.00  0.00     0.189 HD
BRANCH  11  14
HETATM   14  C   UNL     1      10.429   0.715  -0.540  1.00  0.00     0.161 C 
BRANCH  14  15
HETATM   15  C   UNL     1      10.919   0.855  -1.969  1.00  0.00     0.125 C 
BRANCH  15  16
HETATM   16  C   UNL     1      10.251   1.948  -2.787  1.00  0.00    -0.076 C 
BRANCH  16  17
HETATM   17  N   UNL     1       9.697   2.854  -3.467  1.00  0.00    -0.370 N 
ATOM     18  HN2 UNL     1      10.154   2.088  -2.972  1.00  0.00     0.165 HD
ATOM     19  HN1 UNL     1       9.249   3.588  -4.016  1.00  0.00     0.165 HD
ENDBRANCH  16  17
ENDBRANCH  15  16
ENDBRANCH  14  15
ENDBRANCH  11  14
ENDBRANCH   1   7
BRANCH   4  20
HETATM   20  C   UNL     1       6.876   5.218  -0.135  1.00  0.00     0.131 C 
BRANCH  20  21
HETATM   21  C   UNL     1       7.479   5.818  -1.412  1.00  0.00     0.032 C 
HETATM   22  C   UNL     1       6.789   5.366  -2.707  1.00  0.00     0.009 C 
HETATM   23  C   UNL     1       7.850   5.405  -3.803  1.00  0.00     0.003 C 
HETATM   24  C   UNL     1       9.159   5.819  -3.128  1.00  0.00     0.032 C 
HETATM   25  C   UNL     1       8.966   5.544  -1.635  1.00  0.00     0.123 C 
BRANCH  25  26
HETATM   26  O   UNL     1       9.304   4.221  -1.270  1.00  0.00    -0.395 OA
HETATM   27  H   UNL     1       8.845   3.645  -1.921  1.00  0.00     0.210 HD
ENDBRANCH  25  26
ENDBRANCH  20  21
ENDBRANCH   4  20
TORSDOF 8
