REMARK  9 active torsions:
REMARK  status: ('A' for Active; 'I' for Inactive)
REMARK    1  A    between atoms: N_1  and  C_9 
REMARK    2  A    between atoms: C_6  and  N_8 
REMARK    3  A    between atoms: N_14  and  C_25 
REMARK    4  A    between atoms: C_15  and  C_23 
REMARK    5  A    between atoms: C_15  and  C_24 
REMARK    6  A    between atoms: C_23  and  O_26 
REMARK    7  A    between atoms: C_24  and  O_27 
REMARK    8  A    between atoms: C_25  and  C_30 
REMARK    9  A    between atoms: O_28  and  C_30 
ROOT
HETATM    1  N   UNL     1       1.621   1.185  -0.005  1.00  0.00    -0.322 N 
HETATM    2  C   UNL     1       0.391  -0.613  -0.020  1.00  0.00     0.122 A 
HETATM    3  C   UNL     1       0.308   0.775  -0.009  1.00  0.00     0.140 A 
HETATM    4  N   UNL     1       1.709  -1.034  -0.001  1.00  0.00    -0.346 N 
ATOM      5  HN  UNL     1       2.056  -1.993   0.008  1.00  0.00     0.167 HD
HETATM    6  C   UNL     1      -0.817  -1.360  -0.030  1.00  0.00     0.135 A 
HETATM    7  C   UNL     1       2.412   0.071   0.003  1.00  0.00     0.185 A 
HETATM    8  N   UNL     1      -0.815   1.514   0.005  1.00  0.00    -0.336 N 
ATOM      9  HN  UNL     1      -0.840   2.534   0.008  1.00  0.00     0.168 HD
HETATM   10  N   UNL     1      -1.973  -0.636   0.004  1.00  0.00    -0.337 N 
ATOM     11  HN  UNL     1      -2.877  -1.108   0.022  1.00  0.00     0.168 HD
HETATM   12  C   UNL     1      -1.906   0.718   0.014  1.00  0.00     0.183 A 
ENDROOT
BRANCH   6  13
HETATM   13  N   UNL     1      -0.844  -2.758  -0.008  1.00  0.00    -0.362 N 
HETATM   14  C   UNL     1      -2.159  -3.412   0.066  1.00  0.00     0.160 C 
HETATM   15  C   UNL     1      -1.970  -4.928   0.399  1.00  0.00     0.237 C 
HETATM   16  N   UNL     1      -1.063  -5.666  -0.535  1.00  0.00     0.098 N 
HETATM   17  C   UNL     1      -3.312  -5.622   0.629  1.00  0.00     0.044 C 
HETATM   18  C   UNL     1       0.230  -4.936  -0.517  1.00  0.00     0.292 C 
HETATM   19  C   UNL     1       0.128  -3.440  -0.883  1.00  0.00     0.154 C 
BRANCH  16  20
HETATM   20  C   UNL     1      -1.596  -5.821  -1.906  1.00  0.00     0.299 C 
BRANCH  20  21
HETATM   21  C   UNL     1      -0.668  -6.648  -2.824  1.00  0.00     0.197 C 
BRANCH  21  22
HETATM   22  O   UNL     1      -1.232  -6.785  -4.132  1.00  0.00    -0.394 OA
HETATM   23  C   UNL     1      -0.324  -7.464  -4.998  1.00  0.00     0.201 C 
ENDBRANCH  21  22
ENDBRANCH  20  21
ENDBRANCH  16  20
ENDBRANCH   6  13
BRANCH   1  24
HETATM   24  C   UNL     1       2.235   2.477   0.013  1.00  0.00     0.094 C 
HETATM   25  C   UNL     1       1.803   3.406   1.182  1.00  0.00     0.039 C 
HETATM   26  C   UNL     1       2.101   4.601   0.207  1.00  0.00     0.006 C 
HETATM   27  C   UNL     1       1.665   3.578  -0.914  1.00  0.00     0.039 C 
BRANCH  26  28
HETATM   28  C   UNL     1       1.183   5.807   0.405  1.00  0.00     0.175 C 
BRANCH  28  29
HETATM   29  O   UNL     1       1.237   6.656  -0.736  1.00  0.00    -0.400 OA
HETATM   30  H   UNL     1       2.179   6.877  -0.886  1.00  0.00     0.209 HD
ENDBRANCH  28  29
ENDBRANCH  26  28
BRANCH  26  31
HETATM   31  C   UNL     1       3.581   5.031   0.222  1.00  0.00     0.175 C 
BRANCH  31  32
HETATM   32  O   UNL     1       3.886   5.749  -0.970  1.00  0.00    -0.400 OA
HETATM   33  H   UNL     1       4.016   5.094  -1.680  1.00  0.00     0.209 HD
ENDBRANCH  31  32
ENDBRANCH  26  31
ENDBRANCH   1  24
TORSDOF 9
