REMARK  5 active torsions:
REMARK  status: ('A' for Active; 'I' for Inactive)
REMARK    1  A    between atoms: S_2  and  C_3 
REMARK    2  A    between atoms: C_3  and  C_5 
REMARK       I    between atoms: C_5  and  N_7 
REMARK    3  A    between atoms: N_7  and  C_8 
REMARK    4  A    between atoms: C_8  and  C_9 
REMARK    5  A    between atoms: C_12  and  N_16 
ROOT
HETATM    1  C   UNL     1       7.450  -3.152   3.310  1.00  0.00    -0.025 A 
HETATM    2  C   UNL     1       8.348  -2.794   4.309  1.00  0.00     0.014 A 
HETATM    3  C   UNL     1       8.803  -3.759   5.210  1.00  0.00     0.049 A 
HETATM    4  C   UNL     1       8.370  -5.083   5.122  1.00  0.00     0.103 A 
HETATM    5  N   UNL     1       7.469  -5.422   4.173  1.00  0.00    -0.352 N 
ATOM      6  HN  UNL     1       7.121  -6.379   4.110  1.00  0.00     0.166 HD
HETATM    7  C   UNL     1       7.032  -4.473   3.304  1.00  0.00     0.098 A 
ENDROOT
BRANCH   1   8
HETATM    8  C   UNL     1       6.975  -2.161   2.296  1.00  0.00     0.162 C 
BRANCH   8   9
HETATM    9  N   UNL     1       5.810  -1.422   2.721  1.00  0.00    -0.356 N 
HETATM   10  C   UNL     1       5.301  -0.433   1.899  1.00  0.00     0.231 C 
HETATM   11  O   UNL     1       5.769  -0.206   0.785  1.00  0.00    -0.272 OA
HETATM   12  H   UNL     1       5.563  -1.396   3.705  1.00  0.00     0.162 HD
BRANCH  10  13
HETATM   13  C   UNL     1       4.090   0.319   2.459  1.00  0.00     0.134 C 
HETATM   14  C   UNL     1       3.510   1.300   1.444  1.00  0.00     0.031 C 
BRANCH  13  15
HETATM   15  S   UNL     1       4.508   1.140   4.052  1.00  0.00    -0.160 SA
HETATM   16  C   UNL     1       5.780   2.312   3.508  1.00  0.00     0.090 C 
ENDBRANCH  13  15
ENDBRANCH  10  13
ENDBRANCH   8   9
ENDBRANCH   1   8
BRANCH   4  17
HETATM   17  N   UNL     1       8.801  -6.045   6.012  1.00  0.00    -0.363 N 
HETATM   18  C   UNL     1      10.125  -6.014   6.647  1.00  0.00     0.150 C 
HETATM   19  C   UNL     1      10.990  -7.191   6.163  1.00  0.00     0.187 C 
HETATM   20  O   UNL     1      10.326  -8.449   6.348  1.00  0.00    -0.388 OA
HETATM   21  C   UNL     1       9.101  -8.470   5.594  1.00  0.00     0.187 C 
HETATM   22  C   UNL     1       8.141  -7.360   6.049  1.00  0.00     0.150 C 
ENDBRANCH   4  17
TORSDOF 5
