REMARK  2 active torsions:
REMARK  status: ('A' for Active; 'I' for Inactive)
REMARK    1  A    between atoms: C_4  and  N_5 
REMARK       I    between atoms: N_5  and  C_6 
REMARK       I    between atoms: C_6  and  N_8 
REMARK    2  A    between atoms: N_8  and  C_9 
ROOT
HETATM    1  N   UNL     1       6.274   1.434   0.345  1.00  0.00    -0.293 N 
HETATM    2  C   UNL     1       6.086   2.742   0.670  1.00  0.00     0.322 C 
HETATM    3  O   UNL     1       5.296   3.039   1.557  1.00  0.00    -0.247 OA
HETATM    4  N   UNL     1       6.729   3.668  -0.102  1.00  0.00    -0.333 N 
HETATM    5  H   UNL     1       5.641   0.802   0.814  1.00  0.00     0.172 HD
HETATM    6  H   UNL     1       7.508   3.313  -0.655  1.00  0.00     0.165 HD
ENDROOT
BRANCH   1   7
HETATM    7  C   UNL     1       7.140   0.907  -0.585  1.00  0.00     0.132 A 
HETATM    8  C   UNL     1       7.086  -0.419  -1.074  1.00  0.00     0.084 A 
HETATM    9  C   UNL     1       8.104  -0.488  -1.992  1.00  0.00     0.076 A 
HETATM   10  C   UNL     1       8.596  -1.521  -2.918  1.00  0.00     0.079 C 
HETATM   11  O   UNL     1       8.755   0.701  -2.027  1.00  0.00    -0.241 OA
HETATM   12  N   UNL     1       8.145   1.583  -1.160  1.00  0.00    -0.245 N 
ATOM     13  HN  UNL     1       8.406   2.554  -0.990  1.00  0.00     0.196 HD
ENDBRANCH   1   7
BRANCH   4  14
HETATM   14  C   UNL     1       6.466   5.109  -0.063  1.00  0.00     0.044 C 
HETATM   15  C   UNL     1       4.965   5.364  -0.329  1.00  0.00     0.039 C 
HETATM   16  C   UNL     1       7.317   5.831  -1.134  1.00  0.00     0.046 C 
HETATM   17  C   UNL     1       7.290   7.329  -0.829  1.00  0.00     0.143 C 
HETATM   18  S   UNL     1       7.063   7.465   0.938  1.00  0.00     0.146 S 
HETATM   19  O   UNL     1       8.286   7.964   1.525  1.00  0.00    -0.228 OA
HETATM   20  O   UNL     1       5.779   8.085   1.193  1.00  0.00    -0.228 OA
HETATM   21  C   UNL     1       6.937   5.721   1.262  1.00  0.00     0.170 C 
ENDBRANCH   4  14
TORSDOF 2
