REMARK  7 active torsions:
REMARK  status: ('A' for Active; 'I' for Inactive)
REMARK    1  A    between atoms: C_2  and  N_3 
REMARK    2  A    between atoms: C_6  and  N_9 
REMARK       I    between atoms: N_9  and  C_10 
REMARK    3  A    between atoms: C_10  and  C_12 
REMARK    4  A    between atoms: C_12  and  N_13 
REMARK    5  A    between atoms: N_13  and  C_14 
REMARK    6  A    between atoms: C_14  and  C_15 
REMARK    7  A    between atoms: C_15  and  N_16 
ROOT
HETATM    1  N   UNL     1       6.031   2.909   1.181  1.00  0.00    -0.355 N 
HETATM    2  C   UNL     1       6.219   4.275   1.171  1.00  0.00     0.246 C 
HETATM    3  O   UNL     1       5.932   4.999   0.221  1.00  0.00    -0.272 OA
HETATM    4  H   UNL     1       6.101   2.423   2.066  1.00  0.00     0.162 HD
ENDROOT
BRANCH   2   5
HETATM    5  C   UNL     1       6.775   4.839   2.484  1.00  0.00     0.371 C 
BRANCH   5   6
HETATM    6  N   UNL     1       5.825   5.772   3.122  1.00  0.00     0.093 N 
HETATM    7  H   UNL     1       5.644   6.519   2.442  1.00  0.00     0.316 HD
BRANCH   6   8
HETATM    8  C   UNL     1       4.524   5.160   3.460  1.00  0.00     0.291 C 
BRANCH   8   9
HETATM    9  C   UNL     1       4.616   4.027   4.489  1.00  0.00     0.178 C 
BRANCH   9  10
HETATM   10  N   UNL     1       3.338   3.437   4.844  1.00  0.00    -0.302 N 
HETATM   11  C   UNL     1       3.050   2.808   6.023  1.00  0.00     0.111 A 
HETATM   12  C   UNL     1       1.774   2.315   5.889  1.00  0.00     0.037 A 
HETATM   13  C   UNL     1       1.386   2.677   4.588  1.00  0.00     0.108 A 
HETATM   14  N   UNL     1       2.344   3.345   3.940  1.00  0.00    -0.310 N 
ATOM     15  HN  UNL     1       2.327   3.702   2.985  1.00  0.00     0.186 HD
ENDBRANCH   9  10
ENDBRANCH   8   9
ENDBRANCH   6   8
ENDBRANCH   5   6
ENDBRANCH   2   5
BRANCH   1  16
HETATM   16  C   UNL     1       5.367   2.209   0.083  1.00  0.00     0.087 C 
HETATM   17  C   UNL     1       3.846   2.175   0.276  1.00  0.00     0.055 C 
HETATM   18  C   UNL     1       3.430   1.160   1.343  1.00  0.00     0.274 C 
HETATM   19  N   UNL     1       3.947  -0.198   1.106  1.00  0.00     0.088 N 
HETATM   20  C   UNL     1       5.413  -0.166   0.996  1.00  0.00     0.274 C 
HETATM   21  C   UNL     1       5.936   0.796  -0.074  1.00  0.00     0.055 C 
BRANCH  19  22
HETATM   22  C   UNL     1       3.335  -0.891  -0.039  1.00  0.00     0.268 C 
HETATM   23  C   UNL     1       1.835  -1.125   0.109  1.00  0.00     0.037 C 
ENDBRANCH  19  22
ENDBRANCH   1  16
TORSDOF 7
