REMARK  6 active torsions:
REMARK  status: ('A' for Active; 'I' for Inactive)
REMARK    1  A    between atoms: C_7  and  O_8 
REMARK    2  A    between atoms: O_8  and  C_9 
REMARK    3  A    between atoms: C_9  and  C_10 
REMARK    4  A    between atoms: C_10  and  N_11 
REMARK    5  A    between atoms: C_12  and  C_21 
REMARK    6  A    between atoms: C_15  and  C_16 
REMARK       I    between atoms: C_16  and  N_18 
ROOT
HETATM    1  N   UNL     1      -0.865  -3.899  -0.176  1.00  0.00    -0.307 N 
HETATM    2  C   UNL     1      -1.531  -5.036   0.340  1.00  0.00     0.121 C 
HETATM    3  C   UNL     1      -2.876  -5.001   0.454  1.00  0.00     0.036 C 
HETATM    4  C   UNL     1      -3.631  -3.824   0.127  1.00  0.00     0.025 C 
HETATM    5  C   UNL     1      -3.048  -2.777  -0.477  1.00  0.00     0.100 C 
HETATM    6  C   UNL     1      -1.596  -2.870  -0.798  1.00  0.00     0.264 C 
HETATM    7  O   UNL     1      -1.092  -2.028  -1.541  1.00  0.00    -0.267 OA
ENDROOT
BRANCH   1   8
HETATM    8  C   UNL     1       0.614  -3.838  -0.232  1.00  0.00     0.159 C 
BRANCH   8   9
HETATM    9  C   UNL     1       1.231  -2.425  -0.182  1.00  0.00     0.196 C 
BRANCH   9  10
HETATM   10  O   UNL     1       2.639  -2.454  -0.001  1.00  0.00    -0.349 OA
BRANCH  10  11
HETATM   11  C   UNL     1       3.236  -2.569   1.217  1.00  0.00     0.074 A 
HETATM   12  C   UNL     1       2.789  -2.172   2.487  1.00  0.00    -0.029 A 
HETATM   13  C   UNL     1       1.490  -1.479   2.781  1.00  0.00     0.051 C 
HETATM   14  C   UNL     1       3.650  -2.374   3.590  1.00  0.00     0.009 A 
HETATM   15  C   UNL     1       4.924  -2.921   3.439  1.00  0.00     0.001 A 
HETATM   16  C   UNL     1       5.369  -3.282   2.179  1.00  0.00     0.003 A 
HETATM   17  C   UNL     1       4.529  -3.105   1.083  1.00  0.00     0.037 A 
ENDBRANCH  10  11
ENDBRANCH   9  10
ENDBRANCH   8   9
ENDBRANCH   1   8
BRANCH   2  18
HETATM   18  C   UNL     1      -0.836  -6.342   0.715  1.00  0.00     0.432 C 
HETATM   19  F   UNL     1       0.465  -6.426   0.348  1.00  0.00    -0.165 F 
HETATM   20  F   UNL     1      -0.886  -6.553   2.056  1.00  0.00    -0.165 F 
HETATM   21  F   UNL     1      -1.455  -7.409   0.136  1.00  0.00    -0.165 F 
ENDBRANCH   2  18
BRANCH   5  22
HETATM   22  C   UNL     1      -3.876  -1.572  -0.758  1.00  0.00     0.254 C 
HETATM   23  O   UNL     1      -5.070  -1.503  -0.469  1.00  0.00    -0.268 OA
HETATM   24  N   UNL     1      -3.241  -0.522  -1.340  1.00  0.00    -0.366 N 
HETATM   25  H   UNL     1      -2.277  -0.590  -1.656  1.00  0.00     0.159 HD
HETATM   26  H   UNL     1      -3.772   0.309  -1.568  1.00  0.00     0.159 HD
ENDBRANCH   5  22
TORSDOF 6
