REMARK  5 active torsions:
REMARK  status: ('A' for Active; 'I' for Inactive)
REMARK    1  A    between atoms: C_2  and  C_3 
REMARK    2  A    between atoms: C_2  and  S_20 
REMARK       I    between atoms: C_3  and  N_5 
REMARK    3  A    between atoms: N_5  and  C_6 
REMARK    4  A    between atoms: C_6  and  C_7 
REMARK    5  A    between atoms: C_13  and  N_14 
ROOT
HETATM    1  C   UNL     1       2.638   3.788  -3.080  1.00  0.00     0.004 A 
HETATM    2  C   UNL     1       2.128   2.973  -4.109  1.00  0.00     0.014 A 
HETATM    3  C   UNL     1       1.624   3.539  -5.267  1.00  0.00     0.018 A 
HETATM    4  C   UNL     1       1.662   4.912  -5.368  1.00  0.00     0.089 A 
HETATM    5  N   UNL     1       2.163   5.725  -4.410  1.00  0.00    -0.352 N 
ATOM      6  HN  UNL     1       2.171   6.736  -4.546  1.00  0.00     0.166 HD
HETATM    7  C   UNL     1       2.655   5.184  -3.267  1.00  0.00     0.111 A 
ENDROOT
BRANCH   1   8
HETATM    8  C   UNL     1       3.038   3.105  -1.798  1.00  0.00     0.165 C 
BRANCH   8   9
HETATM    9  N   UNL     1       4.374   2.540  -1.865  1.00  0.00    -0.356 N 
HETATM   10  C   UNL     1       4.850   1.782  -0.815  1.00  0.00     0.236 C 
HETATM   11  O   UNL     1       4.122   1.357   0.079  1.00  0.00    -0.272 OA
HETATM   12  H   UNL     1       5.038   3.021  -2.460  1.00  0.00     0.162 HD
BRANCH  10  13
HETATM   13  C   UNL     1       6.336   1.517  -0.833  1.00  0.00     0.195 C 
HETATM   14  C   UNL     1       6.651   0.081  -0.440  1.00  0.00     0.036 C 
BRANCH  13  15
HETATM   15  S   UNL     1       7.112   2.699   0.261  1.00  0.00     0.153 S 
HETATM   16  O   UNL     1       8.540   2.440   0.236  1.00  0.00    -0.227 OA
HETATM   17  O   UNL     1       6.631   4.023  -0.103  1.00  0.00    -0.227 OA
HETATM   18  C   UNL     1       6.536   2.334   1.907  1.00  0.00     0.162 C 
ENDBRANCH  13  15
ENDBRANCH  10  13
ENDBRANCH   8   9
ENDBRANCH   1   8
BRANCH   7  19
HETATM   19  N   UNL     1       3.078   6.066  -2.294  1.00  0.00    -0.363 N 
HETATM   20  C   UNL     1       2.452   7.396  -2.212  1.00  0.00     0.150 C 
HETATM   21  C   UNL     1       3.460   8.523  -2.462  1.00  0.00     0.187 C 
HETATM   22  O   UNL     1       4.609   8.399  -1.609  1.00  0.00    -0.388 OA
HETATM   23  C   UNL     1       5.283   7.168  -1.890  1.00  0.00     0.187 C 
HETATM   24  C   UNL     1       4.388   5.947  -1.639  1.00  0.00     0.150 C 
ENDBRANCH   7  19
TORSDOF 5
