REMARK  3 active torsions:
REMARK  status: ('A' for Active; 'I' for Inactive)
REMARK    1  A    between atoms: C_2  and  N_3 
REMARK    2  A    between atoms: C_5  and  N_6 
REMARK       I    between atoms: N_6  and  C_7 
REMARK       I    between atoms: C_7  and  N_9 
REMARK    3  A    between atoms: N_9  and  C_10 
ROOT
HETATM    1  N   UNL     1       4.363  -2.449  -4.179  1.00  0.00    -0.306 N 
HETATM    2  C   UNL     1       5.145  -1.438  -4.696  1.00  0.00     0.321 C 
HETATM    3  O   UNL     1       5.774  -0.613  -4.042  1.00  0.00    -0.247 OA
HETATM    4  N   UNL     1       5.134  -1.411  -6.076  1.00  0.00    -0.338 N 
HETATM    5  H   UNL     1       4.043  -3.181  -4.791  1.00  0.00     0.171 HD
HETATM    6  H   UNL     1       4.822  -2.234  -6.567  1.00  0.00     0.164 HD
ENDROOT
BRANCH   1   7
HETATM    7  C   UNL     1       4.074  -2.581  -2.829  1.00  0.00     0.070 A 
HETATM    8  C   UNL     1       4.321  -1.675  -1.826  1.00  0.00     0.141 A 
HETATM    9  N   UNL     1       3.846  -2.225  -0.675  1.00  0.00    -0.302 N 
HETATM   10  N   UNL     1       3.297  -3.442  -0.851  1.00  0.00    -0.308 N 
HETATM   11  C   UNL     1       3.434  -3.654  -2.166  1.00  0.00     0.138 A 
ATOM     12  HN  UNL     1       2.878  -4.055  -0.151  1.00  0.00     0.186 HD
BRANCH   9  13
HETATM   13  C   UNL     1       3.878  -1.608   0.636  1.00  0.00     0.143 C 
HETATM   14  C   UNL     1       2.599  -0.846   0.936  1.00  0.00     0.028 C 
ENDBRANCH   9  13
ENDBRANCH   1   7
BRANCH   4  15
HETATM   15  C   UNL     1       5.979  -0.457  -6.792  1.00  0.00     0.086 C 
HETATM   16  C   UNL     1       5.364  -0.046  -8.134  1.00  0.00     0.025 C 
HETATM   17  C   UNL     1       5.432  -1.149  -9.187  1.00  0.00     0.002 C 
HETATM   18  C   UNL     1       6.848  -1.696  -9.349  1.00  0.00     0.000 C 
HETATM   19  C   UNL     1       7.449  -2.132  -8.016  1.00  0.00     0.002 C 
HETATM   20  C   UNL     1       7.398  -1.010  -6.980  1.00  0.00     0.025 C 
ENDBRANCH   4  15
TORSDOF 3
