REMARK  4 active torsions:
REMARK  status: ('A' for Active; 'I' for Inactive)
REMARK    1  A    between atoms: O_2  and  C_3 
REMARK    2  A    between atoms: C_3  and  C_4 
REMARK    3  A    between atoms: C_4  and  N_5 
REMARK    4  A    between atoms: C_6  and  N_18 
ROOT
HETATM    1  N   UNL     1       4.703   2.033   1.390  1.00  0.00    -0.172 N 
HETATM    2  C   UNL     1       4.352   3.295   0.911  1.00  0.00     0.684 A 
HETATM    3  N   UNL     1       4.790   4.214   1.772  1.00  0.00    -0.174 N 
ATOM      4  HN  UNL     1       4.647   5.222   1.710  1.00  0.00     0.186 HD
HETATM    5  C   UNL     1       5.468   3.547   2.755  1.00  0.00     0.160 A 
HETATM    6  N   UNL     1       6.112   4.068   3.866  1.00  0.00    -0.287 N 
HETATM    7  C   UNL     1       6.123   5.471   4.200  1.00  0.00     0.163 C 
HETATM    8  C   UNL     1       6.765   3.196   4.742  1.00  0.00     0.330 A 
HETATM    9  O   UNL     1       7.363   3.566   5.751  1.00  0.00    -0.246 OA
HETATM   10  N   UNL     1       6.740   1.856   4.437  1.00  0.00    -0.273 N 
HETATM   11  C   UNL     1       6.131   1.271   3.358  1.00  0.00     0.280 A 
HETATM   12  O   UNL     1       6.192   0.064   3.168  1.00  0.00    -0.265 OA
HETATM   13  C   UNL     1       5.460   2.208   2.521  1.00  0.00     0.164 A 
HETATM   14  H   UNL     1       7.227   1.241   5.070  1.00  0.00     0.173 HD
ENDROOT
BRANCH   2  15
HETATM   15  N   UNL     1       3.679   3.557  -0.260  1.00  0.00    -0.219 N 
HETATM   16  C   UNL     1       3.187   2.592  -1.223  1.00  0.00     0.141 C 
HETATM   17  C   UNL     1       1.721   2.380  -0.899  1.00  0.00     0.020 C 
HETATM   18  C   UNL     1       0.966   3.629  -1.316  1.00  0.00     0.003 C 
HETATM   19  C   UNL     1       1.706   4.964  -1.033  1.00  0.00     0.039 A 
HETATM   20  C   UNL     1       0.866   5.845  -0.108  1.00  0.00     0.004 A 
HETATM   21  C   UNL     1       3.188   4.915  -0.532  1.00  0.00     0.120 A 
ENDBRANCH   2  15
BRANCH   1  22
HETATM   22  C   UNL     1       4.351   0.718   0.904  1.00  0.00     0.174 C 
BRANCH  22  23
HETATM   23  C   UNL     1       5.379   0.160  -0.073  1.00  0.00     0.187 C 
BRANCH  23  24
HETATM   24  O   UNL     1       4.803  -0.977  -0.717  1.00  0.00    -0.394 OA
HETATM   25  C   UNL     1       5.729  -1.613  -1.586  1.00  0.00     0.201 C 
ENDBRANCH  23  24
ENDBRANCH  22  23
ENDBRANCH   1  22
TORSDOF 4
