REMARK  4 active torsions:
REMARK  status: ('A' for Active; 'I' for Inactive)
REMARK    1  A    between atoms: C_2  and  N_3 
REMARK    2  A    between atoms: C_2  and  C_14 
REMARK       I    between atoms: N_3  and  C_4 
REMARK       I    between atoms: C_4  and  N_6 
REMARK    3  A    between atoms: N_6  and  C_7 
REMARK       I    between atoms: C_14  and  N_16 
REMARK    4  A    between atoms: N_16  and  C_17 
ROOT
HETATM    1  N   UNL     1       2.944  -0.383  -1.517  1.00  0.00    -0.330 N 
HETATM    2  C   UNL     1       4.216  -0.887  -1.653  1.00  0.00     0.321 C 
HETATM    3  O   UNL     1       4.985  -0.932  -0.696  1.00  0.00    -0.247 OA
HETATM    4  N   UNL     1       4.467  -1.326  -2.931  1.00  0.00    -0.308 N 
HETATM    5  H   UNL     1       2.537   0.066  -2.324  1.00  0.00     0.165 HD
HETATM    6  H   UNL     1       3.674  -1.357  -3.554  1.00  0.00     0.170 HD
ENDROOT
BRANCH   1   7
HETATM    7  C   UNL     1       2.454   0.053  -0.203  1.00  0.00     0.174 C 
HETATM    8  C   UNL     1       0.933  -0.044  -0.159  1.00  0.00     0.042 C 
BRANCH   7   9
HETATM    9  C   UNL     1       2.918   1.485   0.168  1.00  0.00     0.240 C 
HETATM   10  O   UNL     1       2.140   2.350   0.568  1.00  0.00    -0.271 OA
HETATM   11  N   UNL     1       4.284   1.687   0.117  1.00  0.00    -0.355 N 
HETATM   12  H   UNL     1       4.868   0.853   0.022  1.00  0.00     0.162 HD
BRANCH  11  13
HETATM   13  C   UNL     1       4.883   2.916   0.599  1.00  0.00     0.084 C 
HETATM   14  C   UNL     1       4.490   4.143  -0.236  1.00  0.00     0.025 C 
HETATM   15  C   UNL     1       5.741   5.011  -0.353  1.00  0.00     0.002 C 
HETATM   16  C   UNL     1       6.779   4.371   0.555  1.00  0.00     0.002 C 
HETATM   17  C   UNL     1       6.409   2.896   0.552  1.00  0.00     0.025 C 
ENDBRANCH  11  13
ENDBRANCH   7   9
ENDBRANCH   1   7
BRANCH   4  18
HETATM   18  C   UNL     1       5.660  -1.940  -3.382  1.00  0.00     0.051 A 
HETATM   19  C   UNL     1       6.839  -1.995  -2.640  1.00  0.00     0.032 A 
HETATM   20  C   UNL     1       7.954  -2.661  -3.147  1.00  0.00     0.019 A 
HETATM   21  C   UNL     1       7.862  -3.249  -4.396  1.00  0.00     0.088 A 
HETATM   22  N   UNL     1       6.750  -3.200  -5.162  1.00  0.00    -0.373 N 
HETATM   23  C   UNL     1       5.683  -2.547  -4.637  1.00  0.00     0.117 A 
ATOM     24  HN  UNL     1       6.715  -3.631  -6.086  1.00  0.00     0.164 HD
ENDBRANCH   4  18
TORSDOF 4
