REMARK  7 active torsions:
REMARK  status: ('A' for Active; 'I' for Inactive)
REMARK    1  A    between atoms: N_11  and  C_12 
REMARK    2  A    between atoms: C_12  and  C_13 
REMARK    3  A    between atoms: C_13  and  O_14 
REMARK    4  A    between atoms: C_13  and  C_15 
REMARK    5  A    between atoms: C_15  and  O_16 
REMARK    6  A    between atoms: O_16  and  C_17 
REMARK    7  A    between atoms: C_17  and  C_18 
ROOT
HETATM    1  C   UNL     1       5.756   0.427  -4.605  1.00  0.00     0.164 C 
HETATM    2  N   UNL     1       5.773   0.247  -3.166  1.00  0.00    -0.269 N 
HETATM    3  C   UNL     1       5.921  -1.060  -2.658  1.00  0.00     0.332 A 
HETATM    4  O   UNL     1       6.040  -2.033  -3.409  1.00  0.00    -0.246 OA
HETATM    5  N   UNL     1       5.925  -1.205  -1.268  1.00  0.00    -0.287 N 
HETATM    6  C   UNL     1       6.085  -2.515  -0.662  1.00  0.00     0.163 C 
HETATM    7  C   UNL     1       5.788  -0.092  -0.473  1.00  0.00     0.145 A 
HETATM    8  N   UNL     1       5.762  -0.075   0.888  1.00  0.00    -0.336 N 
ATOM      9  HN  UNL     1       5.836  -0.868   1.525  1.00  0.00     0.168 HD
HETATM   10  C   UNL     1       5.620   1.198   1.197  1.00  0.00     0.185 A 
HETATM   11  N   UNL     1       5.558   1.988   0.078  1.00  0.00    -0.333 N 
HETATM   12  C   UNL     1       5.659   1.157  -1.002  1.00  0.00     0.149 A 
HETATM   13  C   UNL     1       5.663   1.412  -2.399  1.00  0.00     0.282 A 
HETATM   14  O   UNL     1       5.585   2.545  -2.872  1.00  0.00    -0.265 OA
ENDROOT
BRANCH  11  15
HETATM   15  C   UNL     1       5.364   3.425   0.067  1.00  0.00     0.164 C 
BRANCH  15  16
HETATM   16  C   UNL     1       6.684   4.209   0.029  1.00  0.00     0.160 C 
BRANCH  16  17
HETATM   17  O   UNL     1       7.451   3.918  -1.144  1.00  0.00    -0.392 OA
HETATM   18  H   UNL     1       6.855   3.917  -1.920  1.00  0.00     0.210 HD
ENDBRANCH  16  17
BRANCH  16  19
HETATM   19  C   UNL     1       6.426   5.719   0.076  1.00  0.00     0.201 C 
BRANCH  19  20
HETATM   20  O   UNL     1       5.693   6.047   1.250  1.00  0.00    -0.384 OA
BRANCH  20  21
HETATM   21  C   UNL     1       5.431   7.447   1.341  1.00  0.00     0.206 C 
BRANCH  21  22
HETATM   22  C   UNL     1       4.673   7.701   2.616  1.00  0.00    -0.035 A 
HETATM   23  C   UNL     1       5.254   7.390   3.855  1.00  0.00     0.009 A 
HETATM   24  C   UNL     1       4.554   7.608   5.042  1.00  0.00     0.001 A 
HETATM   25  C   UNL     1       3.268   8.141   5.004  1.00  0.00     0.000 A 
HETATM   26  C   UNL     1       2.682   8.462   3.780  1.00  0.00     0.001 A 
HETATM   27  C   UNL     1       3.381   8.244   2.591  1.00  0.00     0.009 A 
ENDBRANCH  21  22
ENDBRANCH  20  21
ENDBRANCH  19  20
ENDBRANCH  16  19
ENDBRANCH  15  16
ENDBRANCH  11  15
TORSDOF 7
