REMARK  5 active torsions:
REMARK  status: ('A' for Active; 'I' for Inactive)
REMARK    1  A    between atoms: C_2  and  C_3 
REMARK    2  A    between atoms: C_3  and  C_4 
REMARK    3  A    between atoms: C_3  and  C_6 
REMARK       I    between atoms: C_6  and  N_8 
REMARK    4  A    between atoms: C_11  and  N_14 
REMARK       I    between atoms: N_14  and  C_15 
REMARK       I    between atoms: C_15  and  N_17 
REMARK    5  A    between atoms: N_17  and  C_18 
ROOT
HETATM    1  N   UNL     1       7.647  -5.266  -1.739  1.00  0.00    -0.338 N 
HETATM    2  C   UNL     1       8.255  -6.439  -1.349  1.00  0.00     0.321 C 
HETATM    3  O   UNL     1       7.638  -7.427  -0.974  1.00  0.00    -0.247 OA
HETATM    4  N   UNL     1       9.620  -6.357  -1.527  1.00  0.00    -0.308 N 
HETATM    5  H   UNL     1       8.152  -4.429  -1.482  1.00  0.00     0.164 HD
HETATM    6  H   UNL     1       9.879  -5.733  -2.278  1.00  0.00     0.170 HD
ENDROOT
BRANCH   1   7
HETATM    7  C   UNL     1       6.194  -5.191  -1.845  1.00  0.00     0.089 C 
HETATM    8  C   UNL     1       5.778  -4.042  -2.766  1.00  0.00     0.045 C 
HETATM    9  C   UNL     1       5.932  -2.681  -2.095  1.00  0.00     0.127 C 
HETATM   10  N   UNL     1       5.254  -2.660  -0.803  1.00  0.00    -0.352 N 
HETATM   11  C   UNL     1       4.580  -1.498  -0.437  1.00  0.00     0.224 C 
HETATM   12  C   UNL     1       5.666  -3.705   0.134  1.00  0.00     0.127 C 
HETATM   13  O   UNL     1       4.658  -0.473  -1.118  1.00  0.00    -0.273 OA
HETATM   14  C   UNL     1       5.506  -5.088  -0.480  1.00  0.00     0.045 C 
BRANCH  11  15
HETATM   15  C   UNL     1       3.669  -1.560   0.799  1.00  0.00     0.077 C 
BRANCH  15  16
HETATM   16  C   UNL     1       3.147  -0.148   1.149  1.00  0.00     0.009 C 
HETATM   17  C   UNL     1       2.272  -0.112   2.392  1.00  0.00     0.006 C 
ENDBRANCH  15  16
BRANCH  15  18
HETATM   18  C   UNL     1       2.542  -2.597   0.602  1.00  0.00     0.009 C 
HETATM   19  C   UNL     1       1.642  -2.343  -0.601  1.00  0.00     0.006 C 
ENDBRANCH  15  18
ENDBRANCH  11  15
ENDBRANCH   1   7
BRANCH   4  20
HETATM   20  C   UNL     1      10.490  -7.382  -1.241  1.00  0.00     0.052 A 
HETATM   21  C   UNL     1      10.374  -8.188  -0.173  1.00  0.00     0.121 A 
HETATM   22  N   UNL     1      11.263  -9.212   0.030  1.00  0.00    -0.331 N 
HETATM   23  C   UNL     1      12.291  -9.526  -0.829  1.00  0.00     0.251 A 
HETATM   24  H   UNL     1      11.168  -9.811   0.842  1.00  0.00     0.168 HD
HETATM   25  O   UNL     1      13.049 -10.460  -0.612  1.00  0.00    -0.268 OA
HETATM   26  C   UNL     1      12.415  -8.655  -2.040  1.00  0.00     0.008 A 
HETATM   27  C   UNL     1      13.458  -8.988  -3.055  1.00  0.00     0.054 C 
HETATM   28  C   UNL     1      11.568  -7.618  -2.182  1.00  0.00     0.043 A 
ENDBRANCH   4  20
TORSDOF 5
