REMARK  5 active torsions:
REMARK  status: ('A' for Active; 'I' for Inactive)
REMARK    1  A    between atoms: C_2  and  N_3 
REMARK    2  A    between atoms: C_2  and  C_12 
REMARK    3  A    between atoms: N_3  and  C_4 
REMARK    4  A    between atoms: C_4  and  C_5 
REMARK    5  A    between atoms: C_5  and  N_6 
REMARK       I    between atoms: C_12  and  N_14 
ROOT
HETATM    1  C   UNL     1       2.021  -1.276  -0.507  1.00  0.00     0.053 C 
HETATM    2  C   UNL     1       2.473   0.082   0.029  1.00  0.00     0.307 C 
ENDROOT
BRANCH   2   3
HETATM    3  N   UNL     1       3.364   0.035   1.214  1.00  0.00     0.098 N 
HETATM    4  H   UNL     1       3.608   1.000   1.446  1.00  0.00     0.317 HD
BRANCH   3   5
HETATM    5  C   UNL     1       2.762  -0.603   2.389  1.00  0.00     0.292 C 
BRANCH   5   6
HETATM    6  C   UNL     1       3.786  -0.651   3.529  1.00  0.00     0.178 C 
BRANCH   6   7
HETATM    7  N   UNL     1       3.251  -1.277   4.720  1.00  0.00    -0.302 N 
HETATM    8  C   UNL     1       3.696  -2.420   5.320  1.00  0.00     0.111 A 
HETATM    9  C   UNL     1       2.899  -2.604   6.425  1.00  0.00     0.037 A 
HETATM   10  C   UNL     1       2.008  -1.515   6.407  1.00  0.00     0.108 A 
HETATM   11  N   UNL     1       2.223  -0.700   5.372  1.00  0.00    -0.310 N 
ATOM     12  HN  UNL     1       1.726   0.158   5.131  1.00  0.00     0.186 HD
ENDBRANCH   6   7
ENDBRANCH   5   6
ENDBRANCH   3   5
ENDBRANCH   2   3
BRANCH   2  13
HETATM   13  C   UNL     1       3.139   0.917  -1.100  1.00  0.00     0.252 C 
HETATM   14  O   UNL     1       2.440   1.722  -1.727  1.00  0.00    -0.271 OA
HETATM   15  N   UNL     1       4.490   0.753  -1.398  1.00  0.00    -0.350 N 
HETATM   16  C   UNL     1       5.162   1.771  -2.209  1.00  0.00     0.130 C 
HETATM   17  C   UNL     1       5.364  -0.293  -0.867  1.00  0.00     0.130 C 
HETATM   18  C   UNL     1       5.956   1.138  -3.358  1.00  0.00    -0.000 C 
HETATM   19  C   UNL     1       6.731   2.202  -4.132  1.00  0.00     0.011 C 
HETATM   20  C   UNL     1       6.905   0.052  -2.828  1.00  0.00     0.011 C 
HETATM   21  C   UNL     1       6.134  -0.980  -2.000  1.00  0.00    -0.000 C 
HETATM   22  C   UNL     1       7.065  -2.052  -1.441  1.00  0.00     0.011 C 
ENDBRANCH   2  13
TORSDOF 5
