REMARK  6 active torsions:
REMARK  status: ('A' for Active; 'I' for Inactive)
REMARK    1  A    between atoms: N_1  and  C_11 
REMARK    2  A    between atoms: N_2  and  C_10 
REMARK    3  A    between atoms: C_7  and  N_12 
REMARK    4  A    between atoms: C_8  and  C_15 
REMARK    5  A    between atoms: C_9  and  N_13 
REMARK    6  A    between atoms: C_11  and  C_14 
REMARK       I    between atoms: N_12  and  C_14 
ROOT
HETATM    1  N   UNL     1      -3.635   1.020  -0.098  1.00  0.00    -0.324 N 
HETATM    2  C   UNL     1      -3.268   1.906   0.908  1.00  0.00     0.240 C 
HETATM    3  O   UNL     1      -2.103   2.110   1.253  1.00  0.00    -0.271 OA
HETATM    4  H   UNL     1      -4.607   0.729  -0.174  1.00  0.00     0.169 HD
ENDROOT
BRANCH   1   5
HETATM    5  C   UNL     1      -2.691   0.232  -0.802  1.00  0.00     0.062 A 
HETATM    6  C   UNL     1      -2.925  -1.151  -1.061  1.00  0.00     0.057 A 
HETATM    7  C   UNL     1      -1.960  -1.802  -1.851  1.00  0.00     0.032 A 
HETATM    8  C   UNL     1      -0.823  -1.127  -2.348  1.00  0.00     0.018 A 
HETATM    9  C   UNL     1      -0.623   0.234  -2.088  1.00  0.00     0.050 A 
HETATM   10  C   UNL     1      -1.561   0.891  -1.300  1.00  0.00     0.048 A 
BRANCH   6  11
HETATM   11  N   UNL     1      -4.016  -1.818  -0.519  1.00  0.00    -0.375 N 
HETATM   12  C   UNL     1      -4.623  -3.062  -1.039  1.00  0.00     0.149 C 
HETATM   13  C   UNL     1      -6.147  -2.998  -0.745  1.00  0.00     0.187 C 
HETATM   14  O   UNL     1      -6.442  -2.754   0.648  1.00  0.00    -0.388 OA
HETATM   15  C   UNL     1      -5.768  -1.573   1.121  1.00  0.00     0.187 C 
HETATM   16  C   UNL     1      -4.252  -1.718   0.935  1.00  0.00     0.149 C 
ENDBRANCH   6  11
BRANCH   9  17
HETATM   17  C   UNL     1       0.552   1.010  -2.633  1.00  0.00     0.417 C 
HETATM   18  F   UNL     1       0.456   2.356  -2.429  1.00  0.00    -0.166 F 
HETATM   19  F   UNL     1       1.739   0.636  -2.083  1.00  0.00    -0.166 F 
HETATM   20  F   UNL     1       0.697   0.859  -3.980  1.00  0.00    -0.166 F 
ENDBRANCH   9  17
ENDBRANCH   1   5
BRANCH   2  21
HETATM   21  C   UNL     1      -4.420   2.492   1.726  1.00  0.00     0.240 C 
BRANCH  21  22
HETATM   22  N   UNL     1      -5.252   3.521   1.113  1.00  0.00    -0.255 N 
HETATM   23  C   UNL     1      -6.195   3.082   0.198  1.00  0.00     0.334 A 
HETATM   24  N   UNL     1      -7.245   3.937  -0.078  1.00  0.00    -0.279 N 
HETATM   25  O   UNL     1      -6.133   1.942  -0.272  1.00  0.00    -0.246 OA
HETATM   26  C   UNL     1      -7.318   5.204   0.461  1.00  0.00     0.146 A 
HETATM   27  C   UNL     1      -6.371   5.663   1.278  1.00  0.00     0.200 A 
HETATM   28  C   UNL     1      -5.237   4.799   1.663  1.00  0.00     0.292 A 
HETATM   29  F   UNL     1      -6.449   6.880   1.855  1.00  0.00    -0.199 F 
HETATM   30  O   UNL     1      -4.404   5.191   2.473  1.00  0.00    -0.264 OA
BRANCH  24  31
HETATM   31  C   UNL     1      -8.305   3.363  -0.896  1.00  0.00     0.232 C 
HETATM   32  O   UNL     1      -9.356   4.295  -1.184  1.00  0.00    -0.366 OA
HETATM   33  C   UNL     1     -10.513   3.511  -1.515  1.00  0.00     0.170 C 
HETATM   34  C   UNL     1     -10.330   2.131  -0.909  1.00  0.00     0.031 C 
HETATM   35  C   UNL     1      -9.013   2.216  -0.189  1.00  0.00     0.056 C 
ENDBRANCH  24  31
ENDBRANCH  21  22
ENDBRANCH   2  21
TORSDOF 6
