REMARK  4 active torsions:
REMARK  status: ('A' for Active; 'I' for Inactive)
REMARK    1  A    between atoms: O_2  and  C_3 
REMARK    2  A    between atoms: C_7  and  N_8 
REMARK       I    between atoms: N_8  and  C_9 
REMARK       I    between atoms: C_9  and  N_11 
REMARK    3  A    between atoms: N_11  and  C_12 
REMARK    4  A    between atoms: C_16  and  C_20 
ROOT
HETATM    1  N   UNL     1       1.632   2.431  -0.906  1.00  0.00    -0.336 N 
HETATM    2  C   UNL     1       1.641   1.615  -2.020  1.00  0.00     0.321 C 
HETATM    3  O   UNL     1       2.567   0.872  -2.308  1.00  0.00    -0.247 OA
HETATM    4  N   UNL     1       0.540   1.838  -2.821  1.00  0.00    -0.306 N 
HETATM    5  H   UNL     1       0.735   2.466  -0.438  1.00  0.00     0.164 HD
HETATM    6  H   UNL     1       0.224   2.798  -2.811  1.00  0.00     0.171 HD
ENDROOT
BRANCH   4   7
HETATM    7  C   UNL     1       0.351   1.099  -4.010  1.00  0.00     0.067 A 
HETATM    8  C   UNL     1       0.571  -0.258  -4.108  1.00  0.00     0.120 A 
HETATM    9  N   UNL     1       0.383  -0.973  -5.240  1.00  0.00    -0.353 N 
HETATM   10  C   UNL     1      -0.025  -0.301  -6.335  1.00  0.00     0.085 A 
ATOM     11  HN  UNL     1       0.543  -1.980  -5.264  1.00  0.00     0.166 HD
HETATM   12  N   UNL     1      -0.263   1.029  -6.340  1.00  0.00    -0.353 N 
HETATM   13  C   UNL     1      -0.079   1.693  -5.177  1.00  0.00     0.120 A 
ATOM     14  HN  UNL     1      -0.568   1.511  -7.185  1.00  0.00     0.166 HD
BRANCH  10  15
HETATM   15  C   UNL     1      -0.231  -1.080  -7.612  1.00  0.00     0.053 A 
HETATM   16  C   UNL     1      -1.551  -1.006  -8.346  1.00  0.00     0.013 A 
HETATM   17  C   UNL     1      -1.174  -2.264  -7.623  1.00  0.00     0.013 A 
ENDBRANCH  10  15
ENDBRANCH   4   7
BRANCH   1  18
HETATM   18  C   UNL     1       2.815   2.448  -0.061  1.00  0.00     0.115 C 
HETATM   19  C   UNL     1       2.867   1.369   1.048  1.00  0.00     0.143 C 
HETATM   20  C   UNL     1       2.269   2.029   2.295  1.00  0.00     0.034 C 
HETATM   21  C   UNL     1       2.213   3.527   2.028  1.00  0.00     0.005 C 
HETATM   22  C   UNL     1       2.949   3.757   0.718  1.00  0.00     0.028 C 
BRANCH  19  23
HETATM   23  O   UNL     1       2.151   0.184   0.714  1.00  0.00    -0.389 OA
HETATM   24  C   UNL     1       2.487  -0.912   1.556  1.00  0.00     0.202 C 
ENDBRANCH  19  23
ENDBRANCH   1  18
TORSDOF 4
