REMARK  4 active torsions:
REMARK  status: ('A' for Active; 'I' for Inactive)
REMARK    1  A    between atoms: C_2  and  N_3 
REMARK       I    between atoms: N_3  and  C_4 
REMARK    2  A    between atoms: C_4  and  C_6 
REMARK    3  A    between atoms: C_6  and  C_7 
REMARK    4  A    between atoms: C_10  and  N_13 
ROOT
HETATM    1  C   UNL     1       6.467   2.552   1.493  1.00  0.00     0.026 A 
HETATM    2  C   UNL     1       7.164   1.694   2.321  1.00  0.00     0.078 A 
HETATM    3  S   UNL     1       8.849   1.926   2.117  1.00  0.00    -0.064 SA
HETATM    4  C   UNL     1       8.538   3.098   0.903  1.00  0.00     0.155 A 
HETATM    5  N   UNL     1       7.269   3.364   0.705  1.00  0.00    -0.339 N 
ATOM      6  HN  UNL     1       6.919   4.072   0.059  1.00  0.00     0.168 HD
ENDROOT
BRANCH   1   7
HETATM    7  C   UNL     1       4.984   2.658   1.343  1.00  0.00     0.160 C 
BRANCH   7   8
HETATM    8  C   UNL     1       4.397   3.944   1.899  1.00  0.00     0.223 C 
HETATM    9  N   UNL     1       5.159   5.077   1.734  1.00  0.00    -0.361 N 
HETATM   10  H   UNL     1       6.021   4.998   1.191  1.00  0.00     0.162 HD
HETATM   11  O   UNL     1       3.276   3.962   2.408  1.00  0.00    -0.273 OA
BRANCH   9  12
HETATM   12  C   UNL     1       4.716   6.388   2.155  1.00  0.00     0.118 C 
HETATM   13  C   UNL     1       3.999   7.120   1.037  1.00  0.00     0.026 C 
ENDBRANCH   9  12
ENDBRANCH   7   8
ENDBRANCH   1   7
BRANCH   4  14
HETATM   14  N   UNL     1       9.612   3.629   0.224  1.00  0.00    -0.278 N 
HETATM   15  C   UNL     1      11.019   3.341   0.377  1.00  0.00     0.155 C 
HETATM   16  C   UNL     1      11.660   3.950  -0.860  1.00  0.00     0.145 C 
HETATM   17  N   UNL     1      10.658   4.841  -1.363  1.00  0.00    -0.341 N 
HETATM   18  C   UNL     1       9.411   4.563  -0.801  1.00  0.00     0.324 C 
HETATM   19  H   UNL     1      10.690   5.334  -2.247  1.00  0.00     0.164 HD
HETATM   20  O   UNL     1       8.389   5.081  -1.215  1.00  0.00    -0.247 OA
ENDBRANCH   4  14
TORSDOF 4
