REMARK  4 active torsions:
REMARK  status: ('A' for Active; 'I' for Inactive)
REMARK    1  A    between atoms: C_2  and  N_3 
REMARK    2  A    between atoms: C_2  and  C_19 
REMARK       I    between atoms: N_3  and  C_4 
REMARK    3  A    between atoms: C_4  and  C_6 
REMARK    4  A    between atoms: C_6  and  N_7 
ROOT
HETATM    1  N   UNL     1       1.973   0.094   4.673  1.00  0.00    -0.247 N 
HETATM    2  N   UNL     1       1.444   1.112   5.415  1.00  0.00    -0.299 N 
ATOM      3  HN  UNL     1       1.893   2.028   5.436  1.00  0.00     0.187 HD
HETATM    4  C   UNL     1       0.362   0.892   6.091  1.00  0.00     0.029 A 
HETATM    5  C   UNL     1      -0.207   2.074   6.843  1.00  0.00     0.070 C 
HETATM    6  C   UNL     1      -0.334  -0.423   6.159  1.00  0.00    -0.012 A 
HETATM    7  C   UNL     1      -1.550  -0.606   7.022  1.00  0.00     0.052 C 
HETATM    8  C   UNL     1       0.203  -1.404   5.410  1.00  0.00     0.121 A 
HETATM    9  C   UNL     1      -0.354  -2.714   5.386  1.00  0.00     0.105 C 
HETATM   10  N   UNL     1      -0.855  -3.762   5.413  1.00  0.00    -0.191 NA
HETATM   11  C   UNL     1       1.406  -1.163   4.571  1.00  0.00     0.283 A 
HETATM   12  O   UNL     1       1.857  -2.040   3.834  1.00  0.00    -0.265 OA
ENDROOT
BRANCH   1  13
HETATM   13  C   UNL     1       3.169   0.407   3.902  1.00  0.00     0.255 C 
BRANCH  13  14
HETATM   14  C   UNL     1       2.797   0.853   2.491  1.00  0.00     0.237 C 
HETATM   15  N   UNL     1       2.717  -0.178   1.571  1.00  0.00    -0.355 N 
HETATM   16  H   UNL     1       2.637  -1.128   1.933  1.00  0.00     0.162 HD
HETATM   17  O   UNL     1       2.572   2.026   2.202  1.00  0.00    -0.272 OA
BRANCH  15  18
HETATM   18  C   UNL     1       2.400   0.065   0.166  1.00  0.00     0.084 C 
HETATM   19  C   UNL     1       0.886   0.045  -0.041  1.00  0.00     0.032 C 
BRANCH  18  20
HETATM   20  C   UNL     1       3.116  -0.966  -0.727  1.00  0.00     0.012 C 
HETATM   21  C   UNL     1       4.656  -0.958  -0.559  1.00  0.00     0.011 C 
HETATM   22  C   UNL     1       5.166  -0.780  -1.998  1.00  0.00    -0.014 C 
HETATM   23  C   UNL     1       4.860   0.658  -2.457  1.00  0.00     0.005 C 
HETATM   24  C   UNL     1       4.148  -1.597  -2.790  1.00  0.00     0.010 C 
HETATM   25  C   UNL     1       3.349   0.622  -2.724  1.00  0.00     0.005 C 
HETATM   26  C   UNL     1       2.954  -0.791  -2.264  1.00  0.00    -0.008 C 
ENDBRANCH  18  20
ENDBRANCH  15  18
ENDBRANCH  13  14
ENDBRANCH   1  13
TORSDOF 4
