REMARK  6 active torsions:
REMARK  status: ('A' for Active; 'I' for Inactive)
REMARK    1  A    between atoms: N_1  and  C1*_3 
REMARK    2  A    between atoms: C2*_9  and  O2*_18 
REMARK    3  A    between atoms: C_14  and  N_19 
REMARK    4  A    between atoms: C3*_16  and  O3*_21 
REMARK    5  A    between atoms: C4*_17  and  C5*_22 
REMARK    6  A    between atoms: C5*_22  and  O5*_23 
ROOT
HETATM    1  N   UNL     1       3.332  -2.260  -1.107  1.00  0.00    -0.297 N 
HETATM    2  C   UNL     1       4.074  -3.074  -1.923  1.00  0.00     0.145 A 
HETATM    3  C   UNL     1       5.078  -2.266  -2.427  1.00  0.00     0.122 A 
HETATM    4  N   UNL     1       3.884  -4.375  -2.178  1.00  0.00    -0.302 N 
ATOM      5  HN  UNL     1       3.108  -4.925  -1.810  1.00  0.00     0.171 HD
HETATM    6  N   UNL     1       4.968  -0.986  -1.934  1.00  0.00    -0.346 N 
ATOM      7  HN  UNL     1       5.568  -0.187  -2.139  1.00  0.00     0.167 HD
HETATM    8  C   UNL     1       3.918  -1.018  -1.139  1.00  0.00     0.188 A 
HETATM    9  N   UNL     1       5.878  -4.202  -3.540  1.00  0.00    -0.303 N 
ATOM     10  HN  UNL     1       6.552  -4.685  -4.134  1.00  0.00     0.171 HD
HETATM   11  C   UNL     1       5.997  -2.879  -3.293  1.00  0.00     0.133 A 
HETATM   12  C   UNL     1       4.850  -4.868  -2.984  1.00  0.00     0.269 A 
HETATM   13  F   UNL     1       4.783  -6.186  -3.234  1.00  0.00    -0.165 F 
ENDROOT
BRANCH   1  14
HETATM   14  C1* UNL     1       2.196  -2.602  -0.279  1.00  0.00     0.262 C 
HETATM   15  C2* UNL     1       1.268  -3.746  -0.690  1.00  0.00     0.198 C 
HETATM   16  C3* UNL     1       1.816  -4.965   0.048  1.00  0.00     0.182 C 
HETATM   17  C4* UNL     1       2.655  -4.380   1.189  1.00  0.00     0.179 C 
HETATM   18  O4* UNL     1       2.699  -2.940   1.029  1.00  0.00    -0.353 OA
BRANCH  15  19
HETATM   19  O2* UNL     1       1.097  -3.929  -2.089  1.00  0.00    -0.388 OA
HETATM   20  H2* UNL     1       1.885  -4.398  -2.433  1.00  0.00     0.210 HD
ENDBRANCH  15  19
BRANCH  16  21
HETATM   21  O3* UNL     1       0.752  -5.781   0.550  1.00  0.00    -0.390 OA
HETATM   22  H3* UNL     1       0.148  -5.231   1.080  1.00  0.00     0.210 HD
ENDBRANCH  16  21
BRANCH  17  23
HETATM   23  C5* UNL     1       4.093  -4.918   1.193  1.00  0.00     0.198 C 
BRANCH  23  24
HETATM   24  O5* UNL     1       4.819  -4.380   2.297  1.00  0.00    -0.398 OA
HETATM   25  H5* UNL     1       4.858  -3.415   2.160  1.00  0.00     0.209 HD
ENDBRANCH  23  24
ENDBRANCH  17  23
ENDBRANCH   1  14
BRANCH  11  26
HETATM   26  N   UNL     1       7.043  -2.197  -3.893  1.00  0.00    -0.383 N 
HETATM   27  H   UNL     1       7.797  -2.804  -4.186  1.00  0.00     0.157 HD
HETATM   28  H   UNL     1       7.285  -1.322  -3.438  1.00  0.00     0.157 HD
ENDBRANCH  11  26
TORSDOF 6
