REMARK  6 active torsions:
REMARK  status: ('A' for Active; 'I' for Inactive)
REMARK    1  A    between atoms: C_2  and  C_3 
REMARK    2  A    between atoms: C_3  and  N_4 
REMARK    3  A    between atoms: C_3  and  C_15 
REMARK    4  A    between atoms: C_3  and  C_18 
REMARK       I    between atoms: N_4  and  C_5 
REMARK    5  A    between atoms: C_5  and  C_7 
REMARK    6  A    between atoms: C_7  and  C_8 
REMARK       I    between atoms: C_18  and  N_20 
ROOT
HETATM    1  N   UNL     1       2.475   0.751   2.351  1.00  0.00    -0.342 N 
HETATM    2  C   UNL     1       1.198   1.256   2.479  1.00  0.00     0.223 C 
HETATM    3  O   UNL     1       0.245   0.887   1.797  1.00  0.00    -0.273 OA
HETATM    4  H   UNL     1       3.225   1.222   2.845  1.00  0.00     0.163 HD
ENDROOT
BRANCH   1   5
HETATM    5  C   UNL     1       2.880  -0.354   1.427  1.00  0.00     0.116 C 
BRANCH   5   6
HETATM    6  C   UNL     1       2.404  -0.110  -0.039  1.00  0.00     0.037 C 
HETATM    7  C   UNL     1       2.920   1.173  -0.693  1.00  0.00     0.008 C 
ENDBRANCH   5   6
BRANCH   5   8
HETATM    8  C   UNL     1       2.404  -1.748   2.008  1.00  0.00     0.015 C 
HETATM    9  C   UNL     1       0.882  -1.937   2.095  1.00  0.00     0.012 C 
HETATM   10  C   UNL     1       2.982  -2.959   1.252  1.00  0.00     0.012 C 
ENDBRANCH   5   8
BRANCH   5  11
HETATM   11  C   UNL     1       4.447  -0.383   1.401  1.00  0.00     0.244 C 
HETATM   12  O   UNL     1       5.124  -0.791   0.458  1.00  0.00    -0.271 OA
HETATM   13  N   UNL     1       5.099  -0.063   2.567  1.00  0.00    -0.368 N 
HETATM   14  H   UNL     1       4.653  -0.201   3.462  1.00  0.00     0.159 HD
HETATM   15  H   UNL     1       6.099  -0.245   2.532  1.00  0.00     0.159 HD
ENDBRANCH   5  11
ENDBRANCH   1   5
BRANCH   2  16
HETATM   16  C   UNL     1       1.027   2.359   3.511  1.00  0.00     0.142 C 
BRANCH  16  17
HETATM   17  C   UNL     1       0.865   3.743   2.935  1.00  0.00    -0.034 A 
HETATM   18  C   UNL     1       0.570   4.825   3.771  1.00  0.00     0.010 A 
HETATM   19  C   UNL     1       0.425   6.102   3.231  1.00  0.00     0.018 A 
HETATM   20  C   UNL     1       0.587   6.263   1.867  1.00  0.00     0.087 A 
HETATM   21  N   UNL     1       0.870   5.249   1.029  1.00  0.00    -0.375 N 
HETATM   22  C   UNL     1       0.984   4.019   1.577  1.00  0.00     0.095 A 
ATOM     23  HN  UNL     1       0.993   5.401   0.028  1.00  0.00     0.164 HD
ENDBRANCH  16  17
ENDBRANCH   2  16
TORSDOF 6
