REMARK  2 active torsions:
REMARK  status: ('A' for Active; 'I' for Inactive)
REMARK    1  A    between atoms: C_5  and  N_8 
REMARK       I    between atoms: N_8  and  C_9 
REMARK       I    between atoms: C_9  and  N_11 
REMARK    2  A    between atoms: N_11  and  C_12 
ROOT
HETATM    1  N   UNL     1       4.522  -0.795  -3.013  1.00  0.00    -0.338 N 
HETATM    2  C   UNL     1       5.128   0.127  -3.840  1.00  0.00     0.322 C 
HETATM    3  O   UNL     1       4.516   1.033  -4.389  1.00  0.00    -0.247 OA
HETATM    4  N   UNL     1       6.464  -0.155  -4.009  1.00  0.00    -0.295 N 
HETATM    5  H   UNL     1       5.098  -1.110  -2.244  1.00  0.00     0.164 HD
HETATM    6  H   UNL     1       6.680  -1.142  -4.064  1.00  0.00     0.172 HD
ENDROOT
BRANCH   1   7
HETATM    7  C   UNL     1       3.073  -0.775  -2.826  1.00  0.00     0.089 C 
HETATM    8  C   UNL     1       2.620   0.304  -1.838  1.00  0.00     0.055 C 
HETATM    9  C   UNL     1       2.883  -0.098  -0.387  1.00  0.00     0.274 C 
HETATM   10  N   UNL     1       2.350  -1.416  -0.020  1.00  0.00     0.084 N 
HETATM   11  C   UNL     1       0.895  -1.405   0.123  1.00  0.00     0.309 C 
HETATM   12  C   UNL     1       2.813  -2.459  -0.941  1.00  0.00     0.274 C 
HETATM   13  C   UNL     1       2.553  -2.154  -2.416  1.00  0.00     0.055 C 
ENDBRANCH   1   7
BRANCH   4  14
HETATM   14  C   UNL     1       7.275   0.605  -4.858  1.00  0.00     0.109 A 
HETATM   15  C   UNL     1       7.253   1.995  -4.828  1.00  0.00     0.055 A 
HETATM   16  C   UNL     1       8.077   2.701  -5.706  1.00  0.00    -0.057 A 
HETATM   17  C   UNL     1       8.135   4.196  -5.678  1.00  0.00     0.048 C 
HETATM   18  C   UNL     1       8.847   1.978  -6.614  1.00  0.00     0.031 A 
HETATM   19  C   UNL     1       8.818   0.587  -6.575  1.00  0.00     0.007 A 
HETATM   20  C   UNL     1       9.573  -0.221  -7.588  1.00  0.00     0.068 C 
HETATM   21  N   UNL     1       8.078  -0.106  -5.678  1.00  0.00    -0.346 N 
ATOM     22  HN  UNL     1       8.125  -1.123  -5.624  1.00  0.00     0.167 HD
ENDBRANCH   4  14
TORSDOF 2
