REMARK  5 active torsions:
REMARK  status: ('A' for Active; 'I' for Inactive)
REMARK    1  A    between atoms: O_2  and  C_3 
REMARK    2  A    between atoms: C_3  and  C_4 
REMARK    3  A    between atoms: C_4  and  O_5 
REMARK    4  A    between atoms: O_5  and  C_6 
REMARK    5  A    between atoms: C_9  and  N_10 
REMARK       I    between atoms: N_10  and  C_11 
REMARK       I    between atoms: C_11  and  N_13 
ROOT
HETATM    1  C   UNL     1       6.295   2.506   1.876  1.00  0.00     0.141 A 
HETATM    2  C   UNL     1       7.094   1.413   2.150  1.00  0.00     0.058 A 
HETATM    3  C   UNL     1       8.474   1.552   2.033  1.00  0.00     0.035 A 
HETATM    4  C   UNL     1       9.030   2.773   1.653  1.00  0.00     0.051 A 
HETATM    5  C   UNL     1       8.133   3.820   1.435  1.00  0.00     0.119 A 
HETATM    6  N   UNL     1       6.779   3.718   1.530  1.00  0.00    -0.345 N 
ATOM      7  HN  UNL     1       6.165   4.512   1.350  1.00  0.00     0.167 HD
ENDROOT
BRANCH   4   8
HETATM    8  N   UNL     1      10.428   2.986   1.502  1.00  0.00    -0.307 N 
HETATM    9  C   UNL     1      11.357   1.983   1.353  1.00  0.00     0.323 C 
HETATM   10  O   UNL     1      11.053   0.797   1.241  1.00  0.00    -0.247 OA
HETATM   11  N   UNL     1      12.687   2.354   1.325  1.00  0.00    -0.330 N 
HETATM   12  C   UNL     1      13.291   3.689   1.399  1.00  0.00     0.153 C 
HETATM   13  C   UNL     1      13.687   1.293   1.153  1.00  0.00     0.159 C 
HETATM   14  C   UNL     1      14.230   3.916   0.200  1.00  0.00     0.188 C 
HETATM   15  O   UNL     1      15.191   2.855   0.056  1.00  0.00    -0.383 OA
HETATM   16  C   UNL     1      14.532   1.581  -0.094  1.00  0.00     0.135 C 
HETATM   17  C   UNL     1      15.585   0.503  -0.299  1.00  0.00     0.041 C 
HETATM   18  H   UNL     1      10.716   3.924   1.284  1.00  0.00     0.170 HD
ENDBRANCH   4   8
BRANCH   1  19
HETATM   19  O   UNL     1       4.942   2.315   2.054  1.00  0.00    -0.334 OA
BRANCH  19  20
HETATM   20  C   UNL     1       4.134   3.217   1.299  1.00  0.00     0.203 C 
BRANCH  20  21
HETATM   21  C   UNL     1       2.672   2.869   1.573  1.00  0.00     0.193 C 
BRANCH  21  22
HETATM   22  O   UNL     1       1.817   3.707   0.796  1.00  0.00    -0.394 OA
HETATM   23  C   UNL     1       0.445   3.424   1.041  1.00  0.00     0.201 C 
ENDBRANCH  21  22
ENDBRANCH  20  21
ENDBRANCH  19  20
ENDBRANCH   1  19
TORSDOF 5
