REMARK  7 active torsions:
REMARK  status: ('A' for Active; 'I' for Inactive)
REMARK    1  A    between atoms: O_1  and  C_2 
REMARK    2  A    between atoms: C_2  and  C_3 
REMARK    3  A    between atoms: C_2  and  C_11 
REMARK    4  A    between atoms: C_3  and  O_4 
REMARK    5  A    between atoms: O_4  and  C_5 
REMARK    6  A    between atoms: C_11  and  N_12 
REMARK    7  A    between atoms: C_16  and  C_20 
ROOT
HETATM    1  N   UNL     1       4.568  -0.460  -1.167  1.00  0.00    -0.308 N 
HETATM    2  C   UNL     1       5.180  -0.840  -2.341  1.00  0.00     0.186 A 
HETATM    3  N   UNL     1       6.446  -1.034  -2.506  1.00  0.00    -0.355 N 
ATOM      4  HN  UNL     1       6.830  -1.333  -3.402  1.00  0.00     0.166 HD
HETATM    5  C   UNL     1       7.246  -0.818  -1.418  1.00  0.00     0.019 A 
HETATM    6  C   UNL     1       6.786  -0.446  -0.221  1.00  0.00     0.100 A 
HETATM    7  C   UNL     1       5.338  -0.288  -0.036  1.00  0.00     0.250 A 
HETATM    8  O   UNL     1       4.945  -0.062   1.107  1.00  0.00    -0.268 OA
ENDROOT
BRANCH   1   9
HETATM    9  C   UNL     1       3.096  -0.383  -1.167  1.00  0.00     0.166 C 
BRANCH   9  10
HETATM   10  C   UNL     1       2.418   0.157   0.098  1.00  0.00     0.161 C 
BRANCH  10  11
HETATM   11  O   UNL     1       2.753   1.540   0.268  1.00  0.00    -0.392 OA
HETATM   12  H   UNL     1       2.819   1.687   1.230  1.00  0.00     0.210 HD
ENDBRANCH  10  11
BRANCH  10  13
HETATM   13  C   UNL     1       0.895   0.066   0.060  1.00  0.00     0.209 C 
BRANCH  13  14
HETATM   14  O   UNL     1       0.469  -1.282  -0.133  1.00  0.00    -0.349 OA
BRANCH  14  15
HETATM   15  C   UNL     1      -0.893  -1.436  -0.135  1.00  0.00     0.068 A 
HETATM   16  C   UNL     1      -1.392  -2.439  -0.964  1.00  0.00     0.037 A 
HETATM   17  C   UNL     1      -2.768  -2.666  -1.039  1.00  0.00     0.003 A 
HETATM   18  C   UNL     1      -3.645  -1.901  -0.272  1.00  0.00     0.000 A 
HETATM   19  C   UNL     1      -3.148  -0.919   0.579  1.00  0.00     0.003 A 
HETATM   20  C   UNL     1      -1.774  -0.692   0.654  1.00  0.00     0.037 A 
ENDBRANCH  14  15
ENDBRANCH  13  14
ENDBRANCH  10  13
ENDBRANCH   9  10
ENDBRANCH   1   9
BRANCH   5  21
HETATM   21  C   UNL     1       8.705  -1.087  -1.532  1.00  0.00     0.036 C 
HETATM   22  C   UNL     1       9.648   0.122  -1.274  1.00  0.00     0.011 C 
HETATM   23  C   UNL     1      10.582  -0.482  -2.341  1.00  0.00     0.001 C 
HETATM   24  C   UNL     1       9.328  -1.143  -2.951  1.00  0.00     0.011 C 
ENDBRANCH   5  21
TORSDOF 7
