REMARK  5 active torsions:
REMARK  status: ('A' for Active; 'I' for Inactive)
REMARK       I    between atoms: C_2  and  N_3 
REMARK       I    between atoms: C_2  and  N_12 
REMARK    1  A    between atoms: N_3  and  C_4 
REMARK    2  A    between atoms: C_4  and  C_5 
REMARK    3  A    between atoms: C_5  and  C_6 
REMARK    4  A    between atoms: N_12  and  C_13 
REMARK    5  A    between atoms: C_16  and  N_20 
ROOT
HETATM    1  C   UNL     1       2.842   0.730  -2.278  1.00  0.00     0.051 A 
HETATM    2  C   UNL     1       1.552   1.006  -2.697  1.00  0.00     0.035 A 
HETATM    3  C   UNL     1       1.337   1.451  -3.999  1.00  0.00     0.051 A 
HETATM    4  C   UNL     1       2.404   1.619  -4.883  1.00  0.00     0.103 A 
HETATM    5  N   UNL     1       3.670   1.374  -4.487  1.00  0.00    -0.350 N 
ATOM      6  HN  UNL     1       4.459   1.518  -5.117  1.00  0.00     0.166 HD
HETATM    7  C   UNL     1       3.855   0.928  -3.215  1.00  0.00     0.119 A 
ENDROOT
BRANCH   1   8
HETATM    8  N   UNL     1       3.168   0.271  -0.986  1.00  0.00    -0.308 N 
HETATM    9  C   UNL     1       2.307   0.090   0.077  1.00  0.00     0.320 C 
HETATM   10  O   UNL     1       1.113   0.358   0.114  1.00  0.00    -0.247 OA
HETATM   11  N   UNL     1       2.978  -0.456   1.154  1.00  0.00    -0.343 N 
HETATM   12  H   UNL     1       3.723  -1.088   0.901  1.00  0.00     0.164 HD
HETATM   13  H   UNL     1       4.148   0.157  -0.776  1.00  0.00     0.170 HD
BRANCH  11  14
HETATM   14  C   UNL     1       2.237  -0.803   2.357  1.00  0.00     0.128 C 
BRANCH  14  15
HETATM   15  C   UNL     1       3.177  -1.326   3.444  1.00  0.00     0.053 C 
BRANCH  15  16
HETATM   16  C   UNL     1       2.456  -1.728   4.710  1.00  0.00    -0.082 A 
HETATM   17  C   UNL     1       2.017  -2.981   4.886  1.00  0.00    -0.024 A 
HETATM   18  C   UNL     1       1.302  -3.472   6.096  1.00  0.00     0.027 A 
HETATM   19  C   UNL     1       1.082  -2.472   7.226  1.00  0.00     0.004 A 
HETATM   20  C   UNL     1       1.613  -1.050   7.061  1.00  0.00     0.005 A 
HETATM   21  C   UNL     1       2.292  -0.660   5.749  1.00  0.00     0.034 A 
ENDBRANCH  15  16
ENDBRANCH  14  15
ENDBRANCH  11  14
ENDBRANCH   1   8
BRANCH   4  22
HETATM   22  N   UNL     1       2.152   2.132  -6.142  1.00  0.00    -0.357 N 
HETATM   23  C   UNL     1       3.243   2.730  -6.906  1.00  0.00     0.144 C 
HETATM   24  C   UNL     1       2.605   3.819  -7.789  1.00  0.00     0.142 C 
HETATM   25  N   UNL     1       1.458   3.348  -8.557  1.00  0.00    -0.358 N 
HETATM   26  C   UNL     1       0.593   2.403  -8.045  1.00  0.00     0.235 C 
HETATM   27  H   UNL     1       1.006   3.992  -9.193  1.00  0.00     0.162 HD
HETATM   28  O   UNL     1      -0.546   2.301  -8.497  1.00  0.00    -0.272 OA
HETATM   29  C   UNL     1       1.154   1.444  -6.981  1.00  0.00     0.227 C 
ENDBRANCH   4  22
TORSDOF 5
