REMARK  6 active torsions:
REMARK  status: ('A' for Active; 'I' for Inactive)
REMARK    1  A    between atoms: N_6  and  C_7 
REMARK    2  A    between atoms: C_7  and  C_8 
REMARK    3  A    between atoms: C_8  and  N_9 
REMARK    4  A    between atoms: N_9  and  C_10 
REMARK    5  A    between atoms: C_10  and  C_11 
REMARK    6  A    between atoms: C_11  and  O_12 
ROOT
HETATM    1  N   UNL     1       6.143  -3.870   0.341  1.00  0.00     0.087 N 
HETATM    2  H   UNL     1       6.738  -3.652   1.140  1.00  0.00     0.316 HD
ENDROOT
BRANCH   1   3
HETATM    3  C   UNL     1       4.873  -3.137   0.484  1.00  0.00     0.291 C 
BRANCH   3   4
HETATM    4  C   UNL     1       4.079  -3.468   1.752  1.00  0.00     0.178 C 
BRANCH   4   5
HETATM    5  N   UNL     1       2.948  -2.577   1.911  1.00  0.00    -0.302 N 
HETATM    6  N   UNL     1       1.764  -2.898   1.364  1.00  0.00    -0.310 N 
HETATM    7  C   UNL     1       0.985  -1.860   1.677  1.00  0.00     0.115 A 
ATOM      8  HN  UNL     1       1.519  -3.735   0.836  1.00  0.00     0.186 HD
HETATM    9  C   UNL     1       1.666  -0.873   2.426  1.00  0.00    -0.028 A 
HETATM   10  C   UNL     1       1.143   0.413   2.933  1.00  0.00     0.051 C 
HETATM   11  C   UNL     1       2.939  -1.383   2.569  1.00  0.00     0.118 A 
ENDBRANCH   4   5
ENDBRANCH   3   4
ENDBRANCH   1   3
BRANCH   1  12
HETATM   12  C   UNL     1       5.945  -5.329   0.256  1.00  0.00     0.307 C 
BRANCH  12  13
HETATM   13  C   UNL     1       7.299  -6.063   0.017  1.00  0.00     0.084 C 
HETATM   14  C   UNL     1       7.069  -7.566  -0.218  1.00  0.00     0.039 C 
HETATM   15  C   UNL     1       6.688  -8.313   1.059  1.00  0.00     0.003 C 
HETATM   16  C   UNL     1       7.733  -8.104   2.150  1.00  0.00     0.000 C 
HETATM   17  C   UNL     1       7.968  -6.623   2.429  1.00  0.00     0.003 C 
HETATM   18  C   UNL     1       8.321  -5.861   1.154  1.00  0.00     0.039 C 
BRANCH  13  19
HETATM   19  O   UNL     1       7.874  -5.513  -1.179  1.00  0.00    -0.388 OA
HETATM   20  H   UNL     1       7.642  -4.562  -1.159  1.00  0.00     0.210 HD
ENDBRANCH  13  19
ENDBRANCH  12  13
ENDBRANCH   1  12
TORSDOF 6
