REMARK  5 active torsions:
REMARK  status: ('A' for Active; 'I' for Inactive)
REMARK    1  A    between atoms: C_2  and  C_3 
REMARK    2  A    between atoms: C_6  and  C_7 
REMARK    3  A    between atoms: C_7  and  C_8 
REMARK    4  A    between atoms: C_8  and  N_9 
REMARK       I    between atoms: N_9  and  C_10 
REMARK    5  A    between atoms: C_10  and  C_12 
ROOT
HETATM    1  C   UNL     1       3.020   4.538  -1.914  1.00  0.00     0.077 C 
ENDROOT
BRANCH   1   2
HETATM    2  C   UNL     1       3.191   3.056  -1.816  1.00  0.00     0.018 A 
HETATM    3  N   UNL     1       4.318   2.459  -2.358  1.00  0.00    -0.357 N 
HETATM    4  C   UNL     1       4.282   1.158  -2.157  1.00  0.00     0.050 A 
ATOM      5  HN  UNL     1       5.066   2.955  -2.842  1.00  0.00     0.166 HD
HETATM    6  S   UNL     1       2.907   0.580  -1.303  1.00  0.00    -0.087 SA
HETATM    7  C   UNL     1       2.321   2.183  -1.190  1.00  0.00     0.076 A 
BRANCH   4   8
HETATM    8  C   UNL     1       5.348   0.209  -2.605  1.00  0.00     0.060 C 
HETATM    9  C   UNL     1       6.445   0.080  -1.560  1.00  0.00     0.012 C 
ENDBRANCH   4   8
ENDBRANCH   1   2
BRANCH   1  10
HETATM   10  C   UNL     1       3.563   5.128  -3.216  1.00  0.00     0.128 C 
BRANCH  10  11
HETATM   11  N   UNL     1       3.394   6.571  -3.287  1.00  0.00    -0.360 N 
HETATM   12  C   UNL     1       2.157   7.141  -3.454  1.00  0.00     0.221 C 
HETATM   13  O   UNL     1       1.108   6.515  -3.518  1.00  0.00    -0.273 OA
HETATM   14  H   UNL     1       4.210   7.162  -3.209  1.00  0.00     0.162 HD
BRANCH  12  15
HETATM   15  C   UNL     1       2.176   8.628  -3.511  1.00  0.00     0.078 A 
HETATM   16  C   UNL     1       1.589   9.432  -2.373  1.00  0.00     0.015 A 
HETATM   17  C   UNL     1       0.889   9.398  -3.700  1.00  0.00     0.015 A 
ENDBRANCH  12  15
ENDBRANCH  10  11
ENDBRANCH   1  10
TORSDOF 5
