REMARK  7 active torsions:
REMARK  status: ('A' for Active; 'I' for Inactive)
REMARK    1  A    between atoms: O_1  and  C_2 
REMARK    2  A    between atoms: C_2  and  C_3 
REMARK    3  A    between atoms: C_2  and  C_12 
REMARK    4  A    between atoms: C_3  and  O_4 
REMARK    5  A    between atoms: O_4  and  C_5 
REMARK    6  A    between atoms: C_5  and  C_6 
REMARK    7  A    between atoms: C_12  and  N_13 
ROOT
HETATM    1  C   UNL     1       2.468  -0.089   0.067  1.00  0.00     0.160 C 
ENDROOT
BRANCH   1   2
HETATM    2  O   UNL     1       1.038  -0.179   0.098  1.00  0.00    -0.392 OA
HETATM    3  H   UNL     1       0.699   0.662   0.453  1.00  0.00     0.210 HD
ENDBRANCH   1   2
BRANCH   1   4
HETATM    4  C   UNL     1       2.974  -0.168   1.511  1.00  0.00     0.201 C 
BRANCH   4   5
HETATM    5  O   UNL     1       4.393  -0.096   1.550  1.00  0.00    -0.384 OA
BRANCH   5   6
HETATM    6  C   UNL     1       4.881  -0.203   2.887  1.00  0.00     0.206 C 
BRANCH   6   7
HETATM    7  C   UNL     1       6.385  -0.152   2.859  1.00  0.00    -0.035 A 
HETATM    8  C   UNL     1       7.079   0.858   3.538  1.00  0.00     0.009 A 
HETATM    9  C   UNL     1       8.475   0.893   3.518  1.00  0.00     0.001 A 
HETATM   10  C   UNL     1       9.188  -0.080   2.820  1.00  0.00     0.000 A 
HETATM   11  C   UNL     1       8.507  -1.088   2.142  1.00  0.00     0.001 A 
HETATM   12  C   UNL     1       7.113  -1.126   2.162  1.00  0.00     0.009 A 
ENDBRANCH   6   7
ENDBRANCH   5   6
ENDBRANCH   4   5
ENDBRANCH   1   4
BRANCH   1  13
HETATM   13  C   UNL     1       3.045  -1.229  -0.782  1.00  0.00     0.164 C 
BRANCH  13  14
HETATM   14  N   UNL     1       2.647  -1.136  -2.177  1.00  0.00    -0.339 N 
HETATM   15  C   UNL     1       1.524  -1.710  -2.707  1.00  0.00     0.184 A 
HETATM   16  N   UNL     1       1.409  -1.462  -3.991  1.00  0.00    -0.350 N 
HETATM   17  C   UNL     1       2.504  -0.697  -4.306  1.00  0.00     0.060 A 
ATOM     18  HN  UNL     1       0.667  -1.771  -4.619  1.00  0.00     0.166 HD
HETATM   19  C   UNL     1       2.875  -0.144  -5.541  1.00  0.00     0.032 A 
HETATM   20  C   UNL     1       3.311  -0.485  -3.188  1.00  0.00     0.062 A 
HETATM   21  C   UNL     1       4.056   0.603  -5.618  1.00  0.00     0.002 A 
HETATM   22  C   UNL     1       4.855   0.793  -4.488  1.00  0.00     0.002 A 
HETATM   23  C   UNL     1       4.499   0.254  -3.245  1.00  0.00     0.032 A 
ENDBRANCH  13  14
ENDBRANCH   1  13
TORSDOF 7
