REMARK  5 active torsions:
REMARK  status: ('A' for Active; 'I' for Inactive)
REMARK    1  A    between atoms: N_5  and  C_6 
REMARK    2  A    between atoms: C_6  and  C_7 
REMARK    3  A    between atoms: C_7  and  O_8 
REMARK    4  A    between atoms: C_7  and  C_9 
REMARK    5  A    between atoms: C_9  and  N_10 
ROOT
HETATM    1  C   UNL     1       6.739   0.320  -3.877  1.00  0.00     0.164 C 
ENDROOT
BRANCH   1   2
HETATM    2  C   UNL     1       5.207   0.277  -3.944  1.00  0.00     0.164 C 
BRANCH   2   3
HETATM    3  C   UNL     1       4.645  -0.760  -2.934  1.00  0.00     0.305 C 
BRANCH   3   4
HETATM    4  N   UNL     1       3.171  -0.857  -2.915  1.00  0.00     0.091 N 
HETATM    5  C   UNL     1       2.687  -1.732  -1.830  1.00  0.00     0.273 C 
HETATM    6  C   UNL     1       2.978  -3.220  -2.054  1.00  0.00     0.034 C 
HETATM    7  C   UNL     1       2.472  -3.725  -3.415  1.00  0.00    -0.015 C 
HETATM    8  C   UNL     1       0.957  -3.949  -3.401  1.00  0.00     0.010 C 
HETATM    9  C   UNL     1       2.888  -2.761  -4.536  1.00  0.00     0.034 C 
HETATM   10  C   UNL     1       2.584  -1.299  -4.194  1.00  0.00     0.273 C 
ENDBRANCH   3   4
ENDBRANCH   2   3
BRANCH   2  11
HETATM   11  O   UNL     1       4.689   1.581  -3.670  1.00  0.00    -0.392 OA
HETATM   12  H   UNL     1       4.307   1.574  -2.770  1.00  0.00     0.210 HD
ENDBRANCH   2  11
ENDBRANCH   1   2
BRANCH   1  13
HETATM   13  N   UNL     1       7.301   1.207  -4.888  1.00  0.00    -0.333 N 
HETATM   14  C   UNL     1       7.539   2.559  -4.759  1.00  0.00     0.080 A 
HETATM   15  C   UNL     1       7.348   3.349  -3.513  1.00  0.00     0.089 C 
HETATM   16  N   UNL     1       7.920   3.079  -5.911  1.00  0.00    -0.344 N 
HETATM   17  C   UNL     1       7.938   2.041  -6.801  1.00  0.00     0.060 A 
ATOM     18  HN  UNL     1       8.153   4.054  -6.099  1.00  0.00     0.167 HD
HETATM   19  C   UNL     1       8.237   2.051  -8.173  1.00  0.00     0.032 A 
HETATM   20  C   UNL     1       7.597   0.841  -6.182  1.00  0.00     0.062 A 
HETATM   21  C   UNL     1       8.216   0.848  -8.879  1.00  0.00     0.002 A 
HETATM   22  C   UNL     1       7.904  -0.349  -8.234  1.00  0.00     0.002 A 
HETATM   23  C   UNL     1       7.580  -0.380  -6.873  1.00  0.00     0.032 A 
ENDBRANCH   1  13
TORSDOF 5
