REMARK  5 active torsions:
REMARK  status: ('A' for Active; 'I' for Inactive)
REMARK       I    between atoms: N_6  and  C_8 
REMARK    1  A    between atoms: C_8  and  C_10 
REMARK    2  A    between atoms: C_10  and  N_11 
REMARK    3  A    between atoms: N_11  and  C_12 
REMARK    4  A    between atoms: C_12  and  C_13 
REMARK    5  A    between atoms: C_13  and  N_14 
ROOT
HETATM    1  C   UNL     1       1.320  -3.014  -3.526  1.00  0.00     0.372 C 
ENDROOT
BRANCH   1   2
HETATM    2  C   UNL     1       1.615  -2.691  -2.057  1.00  0.00     0.247 C 
HETATM    3  N   UNL     1       2.553  -1.686  -1.828  1.00  0.00    -0.350 N 
HETATM    4  C   UNL     1       3.188  -0.860  -2.858  1.00  0.00     0.126 C 
HETATM    5  C   UNL     1       2.793  -1.245  -0.458  1.00  0.00     0.130 C 
HETATM    6  C   UNL     1       2.729   0.592  -2.743  1.00  0.00     0.020 C 
HETATM    7  C   UNL     1       2.911   1.120  -1.318  1.00  0.00     0.007 C 
HETATM    8  C   UNL     1       2.287   0.192  -0.260  1.00  0.00    -0.001 C 
HETATM    9  C   UNL     1       0.756   0.253  -0.290  1.00  0.00     0.011 C 
HETATM   10  O   UNL     1       1.031  -3.269  -1.137  1.00  0.00    -0.271 OA
ENDBRANCH   1   2
BRANCH   1  11
HETATM   11  N   UNL     1       0.434  -4.184  -3.660  1.00  0.00     0.093 N 
HETATM   12  H   UNL     1      -0.390  -4.026  -3.073  1.00  0.00     0.316 HD
BRANCH  11  13
HETATM   13  C   UNL     1       0.041  -4.410  -5.056  1.00  0.00     0.291 C 
BRANCH  13  14
HETATM   14  C   UNL     1       1.225  -4.814  -5.940  1.00  0.00     0.178 C 
BRANCH  14  15
HETATM   15  N   UNL     1       0.822  -5.071  -7.305  1.00  0.00    -0.302 N 
HETATM   16  C   UNL     1       0.528  -6.284  -7.858  1.00  0.00     0.111 A 
HETATM   17  C   UNL     1       0.291  -6.042  -9.191  1.00  0.00     0.037 A 
HETATM   18  C   UNL     1       0.469  -4.654  -9.340  1.00  0.00     0.108 A 
HETATM   19  N   UNL     1       0.786  -4.056  -8.190  1.00  0.00    -0.310 N 
ATOM     20  HN  UNL     1       0.960  -3.065  -8.021  1.00  0.00     0.186 HD
ENDBRANCH  14  15
ENDBRANCH  13  14
ENDBRANCH  11  13
ENDBRANCH   1  11
TORSDOF 5
