REMARK  6 active torsions:
REMARK  status: ('A' for Active; 'I' for Inactive)
REMARK    1  A    between atoms: C_2  and  C_3 
REMARK    2  A    between atoms: C_3  and  C_4 
REMARK       I    between atoms: C_4  and  N_6 
REMARK    3  A    between atoms: C_9  and  C_12 
REMARK       I    between atoms: C_12  and  N_14 
REMARK    4  A    between atoms: N_14  and  C_15 
REMARK    5  A    between atoms: C_15  and  C_16 
REMARK    6  A    between atoms: C_16  and  N_17 
ROOT
HETATM    1  C   UNL     1       7.124   2.178  -5.472  1.00  0.00     0.222 C 
HETATM    2  O   UNL     1       7.754   1.124  -5.496  1.00  0.00    -0.273 OA
HETATM    3  N   UNL     1       7.727   3.385  -5.737  1.00  0.00    -0.359 N 
HETATM    4  H   UNL     1       7.142   4.180  -5.965  1.00  0.00     0.162 HD
ENDROOT
BRANCH   1   5
HETATM    5  C   UNL     1       5.626   2.247  -5.183  1.00  0.00     0.081 C 
HETATM    6  C   UNL     1       5.304   3.125  -3.961  1.00  0.00     0.034 C 
HETATM    7  C   UNL     1       5.714   2.464  -2.641  1.00  0.00     0.126 C 
HETATM    8  N   UNL     1       5.166   1.116  -2.556  1.00  0.00    -0.352 N 
HETATM    9  C   UNL     1       4.524   0.704  -1.394  1.00  0.00     0.219 C 
HETATM   10  C   UNL     1       5.517   0.229  -3.663  1.00  0.00     0.126 C 
HETATM   11  O   UNL     1       4.503   1.382  -0.368  1.00  0.00    -0.273 OA
HETATM   12  C   UNL     1       5.054   0.835  -4.986  1.00  0.00     0.034 C 
BRANCH   9  13
HETATM   13  C   UNL     1       3.820  -0.640  -1.478  1.00  0.00     0.103 C 
BRANCH  13  14
HETATM   14  C   UNL     1       2.711  -0.807  -0.449  1.00  0.00     0.005 C 
HETATM   15  C   UNL     1       1.980  -2.121  -0.685  1.00  0.00     0.005 C 
ENDBRANCH  13  14
ENDBRANCH   9  13
ENDBRANCH   1   5
BRANCH   3  16
HETATM   16  C   UNL     1       9.139   3.405  -6.069  1.00  0.00     0.143 C 
BRANCH  16  17
HETATM   17  C   UNL     1       9.668   4.798  -6.370  1.00  0.00     0.148 C 
BRANCH  17  18
HETATM   18  N   UNL     1      11.088   4.781  -6.640  1.00  0.00    -0.350 N 
HETATM   19  C   UNL     1      12.086   4.932  -5.719  1.00  0.00     0.108 A 
HETATM   20  C   UNL     1      13.250   4.841  -6.445  1.00  0.00     0.106 A 
HETATM   21  N   UNL     1      12.980   4.640  -7.774  1.00  0.00    -0.361 N 
HETATM   22  C   UNL     1      11.670   4.606  -7.862  1.00  0.00     0.182 A 
ATOM     23  HN  UNL     1      13.654   4.538  -8.533  1.00  0.00     0.166 HD
ENDBRANCH  17  18
ENDBRANCH  16  17
ENDBRANCH   3  16
TORSDOF 6
