REMARK  3 active torsions:
REMARK  status: ('A' for Active; 'I' for Inactive)
REMARK       I    between atoms: N_10  and  C_11 
REMARK       I    between atoms: C_11  and  N_13 
REMARK    1  A    between atoms: N_13  and  C_14 
REMARK    2  A    between atoms: C_14  and  C_15 
REMARK    3  A    between atoms: C_15  and  C_16 
ROOT
HETATM    1  C   UNL     1       1.120   0.280   0.263  1.00  0.00     0.309 C 
HETATM    2  N   UNL     1       2.565   0.046   0.220  1.00  0.00     0.084 N 
HETATM    3  C   UNL     1       3.106   0.133  -1.137  1.00  0.00     0.274 C 
HETATM    4  C   UNL     1       2.676  -1.021  -2.043  1.00  0.00     0.056 C 
HETATM    5  C   UNL     1       2.992  -2.394  -1.431  1.00  0.00     0.096 C 
HETATM    6  C   UNL     1       2.497  -2.460   0.036  1.00  0.00     0.037 C 
HETATM    7  C   UNL     1       3.006  -3.739   0.719  1.00  0.00     0.010 C 
HETATM    8  C   UNL     1       2.572  -4.969  -0.069  1.00  0.00     0.020 C 
HETATM    9  C   UNL     1       3.035  -4.869  -1.522  1.00  0.00     0.128 C 
HETATM   10  N   UNL     1       2.564  -3.630  -2.162  1.00  0.00    -0.329 N 
HETATM   11  C   UNL     1       1.655  -3.806  -3.197  1.00  0.00     0.318 C 
HETATM   12  O   UNL     1       1.246  -4.914  -3.538  1.00  0.00    -0.247 OA
HETATM   13  N   UNL     1       1.243  -2.681  -3.854  1.00  0.00    -0.343 N 
HETATM   14  C   UNL     1       2.940  -1.228   0.839  1.00  0.00     0.278 C 
HETATM   15  H   UNL     1       2.017  -2.073  -4.051  1.00  0.00     0.164 HD
ENDROOT
BRANCH  13  16
HETATM   16  C   UNL     1       0.297  -2.754  -4.963  1.00  0.00     0.129 C 
BRANCH  16  17
HETATM   17  C   UNL     1      -1.073  -3.331  -4.594  1.00  0.00     0.060 C 
BRANCH  17  18
HETATM   18  C   UNL     1      -1.997  -3.352  -5.782  1.00  0.00    -0.041 A 
HETATM   19  C   UNL     1      -1.996  -4.421  -6.680  1.00  0.00     0.010 A 
HETATM   20  C   UNL     1      -2.841  -4.394  -7.787  1.00  0.00     0.025 A 
HETATM   21  C   UNL     1      -3.670  -3.293  -7.971  1.00  0.00     0.005 A 
HETATM   22  C   UNL     1      -4.575  -3.201  -9.163  1.00  0.00     0.068 C 
HETATM   23  N   UNL     1      -3.686  -2.243  -7.116  1.00  0.00    -0.369 N 
HETATM   24  C   UNL     1      -2.860  -2.297  -6.047  1.00  0.00     0.095 A 
ATOM     25  HN  UNL     1      -4.298  -1.442  -7.272  1.00  0.00     0.165 HD
ENDBRANCH  17  18
ENDBRANCH  16  17
ENDBRANCH  13  16
TORSDOF 3
