REMARK  4 active torsions:
REMARK  status: ('A' for Active; 'I' for Inactive)
REMARK    1  A    between atoms: S_2  and  C_3 
REMARK    2  A    between atoms: C_8  and  C_9 
REMARK    3  A    between atoms: N_12  and  C_13 
REMARK    4  A    between atoms: C_13  and  C_14 
REMARK       I    between atoms: C_14  and  N_16 
ROOT
HETATM    1  C   UNL     1       3.304   1.735  -1.119  1.00  0.00     0.162 A 
HETATM    2  N   UNL     1       3.934   1.650  -2.266  1.00  0.00    -0.278 N 
ATOM      3  HN  UNL     1       4.233   0.790  -2.726  1.00  0.00     0.189 HD
HETATM    4  N   UNL     1       4.118   2.923  -2.736  1.00  0.00    -0.286 N 
ATOM      5  HN  UNL     1       4.588   3.179  -3.605  1.00  0.00     0.188 HD
HETATM    6  C   UNL     1       3.583   3.760  -1.871  1.00  0.00     0.104 A 
HETATM    7  N   UNL     1       3.061   3.047  -0.818  1.00  0.00    -0.306 N 
ENDROOT
BRANCH   7   8
HETATM    8  C   UNL     1       2.456   3.599   0.374  1.00  0.00     0.235 C 
BRANCH   8   9
HETATM    9  C   UNL     1       1.180   4.364   0.103  1.00  0.00     0.233 C 
HETATM   10  O   UNL     1       1.006   5.514   0.498  1.00  0.00    -0.272 OA
HETATM   11  N   UNL     1       0.179   3.707  -0.550  1.00  0.00    -0.369 N 
HETATM   12  H   UNL     1       0.319   2.843  -1.061  1.00  0.00     0.159 HD
HETATM   13  H   UNL     1      -0.659   4.237  -0.754  1.00  0.00     0.159 HD
ENDBRANCH   8   9
ENDBRANCH   7   8
BRANCH   1  14
HETATM   14  S   UNL     1       2.834   0.392  -0.138  1.00  0.00    -0.097 SA
HETATM   15  C   UNL     1       3.482  -0.971  -1.143  1.00  0.00     0.099 C 
ENDBRANCH   1  14
BRANCH   6  16
HETATM   16  C   UNL     1       3.561   5.267  -2.087  1.00  0.00     0.055 A 
HETATM   17  C   UNL     1       3.481   5.743  -3.527  1.00  0.00     0.013 A 
HETATM   18  C   UNL     1       4.747   5.919  -2.765  1.00  0.00     0.013 A 
ENDBRANCH   6  16
TORSDOF 4
