REMARK  7 active torsions:
REMARK  status: ('A' for Active; 'I' for Inactive)
REMARK    1  A    between atoms: N_7  and  C_8 
REMARK    2  A    between atoms: C_8  and  C_9 
REMARK    3  A    between atoms: C_9  and  O_10 
REMARK    4  A    between atoms: C_9  and  C_11 
REMARK    5  A    between atoms: C_11  and  O_12 
REMARK    6  A    between atoms: O_12  and  C_13 
REMARK    7  A    between atoms: C_18  and  C_19 
ROOT
HETATM    1  C   UNL     1       4.407  -3.659  -0.197  1.00  0.00     0.162 C 
ENDROOT
BRANCH   1   2
HETATM    2  C   UNL     1       5.311  -2.433  -0.018  1.00  0.00     0.186 C 
BRANCH   2   3
HETATM    3  N   UNL     1       6.147  -2.448   1.174  1.00  0.00    -0.255 N 
HETATM    4  C   UNL     1       7.428  -2.982   1.114  1.00  0.00     0.262 A 
HETATM    5  C   UNL     1       8.243  -2.848   2.338  1.00  0.00     0.078 A 
HETATM    6  O   UNL     1       7.905  -3.547   0.135  1.00  0.00    -0.267 OA
HETATM    7  C   UNL     1       7.750  -2.254   3.424  1.00  0.00     0.031 A 
HETATM    8  C   UNL     1       6.357  -1.768   3.349  1.00  0.00     0.022 A 
HETATM    9  C   UNL     1       5.774  -1.124   4.581  1.00  0.00     0.069 C 
HETATM   10  N   UNL     1       5.607  -1.864   2.298  1.00  0.00    -0.300 N 
ATOM     11  HN  UNL     1       4.647  -1.518   2.302  1.00  0.00     0.187 HD
ENDBRANCH   2   3
ENDBRANCH   1   2
BRANCH   1  12
HETATM   12  O   UNL     1       3.593  -3.435  -1.365  1.00  0.00    -0.392 OA
HETATM   13  H   UNL     1       4.171  -3.459  -2.146  1.00  0.00     0.210 HD
ENDBRANCH   1  12
BRANCH   1  14
HETATM   14  C   UNL     1       5.193  -4.974  -0.339  1.00  0.00     0.209 C 
BRANCH  14  15
HETATM   15  O   UNL     1       4.264  -6.049  -0.509  1.00  0.00    -0.348 OA
BRANCH  15  16
HETATM   16  C   UNL     1       4.749  -7.317  -0.657  1.00  0.00     0.084 A 
HETATM   17  C   UNL     1       6.108  -7.654  -0.598  1.00  0.00     0.037 A 
HETATM   18  C   UNL     1       6.522  -8.979  -0.753  1.00  0.00     0.003 A 
HETATM   19  C   UNL     1       5.584  -9.982  -0.974  1.00  0.00     0.001 A 
HETATM   20  C   UNL     1       4.232  -9.656  -1.037  1.00  0.00     0.019 A 
HETATM   21  C   UNL     1       3.796  -8.323  -0.881  1.00  0.00     0.081 A 
BRANCH  21  22
HETATM   22  C   UNL     1       2.313  -8.051  -0.984  1.00  0.00     0.420 C 
HETATM   23  F   UNL     1       1.905  -6.772  -0.771  1.00  0.00    -0.166 F 
HETATM   24  F   UNL     1       1.824  -8.390  -2.215  1.00  0.00    -0.166 F 
HETATM   25  F   UNL     1       1.599  -8.809  -0.099  1.00  0.00    -0.166 F 
ENDBRANCH  21  22
ENDBRANCH  15  16
ENDBRANCH  14  15
ENDBRANCH   1  14
TORSDOF 7
