REMARK  7 active torsions:
REMARK  status: ('A' for Active; 'I' for Inactive)
REMARK    1  A    between atoms: N_2  and  C_3 
REMARK    2  A    between atoms: N_4  and  C_17 
REMARK    3  A    between atoms: N_9  and  C_21 
REMARK    4  A    between atoms: C_17  and  C_18 
REMARK    5  A    between atoms: C_18  and  C_25 
REMARK    6  A    between atoms: C_21  and  C_29 
REMARK    7  A    between atoms: C_25  and  O_26 
ROOT
HETATM    1  C   UNL     1       0.434  -0.711  -0.032  1.00  0.00     0.122 A 
HETATM    2  C   UNL     1      -0.746  -1.507  -0.104  1.00  0.00     0.136 A 
HETATM    3  N   UNL     1       1.548   1.206   0.040  1.00  0.00    -0.326 N 
HETATM    4  C   UNL     1       0.278   0.674   0.007  1.00  0.00     0.140 A 
HETATM    5  N   UNL     1       1.783  -1.019   0.018  1.00  0.00    -0.346 N 
ATOM      6  HN  UNL     1       2.204  -1.948  -0.000  1.00  0.00     0.167 HD
HETATM    7  C   UNL     1       2.411   0.139   0.094  1.00  0.00     0.185 A 
HETATM    8  N   UNL     1      -1.928  -0.814  -0.096  1.00  0.00    -0.337 N 
ATOM      9  HN  UNL     1      -2.812  -1.322  -0.108  1.00  0.00     0.168 HD
HETATM   10  N   UNL     1      -0.871   1.367  -0.028  1.00  0.00    -0.336 N 
ATOM     11  HN  UNL     1      -0.933   2.385  -0.021  1.00  0.00     0.168 HD
HETATM   12  C   UNL     1      -1.932   0.535  -0.073  1.00  0.00     0.183 A 
ENDROOT
BRANCH   2  13
HETATM   13  N   UNL     1      -0.792  -2.909  -0.137  1.00  0.00    -0.351 N 
HETATM   14  C   UNL     1      -2.144  -3.528  -0.093  1.00  0.00     0.174 C 
HETATM   15  C   UNL     1      -2.095  -5.048   0.191  1.00  0.00     0.242 C 
HETATM   16  C   UNL     1      -2.890  -3.416  -1.434  1.00  0.00     0.042 C 
HETATM   17  N   UNL     1      -1.056  -5.736  -0.439  1.00  0.00    -0.348 N 
HETATM   18  O   UNL     1      -3.046  -5.628   0.718  1.00  0.00    -0.271 OA
HETATM   19  C   UNL     1       0.248  -5.093  -0.602  1.00  0.00     0.145 C 
HETATM   20  C   UNL     1       0.180  -3.603  -0.987  1.00  0.00     0.145 C 
BRANCH  17  21
HETATM   21  C   UNL     1      -1.318  -7.060  -0.991  1.00  0.00     0.129 C 
BRANCH  21  22
HETATM   22  C   UNL     1      -0.351  -8.183  -0.596  1.00  0.00    -0.005 C 
HETATM   23  C   UNL     1      -0.363  -8.447   0.908  1.00  0.00     0.011 C 
HETATM   24  C   UNL     1      -0.741  -9.457  -1.355  1.00  0.00     0.011 C 
ENDBRANCH  21  22
ENDBRANCH  17  21
ENDBRANCH   2  13
BRANCH   3  25
HETATM   25  C   UNL     1       1.906   2.622   0.027  1.00  0.00     0.143 C 
BRANCH  25  26
HETATM   26  C   UNL     1       2.137   3.228  -1.404  1.00  0.00     0.001 C 
HETATM   27  C   UNL     1       3.413   2.623  -2.042  1.00  0.00     0.039 C 
HETATM   28  C   UNL     1       4.681   3.217  -1.429  1.00  0.00     0.168 C 
HETATM   29  O   UNL     1       4.728   4.608  -1.704  1.00  0.00    -0.391 OA
HETATM   30  C   UNL     1       3.687   5.320  -1.041  1.00  0.00     0.168 C 
HETATM   31  C   UNL     1       2.309   4.782  -1.399  1.00  0.00     0.039 C 
BRANCH  26  32
HETATM   32  C   UNL     1       0.885   2.954  -2.276  1.00  0.00     0.175 C 
BRANCH  32  33
HETATM   33  O   UNL     1      -0.266   3.559  -1.688  1.00  0.00    -0.400 OA
HETATM   34  H   UNL     1      -0.628   2.932  -1.028  1.00  0.00     0.209 HD
ENDBRANCH  32  33
ENDBRANCH  26  32
ENDBRANCH  25  26
ENDBRANCH   3  25
TORSDOF 7
