REMARK  4 active torsions:
REMARK  status: ('A' for Active; 'I' for Inactive)
REMARK    1  A    between atoms: O_2  and  C_3 
REMARK    2  A    between atoms: C_6  and  N_7 
REMARK       I    between atoms: N_7  and  C_8 
REMARK       I    between atoms: C_8  and  N_10 
REMARK    3  A    between atoms: N_10  and  C_11 
REMARK    4  A    between atoms: C_11  and  C_13 
ROOT
HETATM    1  N   UNL     1       4.465  -0.410   6.086  1.00  0.00    -0.294 N 
HETATM    2  C   UNL     1       4.697  -1.641   6.650  1.00  0.00     0.322 C 
HETATM    3  O   UNL     1       3.851  -2.403   7.102  1.00  0.00    -0.247 OA
HETATM    4  N   UNL     1       6.032  -1.983   6.642  1.00  0.00    -0.338 N 
HETATM    5  H   UNL     1       5.227   0.064   5.633  1.00  0.00     0.172 HD
HETATM    6  H   UNL     1       6.727  -1.264   6.513  1.00  0.00     0.164 HD
ENDROOT
BRANCH   1   7
HETATM    7  C   UNL     1       3.172   0.126   5.957  1.00  0.00     0.123 A 
HETATM    8  C   UNL     1       2.998   1.311   5.255  1.00  0.00     0.054 A 
HETATM    9  C   UNL     1       1.705   1.807   5.081  1.00  0.00     0.061 A 
HETATM   10  C   UNL     1       0.649   1.097   5.620  1.00  0.00     0.156 A 
HETATM   11  N   UNL     1       0.845  -0.029   6.324  1.00  0.00    -0.278 N 
HETATM   12  N   UNL     1       2.112  -0.508   6.489  1.00  0.00    -0.283 N 
ATOM     13  HN  UNL     1       0.052  -0.523   6.733  1.00  0.00     0.189 HD
ATOM     14  HN  UNL     1       2.258  -1.363   7.026  1.00  0.00     0.188 HD
BRANCH  10  15
HETATM   15  O   UNL     1      -0.629   1.564   5.407  1.00  0.00    -0.340 OA
HETATM   16  C   UNL     1      -1.614   0.705   5.986  1.00  0.00     0.211 C 
ENDBRANCH  10  15
ENDBRANCH   1   7
BRANCH   4  17
HETATM   17  C   UNL     1       6.462  -3.287   7.155  1.00  0.00     0.086 C 
HETATM   18  C   UNL     1       7.126  -4.058   6.012  1.00  0.00     0.032 C 
BRANCH  17  19
HETATM   19  C   UNL     1       7.376  -3.118   8.400  1.00  0.00     0.012 C 
HETATM   20  C   UNL     1       7.838  -4.462   8.993  1.00  0.00     0.033 C 
HETATM   21  C   UNL     1       6.706  -5.171   9.729  1.00  0.00     0.168 C 
HETATM   22  O   UNL     1       6.212  -4.340  10.777  1.00  0.00    -0.391 OA
HETATM   23  C   UNL     1       5.651  -3.124  10.284  1.00  0.00     0.168 C 
HETATM   24  C   UNL     1       6.698  -2.310   9.529  1.00  0.00     0.033 C 
ENDBRANCH  17  19
ENDBRANCH   4  17
TORSDOF 4
