REMARK  4 active torsions:
REMARK  status: ('A' for Active; 'I' for Inactive)
REMARK       I    between atoms: C_2  and  N_3 
REMARK       I    between atoms: C_2  and  N_12 
REMARK    1  A    between atoms: N_3  and  C_4 
REMARK    2  A    between atoms: C_4  and  C_5 
REMARK    3  A    between atoms: C_5  and  N_6 
REMARK    4  A    between atoms: N_12  and  C_13 
ROOT
HETATM    1  O   UNL     1       1.561   0.920  -0.668  1.00  0.00    -0.247 OA
HETATM    2  C   UNL     1       2.661   0.491  -0.320  1.00  0.00     0.321 C 
HETATM    3  N   UNL     1       3.186   0.700   0.915  1.00  0.00    -0.341 N 
HETATM    4  N   UNL     1       3.376  -0.262  -1.193  1.00  0.00    -0.295 N 
HETATM    5  H   UNL     1       4.008   0.140   1.125  1.00  0.00     0.164 HD
HETATM    6  H   UNL     1       2.880  -0.425  -2.056  1.00  0.00     0.172 HD
ENDROOT
BRANCH   3   7
HETATM    7  C   UNL     1       2.391   1.259   1.987  1.00  0.00     0.154 C 
BRANCH   7   8
HETATM    8  C   UNL     1       3.251   1.817   3.135  1.00  0.00     0.292 C 
BRANCH   8   9
HETATM    9  N   UNL     1       2.469   2.382   4.253  1.00  0.00     0.094 N 
HETATM   10  C   UNL     1       1.644   3.553   3.874  1.00  0.00     0.298 C 
HETATM   11  C   UNL     1       2.445   4.844   3.633  1.00  0.00     0.198 C 
HETATM   12  O   UNL     1       3.263   5.174   4.763  1.00  0.00    -0.388 OA
HETATM   13  C   UNL     1       4.141   4.089   5.089  1.00  0.00     0.198 C 
HETATM   14  C   UNL     1       3.350   2.799   5.370  1.00  0.00     0.298 C 
ENDBRANCH   8   9
ENDBRANCH   7   8
ENDBRANCH   3   7
BRANCH   4  15
HETATM   15  C   UNL     1       4.646  -0.823  -1.044  1.00  0.00     0.108 A 
HETATM   16  C   UNL     1       5.081  -1.692  -2.038  1.00  0.00     0.049 A 
HETATM   17  C   UNL     1       6.344  -2.269  -1.924  1.00  0.00     0.005 A 
HETATM   18  C   UNL     1       7.148  -1.935  -0.843  1.00  0.00     0.017 A 
HETATM   19  C   UNL     1       6.642  -1.054   0.095  1.00  0.00     0.089 A 
HETATM   20  N   UNL     1       5.404  -0.515   0.032  1.00  0.00    -0.352 N 
ATOM     21  HN  UNL     1       5.056   0.100   0.767  1.00  0.00     0.166 HD
ENDBRANCH   4  15
TORSDOF 4
