REMARK  5 active torsions:
REMARK  status: ('A' for Active; 'I' for Inactive)
REMARK    1  A    between atoms: N_2  and  S_4 
REMARK    2  A    between atoms: S_4  and  C_7 
REMARK    3  A    between atoms: N_12  and  C_13 
REMARK    4  A    between atoms: C_13  and  C_14 
REMARK       I    between atoms: C_14  and  N_16 
REMARK       I    between atoms: N_16  and  C_17 
REMARK       I    between atoms: C_17  and  N_19 
REMARK    5  A    between atoms: N_19  and  C_20 
ROOT
HETATM    1  C   UNL     1       4.812   1.054   1.304  1.00  0.00     0.090 A 
HETATM    2  C   UNL     1       5.614   2.182   0.880  1.00  0.00     0.032 A 
HETATM    3  C   UNL     1       6.942   2.063   0.739  1.00  0.00     0.076 A 
HETATM    4  C   UNL     1       7.605   0.753   0.984  1.00  0.00     0.247 A 
HETATM    5  O   UNL     1       8.799   0.609   0.737  1.00  0.00    -0.268 OA
HETATM    6  N   UNL     1       6.788  -0.265   1.469  1.00  0.00    -0.314 N 
HETATM    7  C   UNL     1       5.415  -0.106   1.617  1.00  0.00     0.119 A 
ENDROOT
BRANCH   6   8
HETATM    8  C   UNL     1       7.392  -1.578   1.686  1.00  0.00     0.234 C 
BRANCH   8   9
HETATM    9  C   UNL     1       7.139  -2.462   0.471  1.00  0.00     0.243 C 
HETATM   10  O   UNL     1       6.105  -3.129   0.375  1.00  0.00    -0.271 OA
HETATM   11  N   UNL     1       8.076  -2.361  -0.542  1.00  0.00    -0.278 N 
HETATM   12  C   UNL     1       8.114  -3.075  -1.723  1.00  0.00     0.323 C 
HETATM   13  H   UNL     1       8.874  -1.747  -0.419  1.00  0.00     0.173 HD
HETATM   14  O   UNL     1       9.071  -2.968  -2.482  1.00  0.00    -0.247 OA
HETATM   15  N   UNL     1       7.033  -3.886  -1.950  1.00  0.00    -0.338 N 
HETATM   16  H   UNL     1       6.328  -3.917  -1.216  1.00  0.00     0.164 HD
BRANCH  15  17
HETATM   17  C   UNL     1       6.883  -4.761  -3.063  1.00  0.00     0.086 A 
HETATM   18  C   UNL     1       6.137  -4.345  -4.298  1.00  0.00     0.027 A 
HETATM   19  C   UNL     1       5.519  -5.334  -3.356  1.00  0.00     0.027 A 
ENDBRANCH  15  17
ENDBRANCH   8   9
ENDBRANCH   6   8
BRANCH   1  20
HETATM   20  S   UNL     1       3.063   1.143   1.368  1.00  0.00     0.244 S 
HETATM   21  O   UNL     1       2.676   2.538   1.465  1.00  0.00    -0.206 OA
HETATM   22  O   UNL     1       2.562   0.192   2.345  1.00  0.00    -0.206 OA
BRANCH  20  23
HETATM   23  N   UNL     1       2.513   0.590  -0.170  1.00  0.00    -0.215 NA
HETATM   24  C   UNL     1       2.813  -0.830  -0.471  1.00  0.00     0.129 C 
HETATM   25  C   UNL     1       1.084   0.897  -0.422  1.00  0.00     0.129 C 
ENDBRANCH  20  23
ENDBRANCH   1  20
TORSDOF 5
