REMARK  4 active torsions:
REMARK  status: ('A' for Active; 'I' for Inactive)
REMARK    1  A    between atoms: C_2  and  C_3 
REMARK    2  A    between atoms: C_2  and  N_15 
REMARK    3  A    between atoms: C_3  and  N_4 
REMARK       I    between atoms: N_4  and  C_5 
REMARK       I    between atoms: C_5  and  N_7 
REMARK    4  A    between atoms: N_7  and  C_8 
ROOT
HETATM    1  N   UNL     1       4.332   1.817  -0.080  1.00  0.00    -0.341 N 
HETATM    2  C   UNL     1       4.958   2.830  -0.761  1.00  0.00     0.321 C 
HETATM    3  O   UNL     1       4.356   3.586  -1.515  1.00  0.00    -0.247 OA
HETATM    4  N   UNL     1       6.294   2.917  -0.457  1.00  0.00    -0.295 N 
HETATM    5  H   UNL     1       4.859   1.164   0.483  1.00  0.00     0.164 HD
HETATM    6  H   UNL     1       6.535   2.712   0.500  1.00  0.00     0.172 HD
ENDROOT
BRANCH   1   7
HETATM    7  C   UNL     1       2.887   1.729  -0.062  1.00  0.00     0.148 C 
BRANCH   7   8
HETATM    8  C   UNL     1       2.353   0.276  -0.025  1.00  0.00     0.092 C 
HETATM    9  C   UNL     1       0.841   0.341  -0.294  1.00  0.00     0.033 C 
BRANCH   8  10
HETATM   10  N   UNL     1       2.826  -0.515   1.134  1.00  0.00    -0.407 N 
HETATM   11  C   UNL     1       2.453  -1.938   1.122  1.00  0.00     0.117 C 
HETATM   12  C   UNL     1       1.064  -2.250   1.686  1.00  0.00     0.024 C 
HETATM   13  C   UNL     1       0.761  -1.563   3.026  1.00  0.00    -0.016 C 
HETATM   14  C   UNL     1       1.315  -2.378   4.194  1.00  0.00     0.010 C 
HETATM   15  C   UNL     1       1.271  -0.116   3.069  1.00  0.00     0.024 C 
HETATM   16  C   UNL     1       2.668   0.046   2.476  1.00  0.00     0.117 C 
ENDBRANCH   8  10
ENDBRANCH   7   8
ENDBRANCH   1   7
BRANCH   4  17
HETATM   17  C   UNL     1       7.104   3.913  -1.009  1.00  0.00     0.108 A 
HETATM   18  C   UNL     1       7.043   4.258  -2.352  1.00  0.00     0.049 A 
HETATM   19  C   UNL     1       7.845   5.295  -2.817  1.00  0.00     0.005 A 
HETATM   20  C   UNL     1       8.671   5.962  -1.922  1.00  0.00     0.017 A 
HETATM   21  C   UNL     1       8.686   5.535  -0.604  1.00  0.00     0.089 A 
HETATM   22  N   UNL     1       7.953   4.501  -0.135  1.00  0.00    -0.352 N 
ATOM     23  HN  UNL     1       8.036   4.180   0.830  1.00  0.00     0.166 HD
ENDBRANCH   4  17
TORSDOF 4
