REMARK  5 active torsions:
REMARK  status: ('A' for Active; 'I' for Inactive)
REMARK    1  A    between atoms: C_2  and  C_3 
REMARK    2  A    between atoms: C_2  and  N_10 
REMARK    3  A    between atoms: C_3  and  N_4 
REMARK       I    between atoms: N_10  and  C_11 
REMARK    4  A    between atoms: C_11  and  C_13 
REMARK    5  A    between atoms: C_13  and  N_14 
ROOT
HETATM    1  N   UNL     1       2.847   0.673   1.340  1.00  0.00    -0.354 N 
HETATM    2  C   UNL     1       2.461   0.174   2.572  1.00  0.00     0.237 C 
HETATM    3  O   UNL     1       1.512  -0.594   2.729  1.00  0.00    -0.272 OA
HETATM    4  H   UNL     1       3.801   1.016   1.265  1.00  0.00     0.162 HD
ENDROOT
BRANCH   2   5
HETATM    5  C   UNL     1       3.263   0.699   3.767  1.00  0.00     0.255 C 
BRANCH   5   6
HETATM    6  N   UNL     1       3.539  -0.393   4.690  1.00  0.00    -0.246 N 
HETATM    7  N   UNL     1       2.668  -0.526   5.782  1.00  0.00    -0.261 N 
HETATM    8  C   UNL     1       2.807  -1.514   6.718  1.00  0.00     0.260 A 
HETATM    9  H   UNL     1       1.824   0.035   5.820  1.00  0.00     0.190 HD
HETATM   10  O   UNL     1       2.049  -1.642   7.671  1.00  0.00    -0.267 OA
HETATM   11  C   UNL     1       3.935  -2.446   6.523  1.00  0.00     0.081 A 
HETATM   12  C   UNL     1       4.739  -2.347   5.461  1.00  0.00     0.081 A 
HETATM   13  C   UNL     1       4.563  -1.282   4.452  1.00  0.00     0.262 A 
HETATM   14  O   UNL     1       5.319  -1.222   3.489  1.00  0.00    -0.267 OA
ENDBRANCH   5   6
ENDBRANCH   2   5
BRANCH   1  15
HETATM   15  C   UNL     1       2.308   0.157   0.075  1.00  0.00     0.108 C 
HETATM   16  C   UNL     1       0.775   0.157   0.027  1.00  0.00     0.034 C 
BRANCH  15  17
HETATM   17  C   UNL     1       2.823   0.992  -1.135  1.00  0.00     0.297 C 
BRANCH  17  18
HETATM   18  N   UNL     1       4.291   1.056  -1.319  1.00  0.00     0.094 N 
HETATM   19  C   UNL     1       4.625   1.974  -2.446  1.00  0.00     0.298 C 
HETATM   20  C   UNL     1       4.273   1.419  -3.842  1.00  0.00     0.198 C 
HETATM   21  O   UNL     1       4.895   0.150  -4.071  1.00  0.00    -0.388 OA
HETATM   22  C   UNL     1       4.541  -0.790  -3.049  1.00  0.00     0.198 C 
HETATM   23  C   UNL     1       4.896  -0.259  -1.647  1.00  0.00     0.298 C 
ENDBRANCH  17  18
ENDBRANCH  15  17
ENDBRANCH   1  15
TORSDOF 5
