REMARK  3 active torsions:
REMARK  status: ('A' for Active; 'I' for Inactive)
REMARK    1  A    between atoms: C_7  and  N_8 
REMARK       I    between atoms: N_8  and  C_9 
REMARK    2  A    between atoms: C_9  and  C_11 
REMARK    3  A    between atoms: C_11  and  N_12 
ROOT
HETATM    1  N   UNL     1       2.548  -2.315   0.581  1.00  0.00    -0.355 N 
HETATM    2  C   UNL     1       3.294  -2.542   1.724  1.00  0.00     0.237 C 
HETATM    3  O   UNL     1       4.401  -2.041   1.911  1.00  0.00    -0.272 OA
HETATM    4  H   UNL     1       1.607  -2.698   0.565  1.00  0.00     0.162 HD
ENDROOT
BRANCH   2   5
HETATM    5  C   UNL     1       2.710  -3.598   2.652  1.00  0.00     0.255 C 
BRANCH   5   6
HETATM    6  N   UNL     1       1.332  -3.274   3.018  1.00  0.00    -0.248 N 
HETATM    7  N   UNL     1       0.332  -3.787   2.220  1.00  0.00    -0.305 N 
HETATM    8  C   UNL     1      -0.884  -3.561   2.603  1.00  0.00     0.133 A 
ATOM      9  HN  UNL     1       0.539  -4.316   1.373  1.00  0.00     0.186 HD
HETATM   10  C   UNL     1      -1.285  -2.810   3.799  1.00  0.00     0.078 A 
HETATM   11 CL   UNL     1      -2.965  -2.698   4.124  1.00  0.00    -0.081 Cl
HETATM   12  C   UNL     1      -0.311  -2.277   4.535  1.00  0.00     0.126 A 
HETATM   13 CL   UNL     1      -0.609  -1.367   5.973  1.00  0.00    -0.076 Cl
HETATM   14  C   UNL     1       1.112  -2.477   4.142  1.00  0.00     0.285 A 
HETATM   15  O   UNL     1       2.025  -1.978   4.797  1.00  0.00    -0.265 OA
ENDBRANCH   5   6
ENDBRANCH   2   5
BRANCH   1  16
HETATM   16  C   UNL     1       2.941  -1.310  -0.393  1.00  0.00     0.088 C 
HETATM   17  C   UNL     1       2.408   0.092  -0.024  1.00  0.00     0.004 C 
HETATM   18  C   UNL     1       0.879   0.146   0.109  1.00  0.00     0.012 C 
HETATM   19  C   UNL     1       2.908   1.115  -1.057  1.00  0.00     0.006 C 
HETATM   20  C   UNL     1       2.570   0.723  -2.496  1.00  0.00     0.001 C 
HETATM   21  C   UNL     1       3.032  -0.693  -2.834  1.00  0.00     0.002 C 
HETATM   22  C   UNL     1       2.547  -1.723  -1.814  1.00  0.00     0.025 C 
ENDBRANCH   1  16
TORSDOF 3
