REMARK  5 active torsions:
REMARK  status: ('A' for Active; 'I' for Inactive)
REMARK    1  A    between atoms: C_2  and  C_4 
REMARK    2  A    between atoms: C_4  and  N_5 
REMARK    3  A    between atoms: C_8  and  N_11 
REMARK       I    between atoms: N_11  and  C_12 
REMARK    4  A    between atoms: C_12  and  C_14 
REMARK    5  A    between atoms: C_14  and  C_15 
ROOT
HETATM    1  N   UNL     1       6.677   2.887  -0.237  1.00  0.00    -0.356 N 
HETATM    2  C   UNL     1       7.305   3.656   0.724  1.00  0.00     0.222 C 
HETATM    3  O   UNL     1       6.703   4.321   1.563  1.00  0.00    -0.273 OA
HETATM    4  H   UNL     1       7.233   2.184  -0.709  1.00  0.00     0.162 HD
ENDROOT
BRANCH   1   5
HETATM    5  C   UNL     1       5.222   2.733  -0.255  1.00  0.00     0.087 C 
HETATM    6  C   UNL     1       4.771   1.587   0.656  1.00  0.00     0.055 C 
HETATM    7  C   UNL     1       5.024   0.216   0.021  1.00  0.00     0.274 C 
HETATM    8  N   UNL     1       4.453   0.064  -1.329  1.00  0.00     0.088 N 
HETATM    9  C   UNL     1       4.947   1.131  -2.209  1.00  0.00     0.274 C 
HETATM   10  C   UNL     1       4.697   2.543  -1.681  1.00  0.00     0.055 C 
BRANCH   8  11
HETATM   11  C   UNL     1       2.983  -0.076  -1.287  1.00  0.00     0.276 C 
BRANCH  11  12
HETATM   12  C   UNL     1       2.299  -0.342  -2.649  1.00  0.00     0.006 C 
HETATM   13  C   UNL     1       2.810  -1.617  -3.320  1.00  0.00     0.011 C 
HETATM   14  C   UNL     1       0.778  -0.425  -2.477  1.00  0.00     0.011 C 
ENDBRANCH  11  12
ENDBRANCH   8  11
ENDBRANCH   1   5
BRANCH   2  15
HETATM   15  C   UNL     1       8.820   3.613   0.672  1.00  0.00     0.142 C 
BRANCH  15  16
HETATM   16  C   UNL     1       9.402   2.538   1.548  1.00  0.00    -0.034 A 
HETATM   17  C   UNL     1      10.194   1.517   1.021  1.00  0.00     0.011 A 
HETATM   18  C   UNL     1      10.712   0.537   1.867  1.00  0.00     0.025 A 
HETATM   19  C   UNL     1      10.431   0.606   3.227  1.00  0.00     0.005 A 
HETATM   20  C   UNL     1      10.936  -0.442   4.173  1.00  0.00     0.068 C 
HETATM   21  N   UNL     1       9.676   1.593   3.762  1.00  0.00    -0.369 N 
HETATM   22  C   UNL     1       9.185   2.532   2.921  1.00  0.00     0.095 A 
ATOM     23  HN  UNL     1       9.484   1.628   4.763  1.00  0.00     0.165 HD
ENDBRANCH  15  16
ENDBRANCH   2  15
TORSDOF 5
