REMARK  5 active torsions:
REMARK  status: ('A' for Active; 'I' for Inactive)
REMARK    1  A    between atoms: C_8  and  C_9 
REMARK    2  A    between atoms: C_9  and  N_10 
REMARK    3  A    between atoms: N_10  and  C_11 
REMARK    4  A    between atoms: C_11  and  C_12 
REMARK    5  A    between atoms: C_12  and  C_13 
ROOT
HETATM    1  N   UNL     1       0.700  -2.508   0.263  1.00  0.00     0.084 N 
HETATM    2  H   UNL     1       0.411  -1.638   0.714  1.00  0.00     0.315 HD
ENDROOT
BRANCH   1   3
HETATM    3  C   UNL     1       1.494  -2.178  -0.922  1.00  0.00     0.279 C 
BRANCH   3   4
HETATM    4  C   UNL     1       2.702  -1.248  -0.598  1.00  0.00     0.045 C 
HETATM    5  C   UNL     1       3.898  -1.933   0.150  1.00  0.00    -0.009 C 
HETATM    6  C   UNL     1       3.834  -3.467   0.251  1.00  0.00     0.011 C 
HETATM    7  C   UNL     1       4.326  -1.369   1.518  1.00  0.00     0.009 C 
HETATM    8  C   UNL     1       3.708  -0.074   2.020  1.00  0.00     0.028 C 
HETATM    9  C   UNL     1       2.716   0.588   1.136  1.00  0.00    -0.024 C 
HETATM   10  C   UNL     1       2.258   0.092  -0.022  1.00  0.00    -0.081 C 
HETATM   11  C   UNL     1       1.249   0.888  -0.818  1.00  0.00     0.043 C 
ENDBRANCH   3   4
ENDBRANCH   1   3
BRANCH   1  12
HETATM   12  C   UNL     1      -0.491  -3.291  -0.088  1.00  0.00     0.277 C 
BRANCH  12  13
HETATM   13  C   UNL     1      -1.286  -3.602   1.183  1.00  0.00     0.106 C 
BRANCH  13  14
HETATM   14  C   UNL     1      -2.492  -4.432   0.890  1.00  0.00     0.084 A 
HETATM   15  N   UNL     1      -3.682  -3.960   0.571  1.00  0.00    -0.354 N 
HETATM   16  C   UNL     1      -4.491  -5.055   0.426  1.00  0.00     0.106 A 
ATOM     17  HN  UNL     1      -3.945  -2.981   0.456  1.00  0.00     0.166 HD
HETATM   18  C   UNL     1      -3.787  -6.213   0.648  1.00  0.00     0.108 A 
HETATM   19  N   UNL     1      -2.514  -5.807   0.936  1.00  0.00    -0.350 N 
HETATM   20  C   UNL     1      -1.406  -6.678   1.239  1.00  0.00     0.156 C 
ENDBRANCH  13  14
ENDBRANCH  12  13
ENDBRANCH   1  12
TORSDOF 5
