REMARK  4 active torsions:
REMARK  status: ('A' for Active; 'I' for Inactive)
REMARK    1  A    between atoms: C_2  and  N_4 
REMARK    2  A    between atoms: C_6  and  N_7 
REMARK       I    between atoms: N_7  and  C_8 
REMARK       I    between atoms: C_8  and  N_10 
REMARK    3  A    between atoms: N_10  and  C_11 
REMARK    4  A    between atoms: C_11  and  C_12 
ROOT
HETATM    1  N   UNL     1       4.023   1.811  -4.220  1.00  0.00    -0.306 N 
HETATM    2  C   UNL     1       4.017   3.176  -4.032  1.00  0.00     0.320 C 
HETATM    3  O   UNL     1       3.731   3.763  -2.996  1.00  0.00    -0.247 OA
HETATM    4  N   UNL     1       4.358   3.867  -5.176  1.00  0.00    -0.341 N 
HETATM    5  H   UNL     1       4.403   1.442  -5.076  1.00  0.00     0.171 HD
HETATM    6  H   UNL     1       4.313   3.397  -6.067  1.00  0.00     0.164 HD
ENDROOT
BRANCH   1   7
HETATM    7  C   UNL     1       3.631   0.904  -3.249  1.00  0.00     0.070 A 
HETATM    8  C   UNL     1       3.095   1.178  -2.015  1.00  0.00     0.141 A 
HETATM    9  N   UNL     1       2.870  -0.020  -1.406  1.00  0.00    -0.297 N 
HETATM   10  N   UNL     1       3.218  -1.075  -2.171  1.00  0.00    -0.307 N 
HETATM   11  C   UNL     1       3.676  -0.507  -3.293  1.00  0.00     0.138 A 
ATOM     12  HN  UNL     1       3.149  -2.068  -1.948  1.00  0.00     0.186 HD
BRANCH   9  13
HETATM   13  C   UNL     1       2.309  -0.193  -0.070  1.00  0.00     0.099 C 
HETATM   14  C   UNL     1       1.024  -1.015  -0.099  1.00  0.00     0.034 C 
HETATM   15  C   UNL     1       3.336  -0.768   0.901  1.00  0.00     0.034 C 
ENDBRANCH   9  13
ENDBRANCH   1   7
BRANCH   4  16
HETATM   16  C   UNL     1       4.269   5.321  -5.196  1.00  0.00     0.144 C 
BRANCH  16  17
HETATM   17  C   UNL     1       2.929   5.888  -5.729  1.00  0.00     0.020 C 
HETATM   18  C   UNL     1       2.975   7.423  -5.639  1.00  0.00     0.028 C 
HETATM   19  C   UNL     1       1.664   5.354  -5.032  1.00  0.00     0.022 C 
HETATM   20  C   UNL     1       0.486   5.256  -6.010  1.00  0.00     0.012 C 
HETATM   21  C   UNL     1       0.896   5.675  -7.410  1.00  0.00     0.075 C 
HETATM   22  S   UNL     1       2.672   5.385  -7.470  1.00  0.00    -0.158 SA
ENDBRANCH  16  17
ENDBRANCH   4  16
TORSDOF 4
