REMARK  5 active torsions:
REMARK  status: ('A' for Active; 'I' for Inactive)
REMARK    1  A    between atoms: C_7  and  O_8 
REMARK    2  A    between atoms: O_8  and  C_9 
REMARK    3  A    between atoms: C_9  and  C_10 
REMARK    4  A    between atoms: C_10  and  N_11 
REMARK       I    between atoms: N_11  and  C_12 
REMARK       I    between atoms: C_12  and  N_14 
REMARK    5  A    between atoms: N_14  and  C_15 
ROOT
HETATM    1  N   UNL     1       2.929  -4.493   2.418  1.00  0.00    -0.341 N 
HETATM    2  C   UNL     1       2.501  -5.513   3.241  1.00  0.00     0.320 C 
HETATM    3  O   UNL     1       1.846  -5.300   4.254  1.00  0.00    -0.247 OA
HETATM    4  N   UNL     1       2.946  -6.739   2.807  1.00  0.00    -0.308 N 
HETATM    5  H   UNL     1       2.903  -4.704   1.429  1.00  0.00     0.164 HD
HETATM    6  H   UNL     1       3.744  -6.706   2.183  1.00  0.00     0.170 HD
ENDROOT
BRANCH   1   7
HETATM    7  C   UNL     1       2.504  -3.150   2.766  1.00  0.00     0.150 C 
BRANCH   7   8
HETATM    8  C   UNL     1       3.103  -2.089   1.859  1.00  0.00     0.188 C 
BRANCH   8   9
HETATM    9  O   UNL     1       2.548  -2.224   0.545  1.00  0.00    -0.384 OA
BRANCH   9  10
HETATM   10  C   UNL     1       3.048  -1.255  -0.385  1.00  0.00     0.125 C 
HETATM   11  C   UNL     1       2.688   0.196   0.007  1.00  0.00     0.010 C 
HETATM   12  C   UNL     1       1.193   0.377   0.307  1.00  0.00     0.012 C 
HETATM   13  C   UNL     1       3.175   1.173  -1.070  1.00  0.00     0.007 C 
HETATM   14  C   UNL     1       2.649   0.830  -2.460  1.00  0.00     0.001 C 
HETATM   15  C   UNL     1       2.952  -0.617  -2.840  1.00  0.00     0.002 C 
HETATM   16  C   UNL     1       2.497  -1.609  -1.773  1.00  0.00     0.032 C 
ENDBRANCH   9  10
ENDBRANCH   8   9
ENDBRANCH   7   8
ENDBRANCH   1   7
BRANCH   4  17
HETATM   17  C   UNL     1       2.658  -7.969   3.434  1.00  0.00     0.051 A 
HETATM   18  C   UNL     1       1.580  -8.153   4.299  1.00  0.00     0.032 A 
HETATM   19  C   UNL     1       1.396  -9.381   4.934  1.00  0.00     0.019 A 
HETATM   20  C   UNL     1       2.294 -10.397   4.666  1.00  0.00     0.088 A 
HETATM   21  N   UNL     1       3.326 -10.278   3.802  1.00  0.00    -0.373 N 
HETATM   22  C   UNL     1       3.478  -9.071   3.205  1.00  0.00     0.117 A 
ATOM     23  HN  UNL     1       3.957 -11.056   3.609  1.00  0.00     0.164 HD
ENDBRANCH   4  17
TORSDOF 5
