REMARK  6 active torsions:
REMARK  status: ('A' for Active; 'I' for Inactive)
REMARK    1  A    between atoms: C_7  and  O_8 
REMARK    2  A    between atoms: O_8  and  C_9 
REMARK    3  A    between atoms: C_9  and  C_10 
REMARK    4  A    between atoms: C_10  and  N_11 
REMARK       I    between atoms: N_11  and  C_12 
REMARK    5  A    between atoms: C_12  and  C_14 
REMARK    6  A    between atoms: C_14  and  N_15 
ROOT
HETATM    1  N   UNL     1       2.848  -4.564   2.398  1.00  0.00    -0.358 N 
HETATM    2  C   UNL     1       2.866  -5.601   3.304  1.00  0.00     0.236 C 
HETATM    3  O   UNL     1       2.664  -5.452   4.507  1.00  0.00    -0.272 OA
HETATM    4  H   UNL     1       3.003  -4.756   1.410  1.00  0.00     0.162 HD
ENDROOT
BRANCH   1   5
HETATM    5  C   UNL     1       2.407  -3.235   2.767  1.00  0.00     0.148 C 
BRANCH   5   6
HETATM    6  C   UNL     1       2.991  -2.162   1.853  1.00  0.00     0.187 C 
BRANCH   6   7
HETATM    7  O   UNL     1       2.435  -2.286   0.537  1.00  0.00    -0.384 OA
BRANCH   7   8
HETATM    8  C   UNL     1       2.972  -1.340  -0.399  1.00  0.00     0.125 C 
HETATM    9  C   UNL     1       2.636   0.123  -0.026  1.00  0.00     0.010 C 
HETATM   10  C   UNL     1       1.141   0.331   0.254  1.00  0.00     0.012 C 
HETATM   11  C   UNL     1       3.151   1.083  -1.105  1.00  0.00     0.007 C 
HETATM   12  C   UNL     1       2.634   0.739  -2.498  1.00  0.00     0.001 C 
HETATM   13  C   UNL     1       2.920  -0.715  -2.863  1.00  0.00     0.002 C 
HETATM   14  C   UNL     1       2.436  -1.693  -1.794  1.00  0.00     0.032 C 
ENDBRANCH   7   8
ENDBRANCH   6   7
ENDBRANCH   5   6
ENDBRANCH   1   5
BRANCH   2  15
HETATM   15  C   UNL     1       3.254  -6.952   2.709  1.00  0.00     0.235 C 
BRANCH  15  16
HETATM   16  N   UNL     1       4.708  -7.072   2.669  1.00  0.00    -0.301 N 
HETATM   17  C   UNL     1       5.381  -7.601   3.751  1.00  0.00     0.102 A 
HETATM   18  C   UNL     1       6.712  -7.671   3.783  1.00  0.00     0.092 A 
HETATM   19  C   UNL     1       7.478  -7.157   2.636  1.00  0.00     0.250 A 
HETATM   20  O   UNL     1       8.703  -7.162   2.640  1.00  0.00    -0.268 OA
HETATM   21  N   UNL     1       6.740  -6.672   1.596  1.00  0.00    -0.275 N 
HETATM   22  C   UNL     1       5.377  -6.561   1.564  1.00  0.00     0.329 A 
HETATM   23  H   UNL     1       7.246  -6.293   0.813  1.00  0.00     0.173 HD
HETATM   24  O   UNL     1       4.812  -6.025   0.613  1.00  0.00    -0.246 OA
ENDBRANCH  15  16
ENDBRANCH   2  15
TORSDOF 6
