REMARK  4 active torsions:
REMARK  status: ('A' for Active; 'I' for Inactive)
REMARK    1  A    between atoms: O_1  and  C_2 
REMARK    2  A    between atoms: C_6  and  C_7 
REMARK    3  A    between atoms: C_7  and  N_8 
REMARK       I    between atoms: N_8  and  C_9 
REMARK       I    between atoms: C_9  and  N_11 
REMARK    4  A    between atoms: N_11  and  C_12 
ROOT
HETATM    1  N   UNL     1       0.653   2.035   1.861  1.00  0.00    -0.342 N 
HETATM    2  C   UNL     1      -0.035   2.685   2.864  1.00  0.00     0.321 C 
HETATM    3  O   UNL     1       0.349   2.728   4.025  1.00  0.00    -0.247 OA
HETATM    4  N   UNL     1      -1.141   3.324   2.357  1.00  0.00    -0.295 N 
HETATM    5  H   UNL     1       0.058   1.541   1.211  1.00  0.00     0.164 HD
HETATM    6  H   UNL     1      -1.005   3.716   1.438  1.00  0.00     0.172 HD
ENDROOT
BRANCH   1   7
HETATM    7  C   UNL     1       1.954   1.450   2.144  1.00  0.00     0.131 C 
BRANCH   7   8
HETATM    8  C   UNL     1       2.780   1.258   0.863  1.00  0.00     0.032 C 
HETATM    9  C   UNL     1       4.213   0.805   1.141  1.00  0.00     0.123 C 
HETATM   10  C   UNL     1       4.958   2.083   1.520  1.00  0.00     0.032 C 
HETATM   11  C   UNL     1       4.213   3.218   0.816  1.00  0.00     0.003 C 
HETATM   12  C   UNL     1       3.031   2.567   0.102  1.00  0.00     0.009 C 
BRANCH   9  13
HETATM   13  O   UNL     1       4.288  -0.174   2.159  1.00  0.00    -0.395 OA
HETATM   14  H   UNL     1       5.229  -0.319   2.360  1.00  0.00     0.210 HD
ENDBRANCH   9  13
ENDBRANCH   7   8
ENDBRANCH   1   7
BRANCH   4  15
HETATM   15  C   UNL     1      -1.962   4.133   3.151  1.00  0.00     0.108 A 
HETATM   16  C   UNL     1      -2.385   3.729   4.410  1.00  0.00     0.049 A 
HETATM   17  C   UNL     1      -3.170   4.599   5.161  1.00  0.00     0.005 A 
HETATM   18  C   UNL     1      -3.480   5.849   4.642  1.00  0.00     0.017 A 
HETATM   19  C   UNL     1      -3.027   6.157   3.369  1.00  0.00     0.089 A 
HETATM   20  N   UNL     1      -2.307   5.312   2.597  1.00  0.00    -0.352 N 
ATOM     21  HN  UNL     1      -2.039   5.555   1.643  1.00  0.00     0.166 HD
ENDBRANCH   4  15
TORSDOF 4
