REMARK  4 active torsions:
REMARK  status: ('A' for Active; 'I' for Inactive)
REMARK    1  A    between atoms: N_6  and  C_7 
REMARK    2  A    between atoms: C_7  and  C_8 
REMARK       I    between atoms: C_8  and  N_10 
REMARK    3  A    between atoms: N_10  and  C_11 
REMARK    4  A    between atoms: C_11  and  C_12 
ROOT
HETATM    1  C   UNL     1       5.129  -3.199  -0.021  1.00  0.00     0.237 C 
HETATM    2  O   UNL     1       3.930  -3.474  -0.067  1.00  0.00    -0.272 OA
HETATM    3  N   UNL     1       6.118  -4.157  -0.044  1.00  0.00    -0.357 N 
HETATM    4  H   UNL     1       7.069  -3.897   0.205  1.00  0.00     0.162 HD
ENDROOT
BRANCH   1   5
HETATM    5  C   UNL     1       5.618  -1.773   0.009  1.00  0.00     0.251 C 
BRANCH   5   6
HETATM    6  N   UNL     1       5.704  -1.263   1.362  1.00  0.00    -0.288 N 
HETATM    7  C   UNL     1       4.749  -0.581   2.075  1.00  0.00     0.027 A 
HETATM    8  C   UNL     1       5.361  -0.215   3.255  1.00  0.00     0.052 A 
HETATM    9  C   UNL     1       3.367  -0.336   1.594  1.00  0.00     0.070 C 
HETATM   10  C   UNL     1       6.681  -0.705   3.163  1.00  0.00     0.024 A 
HETATM   11  C   UNL     1       7.775  -0.569   4.152  1.00  0.00     0.070 C 
HETATM   12  N   UNL     1       6.888  -1.346   2.007  1.00  0.00    -0.303 N 
ATOM     13  HN  UNL     1       7.745  -1.795   1.686  1.00  0.00     0.186 HD
ENDBRANCH   5   6
ENDBRANCH   1   5
BRANCH   3  14
HETATM   14  C   UNL     1       5.834  -5.580  -0.140  1.00  0.00     0.154 C 
BRANCH  14  15
HETATM   15  C   UNL     1       6.328  -6.369   1.075  1.00  0.00     0.139 C 
HETATM   16  C   UNL     1       5.751  -5.934   2.413  1.00  0.00     0.035 C 
HETATM   17  C   UNL     1       6.896  -6.098   3.392  1.00  0.00     0.029 C 
HETATM   18  C   UNL     1       8.061  -6.587   2.558  1.00  0.00     0.168 C 
HETATM   19  O   UNL     1       7.755  -6.240   1.205  1.00  0.00    -0.384 OA
ENDBRANCH  14  15
ENDBRANCH   3  14
TORSDOF 4
