REMARK  6 active torsions:
REMARK  status: ('A' for Active; 'I' for Inactive)
REMARK    1  A    between atoms: O_1  and  C_2 
REMARK    2  A    between atoms: C_2  and  C_3 
REMARK    3  A    between atoms: C_3  and  O_4 
REMARK    4  A    between atoms: O_4  and  C_5 
REMARK    5  A    between atoms: N_9  and  C_11 
REMARK    6  A    between atoms: C_13  and  C_18 
ROOT
HETATM    1  C   UNL     1       5.015   1.862   1.767  1.00  0.00     0.139 C 
HETATM    2  C   UNL     1       4.700   3.282   1.269  1.00  0.00     0.035 C 
HETATM    3  C   UNL     1       5.386   3.560  -0.073  1.00  0.00     0.022 C 
HETATM    4  C   UNL     1       6.893   3.331   0.034  1.00  0.00     0.124 C 
HETATM    5  N   UNL     1       7.174   1.984   0.526  1.00  0.00    -0.365 N 
HETATM    6  C   UNL     1       6.554   1.672   1.828  1.00  0.00     0.156 C 
ENDROOT
BRANCH   5   7
HETATM    7  C   UNL     1       7.497   0.915  -0.293  1.00  0.00     0.103 A 
HETATM    8  C   UNL     1       7.606   1.024  -1.677  1.00  0.00     0.064 A 
HETATM    9  C   UNL     1       7.972  -0.081  -2.466  1.00  0.00     0.052 A 
HETATM   10  C   UNL     1       8.231  -1.294  -1.835  1.00  0.00     0.033 A 
HETATM   11  C   UNL     1       8.111  -1.339  -0.466  1.00  0.00     0.090 A 
HETATM   12  N   UNL     1       7.761  -0.277   0.292  1.00  0.00    -0.352 N 
ATOM     13  HN  UNL     1       7.696  -0.373   1.305  1.00  0.00     0.166 HD
BRANCH   9  14
HETATM   14  C   UNL     1       8.082   0.038  -3.960  1.00  0.00     0.417 C 
HETATM   15  F   UNL     1       7.799   1.284  -4.433  1.00  0.00    -0.166 F 
HETATM   16  F   UNL     1       9.330  -0.259  -4.418  1.00  0.00    -0.166 F 
HETATM   17  F   UNL     1       7.236  -0.807  -4.612  1.00  0.00    -0.166 F 
ENDBRANCH   9  14
ENDBRANCH   5   7
BRANCH   1  18
HETATM   18  O   UNL     1       4.344   0.957   0.875  1.00  0.00    -0.382 OA
BRANCH  18  19
HETATM   19  C   UNL     1       4.399  -0.407   1.287  1.00  0.00     0.194 C 
BRANCH  19  20
HETATM   20  C   UNL     1       3.693  -1.267   0.246  1.00  0.00     0.190 C 
BRANCH  20  21
HETATM   21  O   UNL     1       3.780  -2.642   0.601  1.00  0.00    -0.399 OA
HETATM   22  H   UNL     1       3.357  -3.141  -0.117  1.00  0.00     0.209 HD
ENDBRANCH  20  21
ENDBRANCH  19  20
ENDBRANCH  18  19
ENDBRANCH   1  18
TORSDOF 6
