REMARK  5 active torsions:
REMARK  status: ('A' for Active; 'I' for Inactive)
REMARK    1  A    between atoms: C_2  and  O_3 
REMARK    2  A    between atoms: C_2  and  C_8 
REMARK    3  A    between atoms: O_3  and  C_4 
REMARK    4  A    between atoms: C_4  and  C_5 
REMARK       I    between atoms: C_8  and  N_10 
REMARK    5  A    between atoms: N_10  and  C_11 
ROOT
HETATM    1  C   UNL     1       2.961   0.792  -1.332  1.00  0.00     0.250 C 
HETATM    2  O   UNL     1       2.165   0.836  -2.269  1.00  0.00    -0.270 OA
HETATM    3  N   UNL     1       4.255   1.305  -1.396  1.00  0.00    -0.325 N 
HETATM    4  H   UNL     1       4.933   0.931  -0.750  1.00  0.00     0.169 HD
ENDROOT
BRANCH   1   5
HETATM    5  C   UNL     1       2.615   0.127   0.021  1.00  0.00     0.209 C 
HETATM    6  C   UNL     1       1.090   0.094   0.143  1.00  0.00     0.050 C 
BRANCH   5   7
HETATM    7  O   UNL     1       3.082  -1.212   0.203  1.00  0.00    -0.376 OA
BRANCH   7   8
HETATM    8  C   UNL     1       4.497  -1.324   0.286  1.00  0.00     0.173 C 
BRANCH   8   9
HETATM    9  C   UNL     1       4.891  -2.732   0.587  1.00  0.00     0.009 A 
HETATM   10  C   UNL     1       6.361  -3.074   0.648  1.00  0.00     0.007 A 
HETATM   11  C   UNL     1       5.519  -3.596  -0.481  1.00  0.00     0.007 A 
ENDBRANCH   8   9
ENDBRANCH   7   8
ENDBRANCH   5   7
ENDBRANCH   1   5
BRANCH   3  12
HETATM   12  C   UNL     1       4.761   1.846  -2.592  1.00  0.00     0.037 A 
HETATM   13  C   UNL     1       4.039   2.791  -3.307  1.00  0.00     0.046 A 
HETATM   14  C   UNL     1       4.577   3.258  -4.492  1.00  0.00     0.090 A 
HETATM   15  N   UNL     1       5.753   2.830  -4.999  1.00  0.00    -0.375 N 
HETATM   16  C   UNL     1       6.427   1.907  -4.278  1.00  0.00     0.090 A 
ATOM     17  HN  UNL     1       6.115   3.186  -5.884  1.00  0.00     0.164 HD
HETATM   18  C   UNL     1       5.999   1.418  -3.057  1.00  0.00     0.046 A 
ENDBRANCH   3  12
TORSDOF 5
