REMARK  3 active torsions:
REMARK  status: ('A' for Active; 'I' for Inactive)
REMARK    1  A    between atoms: C_8  and  N_9 
REMARK       I    between atoms: N_9  and  C_10 
REMARK       I    between atoms: C_10  and  N_12 
REMARK    2  A    between atoms: N_12  and  C_13 
REMARK    3  A    between atoms: C_13  and  C_14 
REMARK       I    between atoms: C_14  and  N_16 
ROOT
HETATM    1  N   UNL     1       2.111  -2.345  -0.192  1.00  0.00    -0.308 N 
HETATM    2  C   UNL     1       0.740  -2.500  -0.247  1.00  0.00     0.321 C 
HETATM    3  O   UNL     1      -0.081  -1.594  -0.367  1.00  0.00    -0.247 OA
HETATM    4  N   UNL     1       0.290  -3.795  -0.126  1.00  0.00    -0.334 N 
HETATM    5  H   UNL     1       2.663  -3.181  -0.071  1.00  0.00     0.170 HD
HETATM    6  H   UNL     1       0.882  -4.576  -0.373  1.00  0.00     0.164 HD
ENDROOT
BRANCH   1   7
HETATM    7  C   UNL     1       2.805  -1.089  -0.240  1.00  0.00     0.044 A 
HETATM    8  C   UNL     1       4.208  -1.024  -0.154  1.00  0.00    -0.020 A 
HETATM    9  C   UNL     1       5.116  -2.208  -0.004  1.00  0.00     0.052 C 
HETATM   10  C   UNL     1       4.804   0.243  -0.192  1.00  0.00     0.096 A 
HETATM   11  N   UNL     1       4.136   1.414  -0.308  1.00  0.00    -0.375 N 
HETATM   12  C   UNL     1       2.803   1.323  -0.391  1.00  0.00     0.090 A 
ATOM     13  HN  UNL     1       4.619   2.312  -0.331  1.00  0.00     0.164 HD
HETATM   14  C   UNL     1       2.113   0.121  -0.363  1.00  0.00     0.047 A 
ENDBRANCH   1   7
BRANCH   4  15
HETATM   15  C   UNL     1      -1.157  -3.982  -0.251  1.00  0.00     0.227 C 
BRANCH  15  16
HETATM   16  C   UNL     1      -1.688  -5.415  -0.170  1.00  0.00     0.237 C 
HETATM   17  O   UNL     1      -0.926  -6.374  -0.034  1.00  0.00    -0.272 OA
HETATM   18  N   UNL     1      -3.063  -5.557  -0.292  1.00  0.00    -0.351 N 
HETATM   19  C   UNL     1      -4.048  -4.495  -0.455  1.00  0.00     0.126 C 
HETATM   20  C   UNL     1      -3.718  -6.849  -0.231  1.00  0.00     0.126 C 
HETATM   21  C   UNL     1      -5.359  -5.199  -0.809  1.00  0.00     0.021 C 
HETATM   22  C   UNL     1      -4.970  -6.651  -1.067  1.00  0.00     0.021 C 
ENDBRANCH  15  16
ENDBRANCH   4  15
TORSDOF 3
