REMARK  3 active torsions:
REMARK  status: ('A' for Active; 'I' for Inactive)
REMARK    1  A    between atoms: C_5  and  N_8 
REMARK    2  A    between atoms: C_11  and  N_14 
REMARK       I    between atoms: N_14  and  C_15 
REMARK       I    between atoms: C_15  and  N_17 
REMARK    3  A    between atoms: N_17  and  C_18 
ROOT
HETATM    1  N   UNL     1       6.656  -0.855  -5.841  1.00  0.00    -0.338 N 
HETATM    2  C   UNL     1       7.216  -0.121  -6.863  1.00  0.00     0.322 C 
HETATM    3  O   UNL     1       6.549   0.572  -7.623  1.00  0.00    -0.247 OA
HETATM    4  N   UNL     1       8.575  -0.316  -6.935  1.00  0.00    -0.295 N 
HETATM    5  H   UNL     1       7.246  -0.951  -5.025  1.00  0.00     0.164 HD
HETATM    6  H   UNL     1       8.869  -1.265  -6.760  1.00  0.00     0.172 HD
ENDROOT
BRANCH   1   7
HETATM    7  C   UNL     1       5.208  -0.831  -5.642  1.00  0.00     0.089 C 
HETATM    8  C   UNL     1       4.747   0.461  -4.955  1.00  0.00     0.055 C 
HETATM    9  C   UNL     1       5.039   0.433  -3.455  1.00  0.00     0.275 C 
HETATM   10  N   UNL     1       4.462  -0.737  -2.765  1.00  0.00     0.093 N 
HETATM   11  C   UNL     1       5.021  -1.956  -3.378  1.00  0.00     0.275 C 
HETATM   12  C   UNL     1       4.741  -2.072  -4.876  1.00  0.00     0.055 C 
BRANCH  10  13
HETATM   13  C   UNL     1       2.974  -0.716  -2.678  1.00  0.00     0.226 C 
HETATM   14  C   UNL     1       2.425   0.522  -1.930  1.00  0.00     0.066 C 
HETATM   15  C   UNL     1       2.744   0.480  -0.434  1.00  0.00     0.274 C 
HETATM   16  N   UNL     1       2.254  -0.730   0.243  1.00  0.00     0.084 N 
HETATM   17  C   UNL     1       0.804  -0.715   0.422  1.00  0.00     0.309 C 
HETATM   18  C   UNL     1       2.716  -1.938  -0.458  1.00  0.00     0.274 C 
HETATM   19  C   UNL     1       2.380  -1.945  -1.952  1.00  0.00     0.066 C 
ENDBRANCH  10  13
ENDBRANCH   1   7
BRANCH   4  20
HETATM   20  C   UNL     1       9.325   0.287  -7.950  1.00  0.00     0.109 A 
HETATM   21  C   UNL     1       9.176   1.632  -8.258  1.00  0.00     0.049 A 
HETATM   22  C   UNL     1       9.897   2.153  -9.324  1.00  0.00     0.006 A 
HETATM   23  C   UNL     1      10.716   1.307 -10.061  1.00  0.00     0.025 A 
HETATM   24  C   UNL     1      10.817  -0.028  -9.682  1.00  0.00     0.007 A 
HETATM   25  C   UNL     1      11.596  -1.001 -10.514  1.00  0.00     0.068 C 
HETATM   26  N   UNL     1      10.172  -0.535  -8.604  1.00  0.00    -0.346 N 
ATOM     27  HN  UNL     1      10.320  -1.497  -8.300  1.00  0.00     0.167 HD
ENDBRANCH   4  20
TORSDOF 3
