REMARK  4 active torsions:
REMARK  status: ('A' for Active; 'I' for Inactive)
REMARK    1  A    between atoms: C_5  and  C_14 
REMARK    2  A    between atoms: C_6  and  C_11 
REMARK    3  A    between atoms: C_7  and  O_8 
REMARK    4  A    between atoms: C_11  and  O_13 
ROOT
HETATM    1  C   UNL     2       1.243   0.358  -0.266  1.00  0.00     0.153 C 
HETATM    2  N   UNL     2       2.686   0.237  -0.318  1.00  0.00    -0.344 N 
HETATM    3  C   UNL     2       3.401  -1.017  -0.414  1.00  0.00     0.140 C 
HETATM    4  C   UNL     2       4.824  -0.616  -0.917  1.00  0.00     0.149 C 
HETATM    5  C   UNL     2       4.778   0.919  -1.142  1.00  0.00     0.226 C 
HETATM    6  C   UNL     2       3.460   1.302  -0.582  1.00  0.00     0.249 C 
HETATM    7  O   UNL     2       3.042   2.451  -0.572  1.00  0.00    -0.270 OA
ENDROOT
BRANCH   3   8
HETATM    8  C   UNL     2       3.515  -1.730   0.928  1.00  0.00    -0.000 A 
HETATM    9  C   UNL     2       4.153  -1.254   2.071  1.00  0.00     0.118 A 
HETATM   10  N   UNL     2       4.096  -2.180   3.036  1.00  0.00    -0.310 N 
HETATM   11  N   UNL     2       3.439  -3.227   2.559  1.00  0.00    -0.307 N 
ATOM     12  HN  UNL     2       4.489  -2.095   3.973  1.00  0.00     0.186 HD
HETATM   13  C   UNL     2       3.187  -4.441   3.336  1.00  0.00     0.177 C 
HETATM   14  C   UNL     2       3.070  -2.992   1.285  1.00  0.00     0.120 A 
ENDBRANCH   3   8
BRANCH   4  15
HETATM   15  C   UNL     2       5.276  -1.431  -2.113  1.00  0.00     0.149 C 
HETATM   16  O   UNL     2       4.602  -1.450  -3.133  1.00  0.00    -0.650 OA
BRANCH  15  17
HETATM   17  O   UNL     2       6.416  -2.152  -2.073  1.00  0.00    -0.776 OA
HETATM   18  H   UNL     2       6.989  -2.158  -1.295  1.00  0.00     0.167 HD
ENDBRANCH  15  17
ENDBRANCH   4  15
BRANCH   5  19
HETATM   19  O   UNL     2       4.803   1.273  -2.506  1.00  0.00    -0.385 OA
HETATM   20  H   UNL     2       3.936   1.009  -2.921  1.00  0.00     0.210 HD
ENDBRANCH   5  19
TORSDOF 4
