REMARK  2 active torsions:
REMARK  status: ('A' for Active; 'I' for Inactive)
REMARK    1  A    between atoms: C_5  and  N_11 
REMARK       I    between atoms: N_11  and  C_12 
REMARK       I    between atoms: C_12  and  N_14 
REMARK    2  A    between atoms: N_14  and  C_15 
ROOT
HETATM    1  N   UNL     1       3.106   1.766  -3.271  1.00  0.00    -0.338 N 
HETATM    2  C   UNL     1       2.531   1.980  -4.506  1.00  0.00     0.322 C 
HETATM    3  O   UNL     1       1.632   1.279  -4.953  1.00  0.00    -0.247 OA
HETATM    4  N   UNL     1       3.042   3.109  -5.100  1.00  0.00    -0.295 N 
HETATM    5  H   UNL     1       4.093   1.978  -3.214  1.00  0.00     0.164 HD
HETATM    6  H   UNL     1       3.266   3.850  -4.452  1.00  0.00     0.172 HD
ENDROOT
BRANCH   1   7
HETATM    7  C   UNL     1       2.562   0.756  -2.368  1.00  0.00     0.091 C 
HETATM    8  C   UNL     1       2.969   1.057  -0.926  1.00  0.00     0.066 C 
HETATM    9  C   UNL     1       2.415   0.017   0.068  1.00  0.00     0.153 C 
HETATM   10  C   UNL     1       0.911   0.222   0.330  1.00  0.00     0.048 C 
HETATM   11  C   UNL     1       3.127   0.216   1.425  1.00  0.00     0.048 C 
HETATM   12  N   UNL     1       2.710  -1.361  -0.367  1.00  0.00     0.101 N 
HETATM   13  C   UNL     1       2.437  -1.715  -1.774  1.00  0.00     0.153 C 
HETATM   14  H   UNL     1       3.693  -1.559  -0.170  1.00  0.00     0.317 HD
HETATM   15  C   UNL     1       3.008  -0.660  -2.744  1.00  0.00     0.066 C 
HETATM   16  C   UNL     1       0.938  -1.964  -2.028  1.00  0.00     0.048 C 
HETATM   17  C   UNL     1       3.153  -3.060  -2.033  1.00  0.00     0.048 C 
ENDBRANCH   1   7
BRANCH   4  18
HETATM   18  C   UNL     1       2.530   3.604  -6.303  1.00  0.00     0.108 A 
HETATM   19  C   UNL     1       2.252   2.768  -7.383  1.00  0.00     0.052 A 
HETATM   20  C   UNL     1       1.690   3.326  -8.532  1.00  0.00     0.047 A 
HETATM   21  C   UNL     1       1.407   4.682  -8.547  1.00  0.00     0.131 A 
HETATM   22  F   UNL     1       0.826   5.241  -9.615  1.00  0.00    -0.205 F 
HETATM   23  C   UNL     1       1.736   5.442  -7.440  1.00  0.00     0.132 A 
HETATM   24  N   UNL     1       2.328   4.939  -6.328  1.00  0.00    -0.349 N 
ATOM     25  HN  UNL     1       2.606   5.538  -5.551  1.00  0.00     0.167 HD
ENDBRANCH   4  18
TORSDOF 2
