REMARK  5 active torsions:
REMARK  status: ('A' for Active; 'I' for Inactive)
REMARK    1  A    between atoms: N_2  and  C_4 
REMARK    2  A    between atoms: N_7  and  C_10 
REMARK    3  A    between atoms: C_10  and  C_13 
REMARK    4  A    between atoms: C_13  and  N_14 
REMARK       I    between atoms: N_14  and  C_15 
REMARK       I    between atoms: C_15  and  N_17 
REMARK    5  A    between atoms: N_17  and  C_18 
ROOT
HETATM    1  C   UNL     1       2.409  -5.828  -0.853  1.00  0.00     0.154 C 
ENDROOT
BRANCH   1   2
HETATM    2  C   UNL     1       3.483  -4.690  -0.610  1.00  0.00     0.036 C 
HETATM    3  C   UNL     1       4.004  -4.243  -1.996  1.00  0.00     0.039 C 
HETATM    4  C   UNL     1       4.685  -5.325   0.143  1.00  0.00     0.039 C 
BRANCH   2   5
HETATM    5  N   UNL     1       2.875  -3.599   0.213  1.00  0.00    -0.403 N 
HETATM    6  C   UNL     1       1.724  -2.864  -0.322  1.00  0.00     0.119 C 
HETATM    7  C   UNL     1       2.098  -1.663  -1.193  1.00  0.00     0.055 C 
HETATM    8  C   UNL     1       3.053  -0.663  -0.497  1.00  0.00     0.225 C 
HETATM    9  C   UNL     1       4.224  -1.483   0.093  1.00  0.00     0.055 C 
HETATM   10  C   UNL     1       3.748  -2.666   0.937  1.00  0.00     0.119 C 
BRANCH   8  11
HETATM   11  N   UNL     1       2.392   0.217   0.510  1.00  0.00     0.084 N 
HETATM   12  C   UNL     1       3.340   1.190   1.081  1.00  0.00     0.309 C 
HETATM   13  C   UNL     1       1.277   0.985  -0.064  1.00  0.00     0.309 C 
ENDBRANCH   8  11
ENDBRANCH   2   5
ENDBRANCH   1   2
BRANCH   1  14
HETATM   14  N   UNL     1       2.885  -6.922  -1.694  1.00  0.00    -0.341 N 
HETATM   15  C   UNL     1       3.398  -8.083  -1.166  1.00  0.00     0.320 C 
HETATM   16  O   UNL     1       3.338  -8.367   0.022  1.00  0.00    -0.247 OA
HETATM   17  N   UNL     1       4.078  -8.795  -2.131  1.00  0.00    -0.308 N 
HETATM   18  H   UNL     1       4.482  -8.207  -2.846  1.00  0.00     0.170 HD
HETATM   19  H   UNL     1       2.524  -6.984  -2.637  1.00  0.00     0.164 HD
BRANCH  17  20
HETATM   20  C   UNL     1       4.767  -9.984  -1.826  1.00  0.00     0.051 A 
HETATM   21  C   UNL     1       6.032 -10.190  -2.372  1.00  0.00     0.032 A 
HETATM   22  C   UNL     1       6.745 -11.337  -2.029  1.00  0.00     0.019 A 
HETATM   23  C   UNL     1       6.142 -12.263  -1.193  1.00  0.00     0.088 A 
HETATM   24  N   UNL     1       4.903 -12.117  -0.680  1.00  0.00    -0.373 N 
HETATM   25  C   UNL     1       4.249 -10.971  -0.991  1.00  0.00     0.117 A 
ATOM     26  HN  UNL     1       4.480 -12.832  -0.088  1.00  0.00     0.164 HD
ENDBRANCH  17  20
ENDBRANCH   1  14
TORSDOF 5
