REMARK  7 active torsions:
REMARK  status: ('A' for Active; 'I' for Inactive)
REMARK       I    between atoms: C_2  and  N_4 
REMARK    1  A    between atoms: N_4  and  C_5 
REMARK    2  A    between atoms: C_5  and  C_6 
REMARK    3  A    between atoms: C_6  and  C_7 
REMARK    4  A    between atoms: N_16  and  C_17 
REMARK    5  A    between atoms: C_17  and  C_18 
REMARK    6  A    between atoms: C_18  and  O_19 
REMARK    7  A    between atoms: O_19  and  C_20 
ROOT
HETATM    1  C   UNL     1       6.752  -1.802   2.157  1.00  0.00     0.086 A 
HETATM    2  N   UNL     1       7.458  -0.819   2.673  1.00  0.00    -0.344 N 
ATOM      3  HN  UNL     1       7.099   0.025   3.119  1.00  0.00     0.167 HD
HETATM    4  C   UNL     1       8.767  -1.157   2.491  1.00  0.00     0.060 A 
HETATM    5  C   UNL     1       9.914  -0.433   2.851  1.00  0.00     0.032 A 
HETATM    6  C   UNL     1      11.177  -0.961   2.572  1.00  0.00     0.002 A 
HETATM    7  C   UNL     1      11.294  -2.194   1.946  1.00  0.00     0.002 A 
HETATM    8  C   UNL     1      10.160  -2.928   1.579  1.00  0.00     0.032 A 
HETATM    9  C   UNL     1       8.887  -2.395   1.856  1.00  0.00     0.062 A 
HETATM   10  N   UNL     1       7.577  -2.802   1.657  1.00  0.00    -0.333 N 
ENDROOT
BRANCH  10  11
HETATM   11  C   UNL     1       7.070  -4.032   1.051  1.00  0.00     0.157 C 
BRANCH  11  12
HETATM   12  C   UNL     1       8.125  -5.023   0.588  1.00  0.00     0.196 C 
BRANCH  12  13
HETATM   13  O   UNL     1       7.577  -6.217   0.025  1.00  0.00    -0.350 OA
BRANCH  13  14
HETATM   14  C   UNL     1       8.528  -7.086  -0.467  1.00  0.00     0.068 A 
HETATM   15  C   UNL     1       9.916  -6.912  -0.377  1.00  0.00     0.037 A 
HETATM   16  C   UNL     1      10.793  -7.849  -0.932  1.00  0.00     0.003 A 
HETATM   17  C   UNL     1      10.288  -8.972  -1.576  1.00  0.00     0.000 A 
HETATM   18  C   UNL     1       8.909  -9.162  -1.660  1.00  0.00     0.003 A 
HETATM   19  C   UNL     1       8.033  -8.223  -1.106  1.00  0.00     0.037 A 
ENDBRANCH  13  14
ENDBRANCH  12  13
ENDBRANCH  11  12
ENDBRANCH  10  11
BRANCH   1  20
HETATM   20  C   UNL     1       5.256  -1.845   2.135  1.00  0.00     0.096 C 
BRANCH  20  21
HETATM   21  C   UNL     1       4.657  -0.439   1.999  1.00  0.00     0.130 C 
BRANCH  21  22
HETATM   22  N   UNL     1       3.202  -0.441   1.982  1.00  0.00    -0.361 N 
HETATM   23  C   UNL     1       2.493  -1.003   0.943  1.00  0.00     0.213 C 
HETATM   24  C   UNL     1       1.004  -0.854   1.088  1.00  0.00     0.117 C 
HETATM   25  O   UNL     1       3.008  -1.594  -0.001  1.00  0.00    -0.274 OA
HETATM   26  H   UNL     1       2.723   0.200   2.602  1.00  0.00     0.162 HD
ENDBRANCH  21  22
ENDBRANCH  20  21
ENDBRANCH   1  20
TORSDOF 7
