REMARK  8 active torsions:
REMARK  status: ('A' for Active; 'I' for Inactive)
REMARK    1  A    between atoms: N_1  and  C_4 
REMARK    2  A    between atoms: C_8  and  N_10 
REMARK       I    between atoms: N_10  and  C_12 
REMARK    3  A    between atoms: C_12  and  C_25 
REMARK    4  A    between atoms: C_13  and  C_20 
REMARK    5  A    between atoms: C_18  and  O_26 
REMARK    6  A    between atoms: SI_19  and  O_22 
REMARK    7  A    between atoms: SI_19  and  C_23 
REMARK    8  A    between atoms: C_20  and  O_22 
ROOT
HETATM    1  N   UNL     1       1.449   1.105   0.123  1.00  0.00    -0.300 N 
HETATM    2  C   UNL     1       0.442   0.567  -0.632  1.00  0.00     0.142 A 
HETATM    3  C   UNL     1       0.362  -0.765  -0.245  1.00  0.00     0.122 A 
HETATM    4  N   UNL     1       1.306  -1.050   0.719  1.00  0.00    -0.346 N 
ATOM      5  HN  UNL     1       1.473  -1.942   1.184  1.00  0.00     0.167 HD
HETATM    6  C   UNL     1       1.945   0.088   0.906  1.00  0.00     0.188 A 
HETATM    7  C   UNL     1      -0.611  -1.553  -0.886  1.00  0.00     0.140 A 
HETATM    8  N   UNL     1      -0.302   1.180  -1.566  1.00  0.00    -0.336 N 
ATOM      9  HN  UNL     1      -0.200   2.160  -1.831  1.00  0.00     0.168 HD
HETATM   10  N   UNL     1      -1.385  -0.968  -1.826  1.00  0.00    -0.337 N 
ATOM     11  HN  UNL     1      -2.100  -1.507  -2.315  1.00  0.00     0.168 HD
HETATM   12  C   UNL     1      -1.200   0.336  -2.109  1.00  0.00     0.183 A 
ENDROOT
BRANCH   1  13
HETATM   13  C   UNL     1       2.042   2.421  -0.013  1.00  0.00     0.233 C 
HETATM   14  O   UNL     1       2.622   2.821   1.252  1.00  0.00    -0.356 OA
HETATM   15  C   UNL     1       2.458   4.257   1.409  1.00  0.00     0.179 C 
HETATM   16  C   UNL     1       1.944   4.776   0.066  1.00  0.00     0.153 C 
HETATM   17  C   UNL     1       1.158   3.584  -0.446  1.00  0.00     0.088 C 
BRANCH  15  18
HETATM   18  C   UNL     1       3.783   4.836   1.916  1.00  0.00     0.244 C 
BRANCH  18  19
HETATM   19  O   UNL     1       3.756   6.254   2.073  1.00  0.00    -0.238 OA
BRANCH  19  20
HETATM   20 SI   UNL     1       5.210   7.001   2.503  1.00  0.00     0.000 Si
HETATM   21  C   UNL     1       5.844   6.359   4.156  1.00  0.00     0.000 C 
HETATM   22  C   UNL     1       6.534   6.735   1.186  1.00  0.00     0.000 C 
BRANCH  20  23
HETATM   23  C   UNL     1       4.994   9.055   2.691  1.00  0.00    -0.045 C 
HETATM   24  C   UNL     1       3.930   9.373   3.760  1.00  0.00     0.015 C 
HETATM   25  C   UNL     1       6.350   9.664   3.115  1.00  0.00     0.015 C 
HETATM   26  C   UNL     1       4.564   9.640   1.331  1.00  0.00     0.015 C 
ENDBRANCH  20  23
ENDBRANCH  19  20
ENDBRANCH  18  19
ENDBRANCH  15  18
BRANCH  16  27
HETATM   27  O   UNL     1       2.969   5.089  -0.878  1.00  0.00    -0.393 OA
HETATM   28  H   UNL     1       3.698   4.452  -0.806  1.00  0.00     0.210 HD
ENDBRANCH  16  27
ENDBRANCH   1  13
BRANCH   7  29
HETATM   29  N   UNL     1      -0.738  -2.916  -0.559  1.00  0.00    -0.307 N 
HETATM   30  C   UNL     1      -1.707  -3.750  -1.087  1.00  0.00     0.257 C 
HETATM   31  O   UNL     1      -2.613  -3.421  -1.844  1.00  0.00    -0.267 OA
HETATM   32  H   UNL     1      -0.103  -3.249   0.153  1.00  0.00     0.170 HD
BRANCH  30  33
HETATM   33  C   UNL     1      -1.653  -5.181  -0.667  1.00  0.00     0.032 A 
HETATM   34  C   UNL     1      -2.861  -5.895  -0.623  1.00  0.00     0.017 A 
HETATM   35  C   UNL     1      -2.871  -7.254  -0.302  1.00  0.00     0.001 A 
HETATM   36  C   UNL     1      -1.673  -7.911  -0.034  1.00  0.00     0.000 A 
HETATM   37  C   UNL     1      -0.467  -7.211  -0.083  1.00  0.00     0.001 A 
HETATM   38  C   UNL     1      -0.452  -5.846  -0.398  1.00  0.00     0.017 A 
ENDBRANCH  30  33
ENDBRANCH   7  29
TORSDOF 8
