REMARK  3 active torsions:
REMARK  status: ('A' for Active; 'I' for Inactive)
REMARK       I    between atoms: N_5  and  C_9 
REMARK       I    between atoms: C_9  and  N_11 
REMARK    1  A    between atoms: N_11  and  C_12 
REMARK    2  A    between atoms: C_12  and  C_13 
REMARK    3  A    between atoms: C_13  and  C_14 
ROOT
HETATM    1  C   UNL     1       1.092   0.118   0.073  1.00  0.00     0.010 C 
HETATM    2  C   UNL     1       2.615   0.065  -0.074  1.00  0.00    -0.015 C 
HETATM    3  C   UNL     1       3.133   1.075  -1.103  1.00  0.00     0.024 C 
HETATM    4  C   UNL     1       2.858   0.654  -2.549  1.00  0.00     0.128 C 
HETATM    5  N   UNL     1       3.325  -0.715  -2.824  1.00  0.00    -0.330 N 
HETATM    6  C   UNL     1       2.771  -1.730  -1.894  1.00  0.00     0.085 C 
HETATM    7  C   UNL     1       3.155  -3.197  -2.106  1.00  0.00     0.032 C 
HETATM    8  C   UNL     1       3.106  -1.342  -0.441  1.00  0.00     0.029 C 
HETATM    9  C   UNL     1       4.187  -1.054  -3.861  1.00  0.00     0.318 C 
HETATM   10  O   UNL     1       4.628  -2.182  -4.062  1.00  0.00    -0.247 OA
HETATM   11  N   UNL     1       4.569  -0.024  -4.682  1.00  0.00    -0.343 N 
HETATM   12  H   UNL     1       3.852   0.662  -4.875  1.00  0.00     0.164 HD
ENDROOT
BRANCH  11  13
HETATM   13  C   UNL     1       5.470  -0.269  -5.804  1.00  0.00     0.132 C 
BRANCH  13  14
HETATM   14  C   UNL     1       4.736  -0.696  -7.077  1.00  0.00     0.106 C 
BRANCH  14  15
HETATM   15  C   UNL     1       3.881   0.406  -7.580  1.00  0.00     0.149 A 
HETATM   16  N   UNL     1       2.887   1.024  -6.980  1.00  0.00    -0.327 N 
HETATM   17  C   UNL     1       2.523   1.958  -7.916  1.00  0.00     0.100 A 
ATOM     18  HN  UNL     1       2.489   0.853  -6.056  1.00  0.00     0.169 HD
HETATM   19  C   UNL     1       1.412   2.898  -7.702  1.00  0.00     0.091 C 
HETATM   20  N   UNL     1       3.257   1.950  -9.035  1.00  0.00    -0.248 N 
HETATM   21  O   UNL     1       4.169   0.912  -8.815  1.00  0.00    -0.223 OA
ATOM     22  HN  UNL     1       3.172   2.555  -9.852  1.00  0.00     0.196 HD
ENDBRANCH  14  15
ENDBRANCH  13  14
ENDBRANCH  11  13
TORSDOF 3
