REMARK  5 active torsions:
REMARK  status: ('A' for Active; 'I' for Inactive)
REMARK    1  A    between atoms: N_1  and  C_7 
REMARK    2  A    between atoms: N_2  and  C_10 
REMARK    3  A    between atoms: C_7  and  C_8 
REMARK       I    between atoms: C_8  and  N_9 
REMARK    4  A    between atoms: C_18  and  C_21 
REMARK    5  A    between atoms: C_18  and  C_22 
ROOT
HETATM    1  C   UNL     1      -1.815   2.407   1.267  1.00  0.00     0.240 C 
ENDROOT
BRANCH   1   2
HETATM    2  N   UNL     1      -2.175   3.101   2.510  1.00  0.00    -0.255 N 
HETATM    3  C   UNL     1      -2.465   2.331   3.629  1.00  0.00     0.334 C 
HETATM    4  N   UNL     1      -2.979   3.008   4.732  1.00  0.00    -0.279 N 
HETATM    5  O   UNL     1      -2.263   1.116   3.675  1.00  0.00    -0.246 OA
HETATM    6  C   UNL     1      -2.882   4.376   4.847  1.00  0.00     0.146 C 
HETATM    7  C   UNL     1      -2.365   5.109   3.864  1.00  0.00     0.200 C 
HETATM    8  C   UNL     1      -1.987   4.477   2.577  1.00  0.00     0.292 C 
HETATM    9  F   UNL     1      -2.212   6.442   3.972  1.00  0.00    -0.199 F 
HETATM   10  O   UNL     1      -1.503   5.160   1.678  1.00  0.00    -0.264 OA
BRANCH   4  11
HETATM   11  C   UNL     1      -3.796   2.227   5.641  1.00  0.00     0.232 C 
HETATM   12  O   UNL     1      -5.137   2.753   5.618  1.00  0.00    -0.366 OA
HETATM   13  C   UNL     1      -5.746   2.445   6.881  1.00  0.00     0.170 C 
HETATM   14  C   UNL     1      -4.722   1.672   7.691  1.00  0.00     0.031 C 
HETATM   15  C   UNL     1      -3.414   2.171   7.111  1.00  0.00     0.056 C 
ENDBRANCH   4  11
ENDBRANCH   1   2
BRANCH   1  16
HETATM   16  C   UNL     1      -2.951   2.296   0.215  1.00  0.00     0.238 C 
HETATM   17  N   UNL     1      -3.705   1.121   0.111  1.00  0.00    -0.351 N 
HETATM   18  C   UNL     1      -3.794   0.086   1.128  1.00  0.00     0.126 C 
HETATM   19  C   UNL     1      -4.708   0.993  -0.953  1.00  0.00     0.126 C 
HETATM   20  C   UNL     1      -3.689  -1.310   0.528  1.00  0.00     0.025 C 
HETATM   21  C   UNL     1      -4.681  -1.566  -0.620  1.00  0.00    -0.007 C 
HETATM   22  C   UNL     1      -4.650  -0.389  -1.615  1.00  0.00     0.025 C 
HETATM   23  O   UNL     1      -3.159   3.240  -0.549  1.00  0.00    -0.272 OA
BRANCH  21  24
HETATM   24  C   UNL     1      -6.088  -1.887  -0.072  1.00  0.00     0.043 C 
BRANCH  24  25
HETATM   25  C   UNL     1      -7.075  -2.385  -1.105  1.00  0.00    -0.058 A 
HETATM   26  C   UNL     1      -6.825  -3.542  -1.857  1.00  0.00     0.007 A 
HETATM   27  C   UNL     1      -7.762  -4.003  -2.784  1.00  0.00     0.001 A 
HETATM   28  C   UNL     1      -8.964  -3.328  -2.961  1.00  0.00     0.000 A 
HETATM   29  C   UNL     1      -9.229  -2.184  -2.217  1.00  0.00     0.001 A 
HETATM   30  C   UNL     1      -8.294  -1.717  -1.289  1.00  0.00     0.007 A 
ENDBRANCH  24  25
ENDBRANCH  21  24
ENDBRANCH   1  16
TORSDOF 5
