REMARK  5 active torsions:
REMARK  status: ('A' for Active; 'I' for Inactive)
REMARK    1  A    between atoms: C_8  and  C_9 
REMARK    2  A    between atoms: C_9  and  N_10 
REMARK    3  A    between atoms: N_10  and  C_11 
REMARK    4  A    between atoms: C_11  and  C_12 
REMARK    5  A    between atoms: C_12  and  C_13 
ROOT
HETATM    1  N   UNL     1       0.915  -2.581   0.267  1.00  0.00     0.084 N 
HETATM    2  H   UNL     1       0.581  -1.748   0.756  1.00  0.00     0.315 HD
ENDROOT
BRANCH   1   3
HETATM    3  C   UNL     1       1.710  -2.162  -0.892  1.00  0.00     0.279 C 
BRANCH   3   4
HETATM    4  C   UNL     1       2.905  -1.244  -0.526  1.00  0.00     0.045 C 
HETATM    5  C   UNL     1       4.100  -1.964   0.191  1.00  0.00    -0.009 C 
HETATM    6  C   UNL     1       4.025  -3.501   0.268  1.00  0.00     0.011 C 
HETATM    7  C   UNL     1       4.556  -1.423   1.558  1.00  0.00     0.009 C 
HETATM    8  C   UNL     1       3.924  -0.154   2.107  1.00  0.00     0.028 C 
HETATM    9  C   UNL     1       2.912   0.525   1.261  1.00  0.00    -0.024 C 
HETATM   10  C   UNL     1       2.441   0.066   0.094  1.00  0.00    -0.081 C 
HETATM   11  C   UNL     1       1.413   0.868  -0.665  1.00  0.00     0.043 C 
ENDBRANCH   3   4
ENDBRANCH   1   3
BRANCH   1  12
HETATM   12  C   UNL     1      -0.232  -3.410  -0.120  1.00  0.00     0.274 C 
BRANCH  12  13
HETATM   13  C   UNL     1       0.183  -4.745  -0.756  1.00  0.00     0.071 C 
BRANCH  13  14
HETATM   14  C   UNL     1      -0.984  -5.582  -1.123  1.00  0.00    -0.022 A 
HETATM   15  C   UNL     1      -1.687  -5.585  -2.349  1.00  0.00     0.115 A 
HETATM   16  N   UNL     1      -2.691  -6.463  -2.357  1.00  0.00    -0.310 N 
HETATM   17  N   UNL     1      -2.631  -7.030  -1.143  1.00  0.00    -0.308 N 
ATOM     18  HN  UNL     1      -3.350  -6.658  -3.110  1.00  0.00     0.186 HD
HETATM   19  C   UNL     1      -3.575  -8.044  -0.756  1.00  0.00     0.177 C 
HETATM   20  C   UNL     1      -1.621  -6.539  -0.366  1.00  0.00     0.118 A 
ENDBRANCH  13  14
ENDBRANCH  12  13
ENDBRANCH   1  12
TORSDOF 5
