REMARK  2 active torsions:
REMARK  status: ('A' for Active; 'I' for Inactive)
REMARK       I    between atoms: N_2  and  C_3 
REMARK    1  A    between atoms: C_3  and  C_5 
REMARK    2  A    between atoms: N_7  and  C_11 
ROOT
HETATM    1  C   UNL     1       4.541  -0.899  -0.906  1.00  0.00     0.231 C 
HETATM    2  C   UNL     1       5.131   0.517  -0.995  1.00  0.00     0.183 C 
HETATM    3  N   UNL     1       4.859   1.120  -2.299  1.00  0.00    -0.213 N 
HETATM    4  C   UNL     1       5.222   0.295  -3.453  1.00  0.00     0.167 C 
HETATM    5  C   UNL     1       4.683  -1.136  -3.271  1.00  0.00     0.189 C 
HETATM    6  O   UNL     1       5.052  -1.695  -1.996  1.00  0.00    -0.373 OA
ENDROOT
BRANCH   3   7
HETATM    7  C   UNL     1       3.985   2.164  -2.427  1.00  0.00     0.680 A 
HETATM    8  N   UNL     1       3.379   2.636  -1.320  1.00  0.00    -0.200 N 
HETATM    9  C   UNL     1       2.592   3.731  -1.454  1.00  0.00     0.131 A 
ATOM     10  HN  UNL     1       3.508   2.185  -0.414  1.00  0.00     0.183 HD
HETATM   11  C   UNL     1       2.366   4.365  -2.648  1.00  0.00     0.065 A 
HETATM   12 CL   UNL     1       1.377   5.751  -2.779  1.00  0.00    -0.081 Cl
HETATM   13  C   UNL     1       2.997   3.802  -3.726  1.00  0.00     0.131 A 
HETATM   14  N   UNL     1       3.794   2.712  -3.640  1.00  0.00    -0.200 N 
ATOM     15  HN  UNL     1       4.237   2.318  -4.470  1.00  0.00     0.183 HD
ENDBRANCH   3   7
BRANCH   1  16
HETATM   16  C   UNL     1       3.000  -1.009  -0.743  1.00  0.00     0.247 C 
HETATM   17  N   UNL     1       2.354   0.036  -0.113  1.00  0.00    -0.363 N 
HETATM   18  C   UNL     1       0.924  -0.028   0.068  1.00  0.00     0.149 C 
HETATM   19  H   UNL     1       2.748   0.966  -0.230  1.00  0.00     0.162 HD
HETATM   20  O   UNL     1       2.388  -2.019  -1.095  1.00  0.00    -0.271 OA
ENDBRANCH   1  16
TORSDOF 2
