REMARK  5 active torsions:
REMARK  status: ('A' for Active; 'I' for Inactive)
REMARK    1  A    between atoms: C_2  and  C_3 
REMARK    2  A    between atoms: C_2  and  N_16 
REMARK       I    between atoms: C_3  and  N_5 
REMARK    3  A    between atoms: N_5  and  C_6 
REMARK    4  A    between atoms: N_9  and  C_10 
REMARK    5  A    between atoms: C_10  and  C_11 
REMARK       I    between atoms: C_11  and  N_13 
ROOT
HETATM    1  C   UNL     1       3.224  -3.200  -2.206  1.00  0.00     0.087 C 
HETATM    2  C   UNL     1       2.112  -4.108  -2.738  1.00  0.00     0.055 C 
HETATM    3  C   UNL     1       1.680  -5.160  -1.715  1.00  0.00     0.275 C 
HETATM    4  N   UNL     1       2.785  -5.963  -1.161  1.00  0.00     0.097 N 
HETATM    5  C   UNL     1       3.809  -5.071  -0.587  1.00  0.00     0.275 C 
HETATM    6  C   UNL     1       4.347  -4.019  -1.560  1.00  0.00     0.055 C 
ENDROOT
BRANCH   1   7
HETATM    7  N   UNL     1       2.695  -2.190  -1.295  1.00  0.00    -0.355 N 
HETATM    8  C   UNL     1       3.346  -0.985  -1.089  1.00  0.00     0.242 C 
HETATM    9  O   UNL     1       4.359  -0.670  -1.709  1.00  0.00    -0.271 OA
HETATM   10  H   UNL     1       2.018  -2.469  -0.583  1.00  0.00     0.162 HD
BRANCH   8  11
HETATM   11  C   UNL     1       2.669  -0.054  -0.084  1.00  0.00     0.195 C 
HETATM   12  C   UNL     1       3.350   1.314  -0.034  1.00  0.00     0.044 C 
BRANCH  11  13
HETATM   13  N   UNL     1       2.576  -0.706   1.217  1.00  0.00    -0.290 N 
HETATM   14  C   UNL     1       3.451  -0.643   2.265  1.00  0.00     0.112 A 
HETATM   15  C   UNL     1       2.927  -1.440   3.255  1.00  0.00     0.037 A 
HETATM   16  C   UNL     1       1.741  -1.957   2.707  1.00  0.00     0.108 A 
HETATM   17  N   UNL     1       1.532  -1.536   1.457  1.00  0.00    -0.309 N 
ATOM     18  HN  UNL     1       0.766  -1.782   0.830  1.00  0.00     0.186 HD
ENDBRANCH  11  13
ENDBRANCH   8  11
ENDBRANCH   1   7
BRANCH   4  19
HETATM   19  C   UNL     1       3.382  -6.889  -2.155  1.00  0.00     0.374 C 
BRANCH  19  20
HETATM   20  C   UNL     1       2.371  -7.931  -2.629  1.00  0.00     0.243 C 
HETATM   21  O   UNL     1       2.058  -8.090  -3.805  1.00  0.00    -0.272 OA
HETATM   22  N   UNL     1       1.841  -8.714  -1.641  1.00  0.00    -0.369 N 
HETATM   23  H   UNL     1       1.859  -8.357  -0.694  1.00  0.00     0.159 HD
HETATM   24  H   UNL     1       1.084  -9.329  -1.909  1.00  0.00     0.159 HD
ENDBRANCH  19  20
ENDBRANCH   4  19
TORSDOF 5
