REMARK  7 active torsions:
REMARK  status: ('A' for Active; 'I' for Inactive)
REMARK    1  A    between atoms: C_2  and  C_3 
REMARK    2  A    between atoms: C_3  and  N_4 
REMARK    3  A    between atoms: N_7  and  C_8 
REMARK    4  A    between atoms: C_8  and  C_9 
REMARK    5  A    between atoms: N_13  and  C_14 
REMARK    6  A    between atoms: C_14  and  C_15 
REMARK       I    between atoms: C_15  and  N_17 
REMARK    7  A    between atoms: N_17  and  C_18 
ROOT
HETATM    1  N   UNL     1       4.631   0.612   0.849  1.00  0.00    -0.247 N 
HETATM    2  C   UNL     1       5.134  -0.674   0.911  1.00  0.00     0.337 C 
HETATM    3  O   UNL     1       4.461  -1.623   1.321  1.00  0.00    -0.246 OA
HETATM    4  N   UNL     1       6.443  -0.832   0.499  1.00  0.00    -0.247 N 
HETATM    5  C   UNL     1       7.254   0.229   0.149  1.00  0.00     0.337 C 
HETATM    6  O   UNL     1       8.352   0.078  -0.388  1.00  0.00    -0.246 OA
HETATM    7  N   UNL     1       6.769   1.478   0.461  1.00  0.00    -0.242 N 
HETATM    8  C   UNL     1       5.447   1.720   0.769  1.00  0.00     0.337 C 
HETATM    9  O   UNL     1       5.038   2.862   0.989  1.00  0.00    -0.246 OA
ENDROOT
BRANCH   7  10
HETATM   10  C   UNL     1       7.660   2.623   0.334  1.00  0.00     0.241 C 
BRANCH  10  11
HETATM   11  C   UNL     1       7.476   3.353  -0.996  1.00  0.00     0.236 C 
HETATM   12  O   UNL     1       6.637   3.035  -1.836  1.00  0.00    -0.272 OA
HETATM   13  N   UNL     1       8.344   4.430  -1.148  1.00  0.00    -0.355 N 
HETATM   14  H   UNL     1       9.079   4.573  -0.465  1.00  0.00     0.162 HD
BRANCH  13  15
HETATM   15  C   UNL     1       8.286   5.306  -2.274  1.00  0.00     0.084 A 
HETATM   16  C   UNL     1       9.230   6.470  -2.402  1.00  0.00     0.027 A 
HETATM   17  C   UNL     1       7.779   6.713  -2.115  1.00  0.00     0.027 A 
ENDBRANCH  13  15
ENDBRANCH  10  11
ENDBRANCH   7  10
BRANCH   4  18
HETATM   18  C   UNL     1       6.967  -2.184   0.352  1.00  0.00     0.165 C 
BRANCH  18  19
HETATM   19  C   UNL     1       7.770  -2.567   1.571  1.00  0.00    -0.017 C 
HETATM   20  C   UNL     1       9.077  -2.854   1.549  1.00  0.00     0.008 C 
ENDBRANCH  18  19
ENDBRANCH   4  18
BRANCH   1  21
HETATM   21  C   UNL     1       3.205   0.809   1.074  1.00  0.00     0.165 C 
BRANCH  21  22
HETATM   22  C   UNL     1       2.472   0.599  -0.225  1.00  0.00    -0.017 C 
HETATM   23  C   UNL     1       1.510  -0.316  -0.411  1.00  0.00     0.008 C 
ENDBRANCH  21  22
ENDBRANCH   1  21
TORSDOF 7
