REMARK  7 active torsions:
REMARK  status: ('A' for Active; 'I' for Inactive)
REMARK    1  A    between atoms: C_2  and  C_3 
REMARK       I    between atoms: C_2  and  N_11 
REMARK    2  A    between atoms: C_3  and  C_4 
REMARK    3  A    between atoms: C_4  and  C_5 
REMARK    4  A    between atoms: C_4  and  C_8 
REMARK    5  A    between atoms: N_11  and  C_12 
REMARK    6  A    between atoms: C_12  and  C_13 
REMARK    7  A    between atoms: C_13  and  C_14 
ROOT
HETATM    1  O   UNL     1       1.237  -0.440   0.791  1.00  0.00    -0.274 OA
HETATM    2  C   UNL     1       2.263  -0.089   0.221  1.00  0.00     0.217 C 
HETATM    3  N   UNL     1       2.883   1.119   0.449  1.00  0.00    -0.361 N 
HETATM    4  H   UNL     1       3.821   1.267   0.085  1.00  0.00     0.162 HD
ENDROOT
BRANCH   2   5
HETATM    5  C   UNL     1       2.996  -0.938  -0.800  1.00  0.00     0.108 C 
BRANCH   5   6
HETATM    6  C   UNL     1       2.062  -1.791  -1.674  1.00  0.00     0.002 C 
BRANCH   6   7
HETATM    7  C   UNL     1       1.151  -1.018  -2.610  1.00  0.00    -0.010 A 
HETATM    8  C   UNL     1       1.693  -0.111  -3.691  1.00  0.00     0.005 A 
HETATM    9  C   UNL     1       0.894   0.472  -2.561  1.00  0.00     0.005 A 
ENDBRANCH   6   7
BRANCH   6  10
HETATM   10  C   UNL     1       2.900  -2.784  -2.471  1.00  0.00    -0.010 A 
HETATM   11  C   UNL     1       2.265  -3.795  -3.397  1.00  0.00     0.005 A 
HETATM   12  C   UNL     1       2.886  -4.251  -2.109  1.00  0.00     0.005 A 
ENDBRANCH   6  10
ENDBRANCH   5   6
ENDBRANCH   2   5
BRANCH   3  13
HETATM   13  C   UNL     1       2.374   2.142   1.343  1.00  0.00     0.129 C 
BRANCH  13  14
HETATM   14  C   UNL     1       3.304   2.387   2.533  1.00  0.00     0.084 C 
BRANCH  14  15
HETATM   15  C   UNL     1       4.658   2.857   2.081  1.00  0.00     0.052 A 
HETATM   16  N   UNL     1       5.453   2.159   1.289  1.00  0.00    -0.363 N 
HETATM   17  C   UNL     1       6.620   2.860   1.064  1.00  0.00     0.095 A 
ATOM     18  HN  UNL     1       5.237   1.240   0.902  1.00  0.00     0.165 HD
HETATM   19  C   UNL     1       6.694   4.097   1.664  1.00  0.00     0.068 A 
HETATM   20  S   UNL     1       5.263   4.394   2.559  1.00  0.00    -0.087 SA
ENDBRANCH  14  15
ENDBRANCH  13  14
ENDBRANCH   3  13
TORSDOF 7
