REMARK  7 active torsions:
REMARK  status: ('A' for Active; 'I' for Inactive)
REMARK    1  A    between atoms: C_2  and  C_3 
REMARK    2  A    between atoms: C_3  and  O_4 
REMARK    3  A    between atoms: C_3  and  C_5 
REMARK    4  A    between atoms: C_3  and  C_7 
REMARK    5  A    between atoms: C_7  and  N_8 
REMARK    6  A    between atoms: C_13  and  N_14 
REMARK    7  A    between atoms: N_14  and  C_15 
ROOT
HETATM    1  N   UNL     1       4.994  -2.860  -0.333  1.00  0.00    -0.324 N 
HETATM    2  C   UNL     1       6.268  -3.239  -0.669  1.00  0.00     0.185 C 
HETATM    3  N   UNL     1       6.384  -4.540  -0.813  1.00  0.00    -0.346 N 
ATOM      4  HN  UNL     1       7.200  -5.062  -1.133  1.00  0.00     0.167 HD
HETATM    5  C   UNL     1       5.158  -5.040  -0.435  1.00  0.00     0.122 A 
HETATM    6  C   UNL     1       4.683  -6.362  -0.333  1.00  0.00     0.133 A 
HETATM    7  N   UNL     1       3.429  -6.537   0.158  1.00  0.00    -0.337 N 
ATOM      8  HN  UNL     1       3.046  -7.474   0.282  1.00  0.00     0.168 HD
HETATM    9  C   UNL     1       2.698  -5.446   0.480  1.00  0.00     0.183 A 
HETATM   10  N   UNL     1       3.040  -4.144   0.371  1.00  0.00    -0.336 N 
ATOM     11  HN  UNL     1       2.428  -3.363   0.609  1.00  0.00     0.168 HD
HETATM   12  C   UNL     1       4.293  -4.015  -0.092  1.00  0.00     0.140 A 
ENDROOT
BRANCH   1  13
HETATM   13  C   UNL     1       4.506  -1.500  -0.165  1.00  0.00     0.169 C 
BRANCH  13  14
HETATM   14  C   UNL     1       4.402  -0.632  -1.460  1.00  0.00     0.073 C 
BRANCH  14  15
HETATM   15  C   UNL     1       3.745   0.730  -1.097  1.00  0.00     0.035 C 
HETATM   16  C   UNL     1       3.540   1.674  -2.284  1.00  0.00     0.008 C 
ENDBRANCH  14  15
BRANCH  14  17
HETATM   17  O   UNL     1       3.490  -1.265  -2.373  1.00  0.00    -0.388 OA
HETATM   18  H   UNL     1       3.903  -2.069  -2.735  1.00  0.00     0.210 HD
ENDBRANCH  14  17
BRANCH  14  19
HETATM   19  C   UNL     1       5.745  -0.426  -2.201  1.00  0.00     0.035 C 
HETATM   20  C   UNL     1       6.843   0.245  -1.385  1.00  0.00     0.008 C 
ENDBRANCH  14  19
ENDBRANCH  13  14
ENDBRANCH   1  13
BRANCH   6  21
HETATM   21  N   UNL     1       5.456  -7.441  -0.758  1.00  0.00    -0.370 N 
HETATM   22  H   UNL     1       6.412  -7.146  -0.948  1.00  0.00     0.161 HD
BRANCH  21  23
HETATM   23  C   UNL     1       5.307  -8.718  -0.074  1.00  0.00     0.075 C 
HETATM   24  C   UNL     1       5.563  -9.837  -1.084  1.00  0.00     0.031 C 
HETATM   25  C   UNL     1       6.307  -8.808   1.077  1.00  0.00     0.031 C 
ENDBRANCH  21  23
ENDBRANCH   6  21
TORSDOF 7
