REMARK  8 active torsions:
REMARK  status: ('A' for Active; 'I' for Inactive)
REMARK    1  A    between atoms: O_2  and  C_3 
REMARK    2  A    between atoms: C_8  and  N_9 
REMARK    3  A    between atoms: N_9  and  C_10 
REMARK    4  A    between atoms: C_10  and  C_11 
REMARK    5  A    between atoms: C_11  and  O_12 
REMARK    6  A    between atoms: O_12  and  C_13 
REMARK    7  A    between atoms: C_13  and  C_14 
REMARK    8  A    between atoms: C_14  and  O_15 
ROOT
HETATM    1  C   UNL     1       3.263   0.836  -0.793  1.00  0.00     0.145 A 
HETATM    2  C   UNL     1       2.691   2.071  -0.952  1.00  0.00     0.073 A 
HETATM    3  C   UNL     1       3.211   2.820  -1.975  1.00  0.00     0.095 A 
HETATM    4  N   UNL     1       4.213   2.397  -2.770  1.00  0.00    -0.343 N 
ATOM      5  HN  UNL     1       4.573   2.977  -3.528  1.00  0.00     0.167 HD
HETATM    6  C   UNL     1       4.716   1.181  -2.520  1.00  0.00     0.159 A 
HETATM    7  N   UNL     1       4.258   0.368  -1.565  1.00  0.00    -0.313 N 
ATOM      8  HN  UNL     1       4.646  -0.565  -1.428  1.00  0.00     0.170 HD
ENDROOT
BRANCH   6   9
HETATM    9  N   UNL     1       5.793   0.795  -3.296  1.00  0.00    -0.262 NA
HETATM   10  H   UNL     1       5.807   1.385  -4.123  1.00  0.00     0.130 HD
BRANCH   9  11
HETATM   11  C   UNL     1       5.930  -0.629  -3.577  1.00  0.00     0.121 C 
BRANCH  11  12
HETATM   12  C   UNL     1       5.093  -1.041  -4.794  1.00  0.00     0.182 C 
BRANCH  12  13
HETATM   13  O   UNL     1       5.555  -0.322  -5.948  1.00  0.00    -0.388 OA
BRANCH  13  14
HETATM   14  C   UNL     1       4.847  -0.722  -7.128  1.00  0.00     0.193 C 
BRANCH  14  15
HETATM   15  C   UNL     1       5.370   0.092  -8.307  1.00  0.00     0.190 C 
BRANCH  15  16
HETATM   16  O   UNL     1       6.760  -0.162  -8.500  1.00  0.00    -0.399 OA
HETATM   17  H   UNL     1       7.175   0.004  -7.631  1.00  0.00     0.209 HD
ENDBRANCH  15  16
ENDBRANCH  14  15
ENDBRANCH  13  14
ENDBRANCH  12  13
ENDBRANCH  11  12
ENDBRANCH   9  11
ENDBRANCH   6   9
BRANCH   1  18
HETATM   18  O   UNL     1       2.768   0.055   0.233  1.00  0.00    -0.341 OA
HETATM   19  C   UNL     1       3.435  -1.201   0.339  1.00  0.00     0.211 C 
ENDBRANCH   1  18
TORSDOF 8
