REMARK  5 active torsions:
REMARK  status: ('A' for Active; 'I' for Inactive)
REMARK    1  A    between atoms: N_4  and  C_5 
REMARK    2  A    between atoms: C_5  and  C_6 
REMARK    3  A    between atoms: C_6  and  N_7 
REMARK       I    between atoms: N_7  and  C_8 
REMARK    4  A    between atoms: C_8  and  C_10 
REMARK    5  A    between atoms: C_10  and  N_11 
ROOT
HETATM    1  N   UNL     1       3.194   3.942  -4.216  1.00  0.00    -0.358 N 
HETATM    2  C   UNL     1       2.886   3.862  -5.557  1.00  0.00     0.237 C 
HETATM    3  O   UNL     1       2.176   2.978  -6.032  1.00  0.00    -0.272 OA
HETATM    4  H   UNL     1       3.853   4.650  -3.905  1.00  0.00     0.162 HD
ENDROOT
BRANCH   1   5
HETATM    5  C   UNL     1       2.683   2.993  -3.241  1.00  0.00     0.152 C 
BRANCH   5   6
HETATM    6  C   UNL     1       3.251   1.567  -3.404  1.00  0.00     0.292 C 
BRANCH   6   7
HETATM    7  N   UNL     1       2.689   0.589  -2.451  1.00  0.00     0.095 N 
HETATM    8  C   UNL     1       3.042   0.889  -1.049  1.00  0.00     0.303 C 
HETATM    9  C   UNL     1       2.475  -0.164  -0.073  1.00  0.00     0.146 C 
HETATM   10  C   UNL     1       0.952  -0.101   0.047  1.00  0.00     0.041 C 
HETATM   11  O   UNL     1       2.922  -1.485  -0.422  1.00  0.00    -0.378 OA
HETATM   12  C   UNL     1       2.622  -1.826  -1.785  1.00  0.00     0.146 C 
HETATM   13  C   UNL     1       3.182  -0.773  -2.767  1.00  0.00     0.303 C 
HETATM   14  C   UNL     1       3.232  -3.197  -2.053  1.00  0.00     0.041 C 
ENDBRANCH   6   7
ENDBRANCH   5   6
ENDBRANCH   1   5
BRANCH   2  15
HETATM   15  C   UNL     1       3.465   4.961  -6.413  1.00  0.00     0.250 C 
BRANCH  15  16
HETATM   16  N   UNL     1       4.809   4.647  -6.840  1.00  0.00    -0.295 N 
HETATM   17  C   UNL     1       5.175   4.019  -7.999  1.00  0.00     0.112 A 
HETATM   18  C   UNL     1       6.548   4.044  -8.029  1.00  0.00     0.037 A 
HETATM   19  C   UNL     1       6.918   4.709  -6.845  1.00  0.00     0.108 A 
HETATM   20  N   UNL     1       5.860   5.076  -6.116  1.00  0.00    -0.310 N 
ATOM     21  HN  UNL     1       5.851   5.566  -5.221  1.00  0.00     0.186 HD
ENDBRANCH  15  16
ENDBRANCH   2  15
TORSDOF 5
