REMARK  6 active torsions:
REMARK  status: ('A' for Active; 'I' for Inactive)
REMARK    1  A    between atoms: O_1  and  C_2 
REMARK    2  A    between atoms: C_2  and  C_3 
REMARK    3  A    between atoms: C_3  and  O_4 
REMARK    4  A    between atoms: O_4  and  C_5 
REMARK    5  A    between atoms: C_8  and  N_9 
REMARK    6  A    between atoms: N_9  and  C_10 
ROOT
HETATM    1  C   UNL     1       5.036   2.222   1.491  1.00  0.00     0.141 A 
HETATM    2  C   UNL     1       4.587   3.525   1.410  1.00  0.00     0.058 A 
HETATM    3  C   UNL     1       5.270   4.504   2.130  1.00  0.00     0.035 A 
HETATM    4  C   UNL     1       6.375   4.165   2.914  1.00  0.00     0.044 A 
HETATM    5  C   UNL     1       6.771   2.829   2.869  1.00  0.00     0.119 A 
HETATM    6  N   UNL     1       6.137   1.850   2.176  1.00  0.00    -0.345 N 
ATOM      7  HN  UNL     1       6.474   0.887   2.173  1.00  0.00     0.167 HD
ENDROOT
BRANCH   4   8
HETATM    8  N   UNL     1       6.962   5.172   3.676  1.00  0.00    -0.382 N 
HETATM    9  H   UNL     1       7.328   5.909   3.076  1.00  0.00     0.160 HD
BRANCH   8  10
HETATM   10  C   UNL     1       7.819   4.866   4.821  1.00  0.00     0.107 C 
HETATM   11  C   UNL     1       7.080   4.118   5.920  1.00  0.00     0.053 C 
HETATM   12  C   UNL     1       7.560   4.735   7.220  1.00  0.00     0.169 C 
HETATM   13  O   UNL     1       8.467   5.794   6.902  1.00  0.00    -0.389 OA
HETATM   14  C   UNL     1       8.236   6.150   5.537  1.00  0.00     0.192 C 
ENDBRANCH   8  10
ENDBRANCH   4   8
BRANCH   1  15
HETATM   15  O   UNL     1       4.287   1.273   0.827  1.00  0.00    -0.334 OA
BRANCH  15  16
HETATM   16  C   UNL     1       4.473  -0.041   1.357  1.00  0.00     0.203 C 
BRANCH  16  17
HETATM   17  C   UNL     1       3.274  -0.889   0.946  1.00  0.00     0.191 C 
BRANCH  17  18
HETATM   18  O   UNL     1       3.371  -2.195   1.497  1.00  0.00    -0.399 OA
HETATM   19  H   UNL     1       2.555  -2.666   1.256  1.00  0.00     0.209 HD
ENDBRANCH  17  18
ENDBRANCH  16  17
ENDBRANCH  15  16
ENDBRANCH   1  15
TORSDOF 6
