REMARK  7 active torsions:
REMARK  status: ('A' for Active; 'I' for Inactive)
REMARK    1  A    between atoms: N_6  and  C_7 
REMARK    2  A    between atoms: C_7  and  C_8 
REMARK    3  A    between atoms: C_8  and  O_9 
REMARK    4  A    between atoms: C_8  and  C_10 
REMARK    5  A    between atoms: C_10  and  O_11 
REMARK    6  A    between atoms: O_11  and  C_12 
REMARK    7  A    between atoms: C_12  and  C_13 
ROOT
HETATM    1  C   UNL     1       7.252  -1.346  -0.020  1.00  0.00     0.160 C 
ENDROOT
BRANCH   1   2
HETATM    2  C   UNL     1       6.580   0.043   0.048  1.00  0.00     0.166 C 
BRANCH   2   3
HETATM    3  N   UNL     1       5.124  -0.020  -0.007  1.00  0.00    -0.307 N 
HETATM    4  C   UNL     1       4.393  -0.104   1.147  1.00  0.00     0.186 A 
HETATM    5  N   UNL     1       3.105  -0.137   1.205  1.00  0.00    -0.355 N 
HETATM    6  C   UNL     1       2.417  -0.081   0.018  1.00  0.00     0.017 A 
ATOM      7  HN  UNL     1       2.616  -0.202   2.098  1.00  0.00     0.166 HD
HETATM    8  C   UNL     1       0.915  -0.090   0.170  1.00  0.00     0.069 C 
HETATM    9  C   UNL     1       3.004  -0.018  -1.188  1.00  0.00     0.028 A 
HETATM   10  C   UNL     1       4.492  -0.011  -1.232  1.00  0.00     0.256 A 
HETATM   11  C   UNL     1       2.262   0.055  -2.489  1.00  0.00     0.056 C 
HETATM   12  O   UNL     1       5.104   0.013  -2.299  1.00  0.00    -0.267 OA
ENDBRANCH   2   3
ENDBRANCH   1   2
BRANCH   1  13
HETATM   13  O   UNL     1       6.932  -2.055  -1.221  1.00  0.00    -0.392 OA
HETATM   14  H   UNL     1       6.849  -1.410  -1.951  1.00  0.00     0.210 HD
ENDBRANCH   1  13
BRANCH   1  15
HETATM   15  C   UNL     1       8.776  -1.206   0.071  1.00  0.00     0.201 C 
BRANCH  15  16
HETATM   16  O   UNL     1       9.115  -0.556   1.290  1.00  0.00    -0.384 OA
BRANCH  16  17
HETATM   17  C   UNL     1      10.520  -0.342   1.417  1.00  0.00     0.209 C 
BRANCH  17  18
HETATM   18  C   UNL     1      10.755   0.325   2.740  1.00  0.00     0.004 A 
HETATM   19  C   UNL     1      10.342  -0.290   3.932  1.00  0.00     0.012 A 
HETATM   20  C   UNL     1      10.541   0.341   5.162  1.00  0.00     0.001 A 
HETATM   21  C   UNL     1      11.159   1.590   5.215  1.00  0.00     0.003 A 
HETATM   22  C   UNL     1      11.580   2.207   4.038  1.00  0.00     0.043 A 
HETATM   23  C   UNL     1      11.379   1.572   2.815  1.00  0.00     0.124 A 
HETATM   24  F   UNL     1      11.791   2.185   1.696  1.00  0.00    -0.205 F 
ENDBRANCH  17  18
ENDBRANCH  16  17
ENDBRANCH  15  16
ENDBRANCH   1  15
TORSDOF 7
