REMARK  4 active torsions:
REMARK  status: ('A' for Active; 'I' for Inactive)
REMARK    1  A    between atoms: C_2  and  C_4 
REMARK    2  A    between atoms: C_7  and  C_8 
REMARK    3  A    between atoms: C_8  and  C_9 
REMARK       I    between atoms: C_9  and  N_11 
REMARK    4  A    between atoms: N_11  and  C_12 
ROOT
HETATM    1  C   UNL     1       2.955  -1.377  -0.625  1.00  0.00     0.054 A 
HETATM    2  N   UNL     1       3.659  -1.604  -1.718  1.00  0.00    -0.356 N 
ATOM      3  HN  UNL     1       4.003  -0.882  -2.350  1.00  0.00     0.166 HD
HETATM    4  C   UNL     1       3.864  -2.969  -1.884  1.00  0.00     0.025 A 
HETATM    5  C   UNL     1       3.300  -3.757  -0.898  1.00  0.00     0.077 A 
HETATM    6  S   UNL     1       2.495  -2.784   0.254  1.00  0.00    -0.086 SA
ENDROOT
BRANCH   4   7
HETATM    7  C   UNL     1       4.662  -3.444  -3.053  1.00  0.00     0.160 C 
BRANCH   7   8
HETATM    8  C   UNL     1       3.908  -4.493  -3.845  1.00  0.00     0.223 C 
HETATM    9  O   UNL     1       3.941  -5.685  -3.535  1.00  0.00    -0.273 OA
HETATM   10  N   UNL     1       3.170  -4.003  -4.908  1.00  0.00    -0.356 N 
HETATM   11  H   UNL     1       3.056  -2.999  -4.995  1.00  0.00     0.162 HD
BRANCH  10  12
HETATM   12  C   UNL     1       2.310  -4.858  -5.667  1.00  0.00     0.084 A 
HETATM   13  C   UNL     1       2.822  -5.557  -6.895  1.00  0.00     0.027 A 
HETATM   14  C   UNL     1       1.802  -4.464  -7.026  1.00  0.00     0.027 A 
ENDBRANCH  10  12
ENDBRANCH   7   8
ENDBRANCH   4   7
BRANCH   1  15
HETATM   15  C   UNL     1       2.535  -0.015  -0.131  1.00  0.00     0.035 C 
HETATM   16  C   UNL     1       3.749   0.821   0.274  1.00  0.00     0.016 C 
HETATM   17  C   UNL     1       1.711   0.711  -1.194  1.00  0.00     0.016 C 
ENDBRANCH   1  15
TORSDOF 4
