REMARK  5 active torsions:
REMARK  status: ('A' for Active; 'I' for Inactive)
REMARK    1  A    between atoms: C_2  and  C_3 
REMARK    2  A    between atoms: C_2  and  N_14 
REMARK    3  A    between atoms: C_3  and  N_4 
REMARK       I    between atoms: N_4  and  C_5 
REMARK    4  A    between atoms: C_5  and  C_7 
REMARK    5  A    between atoms: C_7  and  N_8 
ROOT
HETATM    1  C   UNL     1       2.529   0.256  -1.698  1.00  0.00     0.158 C 
ENDROOT
BRANCH   1   2
HETATM    2  C   UNL     1       2.312  -0.080  -0.187  1.00  0.00     0.236 C 
HETATM    3  C   UNL     1       0.788  -0.172   0.049  1.00  0.00     0.044 C 
BRANCH   2   4
HETATM    4  N   UNL     1       2.922   0.936   0.724  1.00  0.00     0.099 N 
HETATM    5  C   UNL     1       4.397   1.070   0.569  1.00  0.00     0.304 C 
HETATM    6  C   UNL     1       5.210  -0.120   1.132  1.00  0.00     0.146 C 
HETATM    7  C   UNL     1       6.706   0.165   1.050  1.00  0.00     0.041 C 
HETATM    8  O   UNL     1       4.893  -0.357   2.516  1.00  0.00    -0.378 OA
HETATM    9  C   UNL     1       3.482  -0.560   2.694  1.00  0.00     0.146 C 
HETATM   10  C   UNL     1       3.223  -0.787   4.178  1.00  0.00     0.041 C 
HETATM   11  C   UNL     1       2.697   0.663   2.170  1.00  0.00     0.304 C 
ENDBRANCH   2   4
ENDBRANCH   1   2
BRANCH   1  12
HETATM   12  N   UNL     1       2.037  -0.766  -2.616  1.00  0.00    -0.358 N 
HETATM   13  C   UNL     1       2.810  -1.857  -2.965  1.00  0.00     0.237 C 
HETATM   14  O   UNL     1       3.892  -2.103  -2.437  1.00  0.00    -0.272 OA
HETATM   15  H   UNL     1       1.271  -0.513  -3.234  1.00  0.00     0.162 HD
BRANCH  13  16
HETATM   16  C   UNL     1       2.213  -2.748  -4.031  1.00  0.00     0.250 C 
BRANCH  16  17
HETATM   17  N   UNL     1       2.526  -2.263  -5.358  1.00  0.00    -0.295 N 
HETATM   18  C   UNL     1       3.582  -2.633  -6.142  1.00  0.00     0.112 A 
HETATM   19  C   UNL     1       3.419  -1.974  -7.337  1.00  0.00     0.037 A 
HETATM   20  C   UNL     1       2.232  -1.238  -7.181  1.00  0.00     0.108 A 
HETATM   21  N   UNL     1       1.680  -1.409  -5.974  1.00  0.00    -0.310 N 
ATOM     22  HN  UNL     1       0.824  -0.993  -5.607  1.00  0.00     0.186 HD
ENDBRANCH  16  17
ENDBRANCH  13  16
ENDBRANCH   1  12
TORSDOF 5
