REMARK  7 active torsions:
REMARK  status: ('A' for Active; 'I' for Inactive)
REMARK    1  A    between atoms: C_2  and  C_4 
REMARK    2  A    between atoms: C_4  and  N_5 
REMARK       I    between atoms: N_5  and  C_6 
REMARK    3  A    between atoms: C_6  and  C_8 
REMARK    4  A    between atoms: C_8  and  N_10 
REMARK    5  A    between atoms: N_10  and  C_11 
REMARK    6  A    between atoms: C_11  and  C_12 
REMARK    7  A    between atoms: C_12  and  N_13 
ROOT
HETATM    1  C   UNL     1       6.594  -1.978   1.850  1.00  0.00     0.307 C 
HETATM    2  C   UNL     1       7.042  -0.582   2.272  1.00  0.00     0.053 C 
ENDROOT
BRANCH   1   3
HETATM    3  C   UNL     1       5.053  -2.036   1.885  1.00  0.00     0.250 C 
HETATM    4  N   UNL     1       4.461  -1.839   0.656  1.00  0.00    -0.359 N 
HETATM    5  H   UNL     1       5.033  -1.602  -0.143  1.00  0.00     0.162 HD
HETATM    6  O   UNL     1       4.422  -2.244   2.918  1.00  0.00    -0.271 OA
BRANCH   4   7
HETATM    7  C   UNL     1       3.028  -1.920   0.469  1.00  0.00     0.126 C 
BRANCH   7   8
HETATM    8  C   UNL     1       2.313  -0.603   0.804  1.00  0.00    -0.005 C 
HETATM    9  C   UNL     1       2.773   0.535  -0.110  1.00  0.00     0.011 C 
HETATM   10  C   UNL     1       0.800  -0.789   0.685  1.00  0.00     0.011 C 
ENDBRANCH   7   8
ENDBRANCH   4   7
ENDBRANCH   1   3
BRANCH   1  11
HETATM   11  N   UNL     1       7.189  -2.992   2.753  1.00  0.00     0.098 N 
HETATM   12  H   UNL     1       6.789  -2.823   3.683  1.00  0.00     0.317 HD
BRANCH  11  13
HETATM   13  C   UNL     1       6.844  -4.379   2.379  1.00  0.00     0.292 C 
BRANCH  13  14
HETATM   14  C   UNL     1       7.382  -4.825   1.017  1.00  0.00     0.178 C 
BRANCH  14  15
HETATM   15  N   UNL     1       7.001  -6.191   0.711  1.00  0.00    -0.302 N 
HETATM   16  C   UNL     1       7.724  -7.321   0.959  1.00  0.00     0.111 A 
HETATM   17  C   UNL     1       6.977  -8.364   0.467  1.00  0.00     0.037 A 
HETATM   18  C   UNL     1       5.822  -7.759  -0.062  1.00  0.00     0.108 A 
HETATM   19  N   UNL     1       5.835  -6.431   0.081  1.00  0.00    -0.310 N 
ATOM     20  HN  UNL     1       5.129  -5.758  -0.217  1.00  0.00     0.186 HD
ENDBRANCH  14  15
ENDBRANCH  13  14
ENDBRANCH  11  13
ENDBRANCH   1  11
TORSDOF 7
