REMARK  6 active torsions:
REMARK  status: ('A' for Active; 'I' for Inactive)
REMARK    1  A    between atoms: C_2  and  C_3 
REMARK       I    between atoms: C_2  and  N_13 
REMARK    2  A    between atoms: C_3  and  N_4 
REMARK    3  A    between atoms: N_4  and  C_5 
REMARK    4  A    between atoms: C_5  and  C_6 
REMARK    5  A    between atoms: C_6  and  N_7 
REMARK    6  A    between atoms: N_13  and  C_14 
ROOT
HETATM    1  O   UNL     1       1.038  -0.260  -0.311  1.00  0.00    -0.272 OA
HETATM    2  C   UNL     1       2.234  -0.009  -0.182  1.00  0.00     0.246 C 
HETATM    3  N   UNL     1       3.102   0.101  -1.249  1.00  0.00    -0.346 N 
HETATM    4  H   UNL     1       3.960   0.629  -1.113  1.00  0.00     0.163 HD
ENDROOT
BRANCH   2   5
HETATM    5  C   UNL     1       2.887   0.199   1.189  1.00  0.00     0.371 C 
BRANCH   5   6
HETATM    6  N   UNL     1       2.309  -0.685   2.225  1.00  0.00     0.093 N 
HETATM    7  H   UNL     1       1.300  -0.500   2.233  1.00  0.00     0.316 HD
BRANCH   6   8
HETATM    8  C   UNL     1       2.480  -2.123   1.938  1.00  0.00     0.291 C 
BRANCH   8   9
HETATM    9  C   UNL     1       3.933  -2.597   1.866  1.00  0.00     0.178 C 
BRANCH   9  10
HETATM   10  N   UNL     1       4.012  -4.005   1.523  1.00  0.00    -0.302 N 
HETATM   11  C   UNL     1       4.099  -5.057   2.387  1.00  0.00     0.111 A 
HETATM   12  C   UNL     1       4.159  -6.186   1.605  1.00  0.00     0.037 A 
HETATM   13  C   UNL     1       4.108  -5.707   0.283  1.00  0.00     0.108 A 
HETATM   14  N   UNL     1       4.023  -4.376   0.227  1.00  0.00    -0.310 N 
ATOM     15  HN  UNL     1       3.977  -3.781  -0.600  1.00  0.00     0.186 HD
ENDBRANCH   9  10
ENDBRANCH   8   9
ENDBRANCH   6   8
ENDBRANCH   5   6
ENDBRANCH   2   5
BRANCH   3  16
HETATM   16  C   UNL     1       2.637   0.000  -2.640  1.00  0.00     0.176 C 
HETATM   17  C   UNL     1       2.251  -1.437  -2.996  1.00  0.00     0.035 C 
HETATM   18  C   UNL     1       1.571  -1.508  -4.360  1.00  0.00     0.004 C 
HETATM   19  C   UNL     1       2.545  -1.676  -5.519  1.00  0.00     0.020 C 
HETATM   20  C   UNL     1       3.898  -1.011  -5.330  1.00  0.00     0.122 C 
HETATM   21  N   UNL     1       3.844   0.354  -4.852  1.00  0.00    -0.359 N 
HETATM   22  C   UNL     1       3.709   0.677  -3.528  1.00  0.00     0.240 C 
HETATM   23  H   UNL     1       4.532   0.967  -5.277  1.00  0.00     0.162 HD
HETATM   24  O   UNL     1       4.385   1.616  -3.093  1.00  0.00    -0.271 OA
ENDBRANCH   3  16
TORSDOF 6
