REMARK  4 active torsions:
REMARK  status: ('A' for Active; 'I' for Inactive)
REMARK    1  A    between atoms: O_1  and  C_2 
REMARK    2  A    between atoms: C_5  and  N_8 
REMARK       I    between atoms: N_8  and  C_9 
REMARK       I    between atoms: C_9  and  N_11 
REMARK    3  A    between atoms: N_11  and  C_12 
REMARK    4  A    between atoms: C_15  and  N_19 
ROOT
HETATM    1  N   UNL     1       4.644  -0.725  -2.954  1.00  0.00    -0.338 N 
HETATM    2  C   UNL     1       5.224   0.296  -3.676  1.00  0.00     0.321 C 
HETATM    3  O   UNL     1       4.587   1.230  -4.151  1.00  0.00    -0.247 OA
HETATM    4  N   UNL     1       6.571   0.076  -3.859  1.00  0.00    -0.308 N 
HETATM    5  H   UNL     1       5.218  -1.095  -2.209  1.00  0.00     0.164 HD
HETATM    6  H   UNL     1       6.820  -0.903  -3.889  1.00  0.00     0.170 HD
ENDROOT
BRANCH   4   7
HETATM    7  C   UNL     1       7.385   0.965  -4.594  1.00  0.00     0.051 A 
HETATM    8  C   UNL     1       8.348   0.450  -5.447  1.00  0.00     0.035 A 
HETATM    9  C   UNL     1       9.137   1.327  -6.198  1.00  0.00     0.051 A 
HETATM   10  C   UNL     1       8.988   2.711  -6.070  1.00  0.00     0.103 A 
HETATM   11  N   UNL     1       8.081   3.210  -5.206  1.00  0.00    -0.350 N 
HETATM   12  C   UNL     1       7.289   2.343  -4.514  1.00  0.00     0.119 A 
ATOM     13  HN  UNL     1       7.989   4.217  -5.073  1.00  0.00     0.166 HD
BRANCH  10  14
HETATM   14  N   UNL     1       9.795   3.579  -6.793  1.00  0.00    -0.367 N 
HETATM   15  C   UNL     1      10.178   3.235  -8.162  1.00  0.00     0.124 C 
HETATM   16  C   UNL     1      10.296   4.569  -8.894  1.00  0.00     0.021 C 
HETATM   17  C   UNL     1       9.441   5.523  -8.080  1.00  0.00     0.021 C 
HETATM   18  C   UNL     1       9.604   5.021  -6.649  1.00  0.00     0.124 C 
ENDBRANCH  10  14
ENDBRANCH   4   7
BRANCH   1  19
HETATM   19  C   UNL     1       3.192  -0.787  -2.797  1.00  0.00     0.086 C 
HETATM   20  C   UNL     1       2.670   0.223  -1.768  1.00  0.00     0.028 C 
HETATM   21  C   UNL     1       3.000  -0.181  -0.330  1.00  0.00     0.034 C 
HETATM   22  C   UNL     1       2.517  -1.595  -0.009  1.00  0.00     0.118 C 
HETATM   23  C   UNL     1       3.045  -2.614  -1.017  1.00  0.00     0.034 C 
HETATM   24  C   UNL     1       2.739  -2.213  -2.462  1.00  0.00     0.028 C 
BRANCH  22  25
HETATM   25  O   UNL     1       1.093  -1.633  -0.033  1.00  0.00    -0.396 OA
HETATM   26  H   UNL     1       0.769  -1.004   0.635  1.00  0.00     0.210 HD
ENDBRANCH  22  25
ENDBRANCH   1  19
TORSDOF 4
