REMARK  5 active torsions:
REMARK  status: ('A' for Active; 'I' for Inactive)
REMARK    1  A    between atoms: O_2  and  C_3 
REMARK    2  A    between atoms: C_9  and  N_10 
REMARK       I    between atoms: N_10  and  C_11 
REMARK       I    between atoms: C_11  and  N_13 
REMARK    3  A    between atoms: N_13  and  C_14 
REMARK    4  A    between atoms: N_17  and  C_18 
REMARK    5  A    between atoms: C_18  and  C_19 
ROOT
HETATM    1  N   UNL     1       5.483  -2.581  -1.627  1.00  0.00    -0.305 N 
HETATM    2  C   UNL     1       4.786  -3.456  -0.825  1.00  0.00     0.321 C 
HETATM    3  O   UNL     1       5.275  -4.229  -0.009  1.00  0.00    -0.247 OA
HETATM    4  N   UNL     1       3.427  -3.355  -0.994  1.00  0.00    -0.338 N 
HETATM    5  H   UNL     1       5.018  -2.190  -2.436  1.00  0.00     0.171 HD
HETATM    6  H   UNL     1       3.098  -2.951  -1.856  1.00  0.00     0.164 HD
ENDROOT
BRANCH   1   7
HETATM    7  C   UNL     1       6.879  -2.351  -1.560  1.00  0.00     0.087 A 
HETATM    8  C   UNL     1       7.553  -1.753  -2.633  1.00  0.00     0.169 A 
HETATM    9  N   UNL     1       8.889  -1.528  -2.657  1.00  0.00    -0.345 N 
HETATM   10  C   UNL     1       9.592  -1.906  -1.568  1.00  0.00     0.090 A 
ATOM     11  HN  UNL     1       9.343  -1.093  -3.461  1.00  0.00     0.167 HD
HETATM   12  C   UNL     1       9.020  -2.479  -0.450  1.00  0.00     0.019 A 
HETATM   13  C   UNL     1       7.643  -2.697  -0.449  1.00  0.00     0.035 A 
BRANCH   8  14
HETATM   14  O   UNL     1       6.798  -1.368  -3.731  1.00  0.00    -0.339 OA
HETATM   15  C   UNL     1       7.608  -1.164  -4.890  1.00  0.00     0.211 C 
ENDBRANCH   8  14
ENDBRANCH   1   7
BRANCH   4  16
HETATM   16  C   UNL     1       2.508  -4.204  -0.230  1.00  0.00     0.089 C 
HETATM   17  C   UNL     1       2.280  -5.558  -0.910  1.00  0.00     0.055 C 
HETATM   18  C   UNL     1       1.418  -5.411  -2.167  1.00  0.00     0.274 C 
HETATM   19  N   UNL     1       0.136  -4.716  -1.944  1.00  0.00     0.093 N 
HETATM   20  C   UNL     1       0.358  -3.413  -1.294  1.00  0.00     0.274 C 
HETATM   21  C   UNL     1       1.176  -3.491  -0.003  1.00  0.00     0.055 C 
BRANCH  19  22
HETATM   22  C   UNL     1      -0.858  -5.522  -1.198  1.00  0.00     0.343 C 
BRANCH  22  23
HETATM   23  C   UNL     1      -1.344  -6.825  -1.849  1.00  0.00     0.381 C 
HETATM   24  F   UNL     1      -0.355  -7.754  -1.871  1.00  0.00    -0.213 F 
HETATM   25  F   UNL     1      -2.334  -7.354  -1.079  1.00  0.00    -0.213 F 
ENDBRANCH  22  23
ENDBRANCH  19  22
ENDBRANCH   4  16
TORSDOF 5
