REMARK  7 active torsions:
REMARK  status: ('A' for Active; 'I' for Inactive)
REMARK    1  A    between atoms: C_2  and  C_3 
REMARK    2  A    between atoms: C_3  and  N_4 
REMARK    3  A    between atoms: C_5  and  N_6 
REMARK    4  A    between atoms: C_7  and  N_8 
REMARK    5  A    between atoms: N_8  and  C_9 
REMARK    6  A    between atoms: C_9  and  C_10 
REMARK    7  A    between atoms: C_10  and  O_11 
ROOT
HETATM    1  N   UNL     1       4.481  -1.157   0.841  1.00  0.00    -0.288 N 
HETATM    2  C   UNL     1       5.077  -1.773  -0.256  1.00  0.00     0.111 A 
HETATM    3  C   UNL     1       6.426  -1.811  -0.379  1.00  0.00     0.116 A 
HETATM    4  C   UNL     1       7.253  -1.220   0.722  1.00  0.00     0.274 A 
HETATM    5  O   UNL     1       8.482  -1.236   0.672  1.00  0.00    -0.266 OA
HETATM    6  N   UNL     1       6.575  -0.678   1.765  1.00  0.00    -0.274 N 
HETATM    7  C   UNL     1       5.220  -0.622   1.889  1.00  0.00     0.330 A 
HETATM    8  O   UNL     1       4.731  -0.110   2.895  1.00  0.00    -0.246 OA
HETATM    9  H   UNL     1       7.117  -0.284   2.518  1.00  0.00     0.173 HD
ENDROOT
BRANCH   3  10
HETATM   10  N   UNL     1       7.124  -2.397  -1.468  1.00  0.00    -0.284 NA
HETATM   11  H   UNL     1       7.932  -2.862  -1.040  1.00  0.00     0.128 HD
BRANCH  10  12
HETATM   12  C   UNL     1       7.690  -1.501  -2.507  1.00  0.00     0.118 C 
BRANCH  12  13
HETATM   13  C   UNL     1       6.800  -1.454  -3.755  1.00  0.00     0.181 C 
BRANCH  13  14
HETATM   14  O   UNL     1       5.557  -0.826  -3.435  1.00  0.00    -0.395 OA
HETATM   15  C   UNL     1       4.638  -0.870  -4.514  1.00  0.00     0.201 C 
ENDBRANCH  13  14
ENDBRANCH  12  13
ENDBRANCH  10  12
ENDBRANCH   3  10
BRANCH   2  16
HETATM   16  N   UNL     1       4.311  -2.369  -1.259  1.00  0.00    -0.287 NA
HETATM   17  H   UNL     1       3.546  -1.772  -1.540  1.00  0.00     0.125 HD
HETATM   18  H   UNL     1       4.931  -2.505  -2.067  1.00  0.00     0.125 HD
ENDBRANCH   2  16
BRANCH   1  19
HETATM   19  C   UNL     1       3.022  -1.099   0.964  1.00  0.00     0.135 C 
BRANCH  19  20
HETATM   20  C   UNL     1       2.433  -2.367   1.582  1.00  0.00     0.016 C 
HETATM   21  C   UNL     1       0.916  -2.293   1.644  1.00  0.00     0.006 C 
ENDBRANCH  19  20
ENDBRANCH   1  19
TORSDOF 7
