REMARK  5 active torsions:
REMARK  status: ('A' for Active; 'I' for Inactive)
REMARK    1  A    between atoms: C_2  and  N_3 
REMARK    2  A    between atoms: C_5  and  N_6 
REMARK       I    between atoms: N_6  and  C_7 
REMARK       I    between atoms: C_7  and  N_9 
REMARK    3  A    between atoms: N_9  and  C_10 
REMARK    4  A    between atoms: C_10  and  C_11 
REMARK    5  A    between atoms: C_11  and  N_12 
ROOT
HETATM    1  N   UNL     1       3.287   4.120   2.680  1.00  0.00    -0.306 N 
HETATM    2  C   UNL     1       2.758   5.154   1.946  1.00  0.00     0.320 C 
HETATM    3  O   UNL     1       2.332   5.082   0.797  1.00  0.00    -0.247 OA
HETATM    4  N   UNL     1       2.764   6.351   2.638  1.00  0.00    -0.341 N 
HETATM    5  H   UNL     1       3.745   4.335   3.554  1.00  0.00     0.171 HD
HETATM    6  H   UNL     1       2.605   6.276   3.632  1.00  0.00     0.164 HD
ENDROOT
BRANCH   1   7
HETATM    7  C   UNL     1       3.354   2.815   2.224  1.00  0.00     0.070 A 
HETATM    8  C   UNL     1       2.853   2.312   1.046  1.00  0.00     0.141 A 
HETATM    9  N   UNL     1       3.135   0.982   1.038  1.00  0.00    -0.302 N 
HETATM   10  N   UNL     1       3.801   0.569   2.135  1.00  0.00    -0.308 N 
HETATM   11  C   UNL     1       3.932   1.691   2.854  1.00  0.00     0.138 A 
ATOM     12  HN  UNL     1       4.126  -0.371   2.362  1.00  0.00     0.186 HD
BRANCH   9  13
HETATM   13  C   UNL     1       2.748   0.044   0.003  1.00  0.00     0.143 C 
HETATM   14  C   UNL     1       3.767  -0.029  -1.120  1.00  0.00     0.028 C 
ENDBRANCH   9  13
ENDBRANCH   1   7
BRANCH   4  15
HETATM   15  C   UNL     1       2.170   7.486   1.952  1.00  0.00     0.154 C 
BRANCH  15  16
HETATM   16  C   UNL     1       2.328   8.809   2.706  1.00  0.00     0.292 C 
BRANCH  16  17
HETATM   17  N   UNL     1       1.733   9.960   2.001  1.00  0.00     0.090 N 
HETATM   18  C   UNL     1       2.356  10.255   0.699  1.00  0.00     0.272 C 
HETATM   19  C   UNL     1       3.779  10.805   0.809  1.00  0.00     0.031 C 
HETATM   20  C   UNL     1       3.823  12.034   1.716  1.00  0.00     0.007 C 
HETATM   21  C   UNL     1       3.147  11.749   3.063  1.00  0.00     0.010 C 
HETATM   22  C   UNL     1       3.086  13.006   3.925  1.00  0.00     0.011 C 
HETATM   23  C   UNL     1       1.739  11.169   2.842  1.00  0.00     0.276 C 
ENDBRANCH  16  17
ENDBRANCH  15  16
ENDBRANCH   4  15
TORSDOF 5
