REMARK  6 active torsions:
REMARK  status: ('A' for Active; 'I' for Inactive)
REMARK    1  A    between atoms: C_6  and  N_7 
REMARK       I    between atoms: N_7  and  C_8 
REMARK       I    between atoms: C_8  and  N_10 
REMARK    2  A    between atoms: N_10  and  C_11 
REMARK    3  A    between atoms: C_11  and  C_12 
REMARK    4  A    between atoms: N_15  and  C_16 
REMARK    5  A    between atoms: C_16  and  C_17 
REMARK    6  A    between atoms: C_17  and  O_18 
ROOT
HETATM    1  N   UNL     1       2.757  -6.526  -3.853  1.00  0.00    -0.295 N 
HETATM    2  C   UNL     1       2.851  -6.575  -2.490  1.00  0.00     0.321 C 
HETATM    3  O   UNL     1       1.943  -7.071  -1.823  1.00  0.00    -0.247 OA
HETATM    4  N   UNL     1       4.016  -6.124  -1.958  1.00  0.00    -0.342 N 
HETATM    5  H   UNL     1       1.933  -6.979  -4.218  1.00  0.00     0.172 HD
HETATM    6  H   UNL     1       4.615  -5.618  -2.608  1.00  0.00     0.164 HD
ENDROOT
BRANCH   4   7
HETATM    7  C   UNL     1       4.415  -6.205  -0.581  1.00  0.00     0.129 C 
BRANCH   7   8
HETATM    8  C   UNL     1       5.748  -6.960  -0.445  1.00  0.00     0.007 C 
HETATM    9  C   UNL     1       5.637  -8.459  -0.804  1.00  0.00     0.036 C 
HETATM   10  C   UNL     1       5.178  -9.360   0.352  1.00  0.00     0.273 C 
HETATM   11  N   UNL     1       5.867  -9.104   1.632  1.00  0.00     0.090 N 
HETATM   12  C   UNL     1       5.688  -7.689   1.984  1.00  0.00     0.273 C 
HETATM   13  C   UNL     1       6.322  -6.748   0.963  1.00  0.00     0.036 C 
BRANCH  11  14
HETATM   14  C   UNL     1       7.285  -9.539   1.576  1.00  0.00     0.298 C 
BRANCH  14  15
HETATM   15  C   UNL     1       8.060  -9.305   2.885  1.00  0.00     0.194 C 
BRANCH  15  16
HETATM   16  O   UNL     1       7.425  -9.974   3.970  1.00  0.00    -0.399 OA
HETATM   17  H   UNL     1       6.466  -9.867   3.810  1.00  0.00     0.209 HD
ENDBRANCH  15  16
ENDBRANCH  14  15
ENDBRANCH  11  14
ENDBRANCH   7   8
ENDBRANCH   4   7
BRANCH   1  18
HETATM   18  C   UNL     1       3.702  -6.015  -4.751  1.00  0.00     0.109 A 
HETATM   19  C   UNL     1       3.560  -6.278  -6.101  1.00  0.00     0.049 A 
HETATM   20  C   UNL     1       4.534  -5.799  -6.976  1.00  0.00     0.006 A 
HETATM   21  C   UNL     1       5.604  -5.056  -6.482  1.00  0.00     0.025 A 
HETATM   22  C   UNL     1       5.666  -4.811  -5.120  1.00  0.00     0.007 A 
HETATM   23  C   UNL     1       6.792  -4.050  -4.493  1.00  0.00     0.068 C 
HETATM   24  N   UNL     1       4.738  -5.293  -4.267  1.00  0.00    -0.346 N 
ATOM     25  HN  UNL     1       4.817  -5.114  -3.266  1.00  0.00     0.167 HD
ENDBRANCH   1  18
TORSDOF 6
