REMARK  3 active torsions:
REMARK  status: ('A' for Active; 'I' for Inactive)
REMARK    1  A    between atoms: C_2  and  N_3 
REMARK    2  A    between atoms: C_2  and  C_14 
REMARK       I    between atoms: N_3  and  C_4 
REMARK       I    between atoms: C_4  and  N_6 
REMARK    3  A    between atoms: N_6  and  C_7 
ROOT
HETATM    1  N   UNL     1       3.115  -0.913   1.181  1.00  0.00    -0.338 N 
HETATM    2  C   UNL     1       4.347  -0.767   1.737  1.00  0.00     0.322 C 
HETATM    3  O   UNL     1       5.232  -0.002   1.404  1.00  0.00    -0.247 OA
HETATM    4  N   UNL     1       4.517  -1.626   2.852  1.00  0.00    -0.293 N 
HETATM    5  H   UNL     1       2.549  -1.717   1.414  1.00  0.00     0.164 HD
HETATM    6  H   UNL     1       3.704  -1.949   3.353  1.00  0.00     0.172 HD
ENDROOT
BRANCH   1   7
HETATM    7  C   UNL     1       2.665  -0.050   0.082  1.00  0.00     0.086 C 
HETATM    8  C   UNL     1       1.152   0.152   0.237  1.00  0.00     0.032 C 
BRANCH   7   9
HETATM    9  C   UNL     1       3.055  -0.607  -1.325  1.00  0.00     0.012 C 
HETATM   10  C   UNL     1       4.566  -0.869  -1.502  1.00  0.00     0.033 C 
HETATM   11  C   UNL     1       5.368   0.427  -1.631  1.00  0.00     0.168 C 
HETATM   12  O   UNL     1       4.870   1.226  -2.701  1.00  0.00    -0.391 OA
HETATM   13  C   UNL     1       3.502   1.587  -2.523  1.00  0.00     0.168 C 
HETATM   14  C   UNL     1       2.638   0.328  -2.484  1.00  0.00     0.033 C 
ENDBRANCH   7   9
ENDBRANCH   1   7
BRANCH   4  15
HETATM   15  C   UNL     1       5.747  -1.636   3.493  1.00  0.00     0.126 A 
HETATM   16  C   UNL     1       5.925  -1.385   4.832  1.00  0.00     0.068 A 
HETATM   17  C   UNL     1       7.323  -1.357   5.002  1.00  0.00     0.111 A 
HETATM   18  N   UNL     1       7.982  -1.658   3.883  1.00  0.00    -0.308 N 
HETATM   19  N   UNL     1       7.005  -1.830   2.968  1.00  0.00    -0.281 N 
ATOM     20  HN  UNL     1       8.990  -1.739   3.749  1.00  0.00     0.186 HD
HETATM   21  C   UNL     1       7.351  -2.355   1.668  1.00  0.00     0.179 C 
ENDBRANCH   4  15
TORSDOF 3
