REMARK  8 active torsions:
REMARK  status: ('A' for Active; 'I' for Inactive)
REMARK    1  A    between atoms: C_2  and  C_3 
REMARK    2  A    between atoms: C_3  and  O_4 
REMARK    3  A    between atoms: C_3  and  C_5 
REMARK    4  A    between atoms: N_14  and  C_15 
REMARK    5  A    between atoms: C_15  and  C_16 
REMARK    6  A    between atoms: C_16  and  O_17 
REMARK    7  A    between atoms: O_17  and  C_18 
REMARK    8  A    between atoms: C_23  and  O_24 
ROOT
HETATM    1  C   UNL     1       4.330   0.116   1.474  1.00  0.00     0.114 A 
HETATM    2  N   UNL     1       5.064  -0.969   1.312  1.00  0.00    -0.342 N 
ATOM      3  HN  UNL     1       4.730  -1.916   1.134  1.00  0.00     0.167 HD
HETATM    4  C   UNL     1       6.361  -0.562   1.431  1.00  0.00     0.060 A 
HETATM    5  C   UNL     1       7.531  -1.319   1.284  1.00  0.00     0.032 A 
HETATM    6  C   UNL     1       8.764  -0.698   1.489  1.00  0.00     0.002 A 
HETATM    7  C   UNL     1       8.821   0.647   1.859  1.00  0.00     0.002 A 
HETATM    8  C   UNL     1       7.659   1.431   1.988  1.00  0.00     0.032 A 
HETATM    9  C   UNL     1       6.433   0.797   1.735  1.00  0.00     0.062 A 
HETATM   10  N   UNL     1       5.121   1.230   1.693  1.00  0.00    -0.331 N 
ENDROOT
BRANCH  10  11
HETATM   11  C   UNL     1       4.656   2.613   1.788  1.00  0.00     0.157 C 
BRANCH  11  12
HETATM   12  C   UNL     1       4.428   3.033   3.237  1.00  0.00     0.196 C 
BRANCH  12  13
HETATM   13  O   UNL     1       3.815   4.334   3.390  1.00  0.00    -0.347 OA
BRANCH  13  14
HETATM   14  C   UNL     1       3.680   4.747   4.709  1.00  0.00     0.102 A 
HETATM   15  C   UNL     1       4.484   4.197   5.733  1.00  0.00     0.039 A 
HETATM   16  C   UNL     1       4.396   4.612   7.063  1.00  0.00     0.003 A 
HETATM   17  C   UNL     1       3.498   5.601   7.413  1.00  0.00     0.003 A 
HETATM   18  C   UNL     1       2.709   6.180   6.423  1.00  0.00     0.039 A 
HETATM   19  C   UNL     1       2.785   5.773   5.073  1.00  0.00     0.101 A 
BRANCH  19  20
HETATM   20  O   UNL     1       1.971   6.547   4.297  1.00  0.00    -0.353 OA
HETATM   21  C   UNL     1       1.409   6.033   3.106  1.00  0.00     0.210 C 
ENDBRANCH  19  20
ENDBRANCH  13  14
ENDBRANCH  12  13
ENDBRANCH  11  12
ENDBRANCH  10  11
BRANCH   1  22
HETATM   22  C   UNL     1       2.837   0.111   1.382  1.00  0.00     0.185 C 
BRANCH  22  23
HETATM   23  C   UNL     1       2.369  -0.304  -0.015  1.00  0.00     0.035 C 
HETATM   24  C   UNL     1       2.808   0.665  -1.102  1.00  0.00     0.008 C 
ENDBRANCH  22  23
BRANCH  22  25
HETATM   25  O   UNL     1       2.390  -0.870   2.321  1.00  0.00    -0.388 OA
HETATM   26  H   UNL     1       3.012  -1.619   2.227  1.00  0.00     0.210 HD
ENDBRANCH  22  25
ENDBRANCH   1  22
TORSDOF 8
