REMARK  7 active torsions:
REMARK  status: ('A' for Active; 'I' for Inactive)
REMARK    1  A    between atoms: C_2  and  N_3 
REMARK    2  A    between atoms: C_2  and  C_13 
REMARK    3  A    between atoms: N_3  and  C_4 
REMARK    4  A    between atoms: C_4  and  C_5 
REMARK    5  A    between atoms: C_5  and  N_6 
REMARK       I    between atoms: C_13  and  N_15 
REMARK    6  A    between atoms: N_15  and  C_16 
REMARK    7  A    between atoms: C_16  and  C_17 
ROOT
HETATM    1  C   UNL     1       3.000   1.046  -1.229  1.00  0.00     0.053 C 
HETATM    2  C   UNL     1       2.533   0.192  -0.054  1.00  0.00     0.307 C 
ENDROOT
BRANCH   2   3
HETATM    3  N   UNL     1       2.980  -1.207  -0.234  1.00  0.00     0.098 N 
HETATM    4  H   UNL     1       4.006  -1.197  -0.209  1.00  0.00     0.317 HD
BRANCH   3   5
HETATM    5  C   UNL     1       2.527  -2.110   0.847  1.00  0.00     0.292 C 
BRANCH   5   6
HETATM    6  C   UNL     1       1.008  -2.261   0.955  1.00  0.00     0.178 C 
BRANCH   6   7
HETATM    7  N   UNL     1       0.636  -3.146   2.043  1.00  0.00    -0.302 N 
HETATM    8  C   UNL     1       0.395  -4.486   1.961  1.00  0.00     0.118 A 
HETATM    9  C   UNL     1       0.062  -4.896   3.235  1.00  0.00    -0.028 A 
HETATM   10  C   UNL     1      -0.283  -6.258   3.696  1.00  0.00     0.051 C 
HETATM   11  C   UNL     1       0.123  -3.714   4.005  1.00  0.00     0.115 A 
HETATM   12  N   UNL     1       0.467  -2.647   3.281  1.00  0.00    -0.310 N 
ATOM     13  HN  UNL     1       0.576  -1.682   3.592  1.00  0.00     0.186 HD
ENDBRANCH   6   7
ENDBRANCH   5   6
ENDBRANCH   3   5
ENDBRANCH   2   3
BRANCH   2  14
HETATM   14  C   UNL     1       3.099   0.796   1.245  1.00  0.00     0.250 C 
HETATM   15  O   UNL     1       4.245   0.596   1.637  1.00  0.00    -0.271 OA
HETATM   16  N   UNL     1       2.202   1.577   1.941  1.00  0.00    -0.351 N 
HETATM   17  H   UNL     1       1.355   1.886   1.478  1.00  0.00     0.162 HD
BRANCH  16  18
HETATM   18  C   UNL     1       2.612   2.260   3.167  1.00  0.00     0.240 C 
BRANCH  18  19
HETATM   19  C   UNL     1       3.419   3.550   2.968  1.00  0.00     0.403 C 
HETATM   20  F   UNL     1       3.542   3.879   1.661  1.00  0.00    -0.169 F 
HETATM   21  F   UNL     1       2.789   4.588   3.574  1.00  0.00    -0.169 F 
HETATM   22  F   UNL     1       4.656   3.465   3.498  1.00  0.00    -0.169 F 
ENDBRANCH  18  19
ENDBRANCH  16  18
ENDBRANCH   2  14
TORSDOF 7
