REMARK  4 active torsions:
REMARK  status: ('A' for Active; 'I' for Inactive)
REMARK    1  A    between atoms: C_8  and  N_9 
REMARK       I    between atoms: N_9  and  C_10 
REMARK       I    between atoms: C_10  and  N_12 
REMARK    2  A    between atoms: N_12  and  C_13 
REMARK    3  A    between atoms: C_13  and  C_14 
REMARK       I    between atoms: C_14  and  N_16 
REMARK    4  A    between atoms: N_16  and  C_17 
ROOT
HETATM    1  N   UNL     1       5.410   2.486  -0.007  1.00  0.00    -0.295 N 
HETATM    2  C   UNL     1       6.781   2.418  -0.029  1.00  0.00     0.322 C 
HETATM    3  O   UNL     1       7.356   1.328  -0.001  1.00  0.00    -0.247 OA
HETATM    4  N   UNL     1       7.436   3.599  -0.085  1.00  0.00    -0.334 N 
HETATM    5  H   UNL     1       4.954   1.588   0.026  1.00  0.00     0.172 HD
HETATM    6  H   UNL     1       6.849   4.438  -0.061  1.00  0.00     0.164 HD
ENDROOT
BRANCH   1   7
HETATM    7  C   UNL     1       4.618   3.644  -0.010  1.00  0.00     0.109 A 
HETATM    8  N   UNL     1       5.233   4.843  -0.037  1.00  0.00    -0.346 N 
HETATM    9  C   UNL     1       4.503   5.975  -0.033  1.00  0.00     0.007 A 
ATOM     10  HN  UNL     1       6.251   4.893  -0.060  1.00  0.00     0.167 HD
HETATM   11  C   UNL     1       3.120   5.950  -0.004  1.00  0.00     0.031 A 
HETATM   12  C   UNL     1       5.278   7.255  -0.062  1.00  0.00     0.068 C 
HETATM   13  C   UNL     1       2.469   4.713   0.022  1.00  0.00    -0.057 A 
HETATM   14  C   UNL     1       0.972   4.649   0.050  1.00  0.00     0.048 C 
HETATM   15  C   UNL     1       3.236   3.538   0.021  1.00  0.00     0.055 A 
ENDBRANCH   1   7
BRANCH   4  16
HETATM   16  C   UNL     1       8.857   3.813  -0.065  1.00  0.00     0.227 C 
BRANCH  16  17
HETATM   17  C   UNL     1       9.113   5.329  -0.046  1.00  0.00     0.235 C 
HETATM   18  O   UNL     1       8.215   6.164   0.037  1.00  0.00    -0.272 OA
HETATM   19  N   UNL     1      10.439   5.676  -0.124  1.00  0.00    -0.355 N 
HETATM   20  H   UNL     1      11.126   4.934  -0.170  1.00  0.00     0.162 HD
BRANCH  19  21
HETATM   21  C   UNL     1      10.928   7.044  -0.128  1.00  0.00     0.084 C 
HETATM   22  C   UNL     1      10.430   7.886  -1.309  1.00  0.00     0.025 C 
HETATM   23  C   UNL     1      11.234   9.185  -1.380  1.00  0.00     0.002 C 
HETATM   24  C   UNL     1      11.202   9.966  -0.064  1.00  0.00     0.000 C 
HETATM   25  C   UNL     1      11.477   9.103   1.171  1.00  0.00     0.002 C 
HETATM   26  C   UNL     1      10.660   7.810   1.173  1.00  0.00     0.025 C 
ENDBRANCH  19  21
ENDBRANCH  16  17
ENDBRANCH   4  16
TORSDOF 4
