REMARK  4 active torsions:
REMARK  status: ('A' for Active; 'I' for Inactive)
REMARK    1  A    between atoms: N_1  and  C_10 
REMARK    2  A    between atoms: C_7  and  N_13 
REMARK    3  A    between atoms: N_13  and  C_16 
REMARK    4  A    between atoms: C_16  and  C_17 
ROOT
HETATM    1  N   UNL     1       1.393   1.183   0.151  1.00  0.00    -0.300 N 
HETATM    2  C   UNL     1       0.132   0.653   0.219  1.00  0.00     0.142 A 
HETATM    3  C   UNL     1       0.316  -0.717   0.225  1.00  0.00     0.122 A 
HETATM    4  N   UNL     1       1.667  -1.019   0.272  1.00  0.00    -0.346 N 
ATOM      5  HN  UNL     1       2.094  -1.944   0.326  1.00  0.00     0.167 HD
HETATM    6  C   UNL     1       2.284   0.150   0.231  1.00  0.00     0.188 A 
HETATM    7  C   UNL     1      -0.853  -1.501   0.128  1.00  0.00     0.133 A 
HETATM    8  N   UNL     1      -1.024   1.333   0.167  1.00  0.00    -0.336 N 
ATOM      9  HN  UNL     1      -1.096   2.350   0.159  1.00  0.00     0.168 HD
HETATM   10  N   UNL     1      -2.050  -0.847   0.102  1.00  0.00    -0.337 N 
ATOM     11  HN  UNL     1      -2.923  -1.374   0.064  1.00  0.00     0.168 HD
HETATM   12  C   UNL     1      -2.070   0.498   0.127  1.00  0.00     0.183 A 
ENDROOT
BRANCH   7  13
HETATM   13  N   UNL     1      -0.814  -2.876  -0.040  1.00  0.00    -0.370 N 
HETATM   14  H   UNL     1       0.097  -3.274   0.166  1.00  0.00     0.161 HD
BRANCH  13  15
HETATM   15  C   UNL     1      -1.966  -3.633   0.400  1.00  0.00     0.160 C 
BRANCH  15  16
HETATM   16  C   UNL     1      -2.103  -4.876  -0.447  1.00  0.00    -0.041 A 
HETATM   17  C   UNL     1      -2.064  -6.151   0.129  1.00  0.00     0.009 A 
HETATM   18  C   UNL     1      -2.227  -7.288  -0.666  1.00  0.00     0.001 A 
HETATM   19  C   UNL     1      -2.431  -7.161  -2.040  1.00  0.00     0.000 A 
HETATM   20  C   UNL     1      -2.473  -5.900  -2.625  1.00  0.00     0.001 A 
HETATM   21  C   UNL     1      -2.314  -4.762  -1.832  1.00  0.00     0.009 A 
ENDBRANCH  15  16
ENDBRANCH  13  15
ENDBRANCH   7  13
BRANCH   1  22
HETATM   22  C   UNL     1       1.602   2.545  -0.299  1.00  0.00     0.230 C 
HETATM   23  O   UNL     1       2.751   3.152   0.299  1.00  0.00    -0.366 OA
HETATM   24  C   UNL     1       2.713   4.569   0.054  1.00  0.00     0.170 C 
HETATM   25  C   UNL     1       2.658   4.911  -1.442  1.00  0.00     0.026 C 
HETATM   26  C   UNL     1       1.642   4.073  -2.218  1.00  0.00     0.006 C 
HETATM   27  C   UNL     1       1.747   2.611  -1.818  1.00  0.00     0.054 C 
ENDBRANCH   1  22
TORSDOF 4
