REMARK  3 active torsions:
REMARK  status: ('A' for Active; 'I' for Inactive)
REMARK    1  A    between atoms: C_2  and  N_3 
REMARK    2  A    between atoms: C_2  and  C_13 
REMARK       I    between atoms: N_3  and  C_4 
REMARK       I    between atoms: C_4  and  N_6 
REMARK    3  A    between atoms: N_6  and  C_7 
ROOT
HETATM    1  N   UNL     1       2.795  -0.295   1.413  1.00  0.00    -0.336 N 
HETATM    2  C   UNL     1       4.058   0.078   1.825  1.00  0.00     0.321 C 
HETATM    3  O   UNL     1       4.886   0.554   1.057  1.00  0.00    -0.247 OA
HETATM    4  N   UNL     1       4.218  -0.099   3.181  1.00  0.00    -0.306 N 
HETATM    5  H   UNL     1       2.457  -1.156   1.821  1.00  0.00     0.164 HD
HETATM    6  H   UNL     1       3.388  -0.271   3.729  1.00  0.00     0.171 HD
ENDROOT
BRANCH   1   7
HETATM    7  C   UNL     1       2.385  -0.076   0.020  1.00  0.00     0.111 C 
HETATM    8  C   UNL     1       0.865   0.071  -0.015  1.00  0.00     0.035 C 
BRANCH   7   9
HETATM    9  C   UNL     1       2.923  -1.197  -0.896  1.00  0.00     0.143 C 
HETATM   10  C   UNL     1       2.696  -0.979  -2.389  1.00  0.00     0.036 C 
HETATM   11  C   UNL     1       2.395  -2.359  -2.939  1.00  0.00     0.029 C 
HETATM   12  C   UNL     1       2.505  -3.283  -1.745  1.00  0.00     0.168 C 
HETATM   13  O   UNL     1       2.293  -2.459  -0.594  1.00  0.00    -0.384 OA
ENDBRANCH   7   9
ENDBRANCH   1   7
BRANCH   4  14
HETATM   14  C   UNL     1       5.379   0.228   3.857  1.00  0.00     0.070 A 
HETATM   15  C   UNL     1       6.667   0.559   3.379  1.00  0.00     0.138 A 
HETATM   16  N   UNL     1       7.526   0.827   4.369  1.00  0.00    -0.310 N 
HETATM   17  N   UNL     1       6.782   0.683   5.476  1.00  0.00    -0.310 N 
ATOM     18  HN  UNL     1       8.512   1.080   4.299  1.00  0.00     0.186 HD
HETATM   19  C   UNL     1       5.493   0.304   5.225  1.00  0.00     0.138 A 
HETATM   20  H   UNL     1       7.222   0.863   6.373  1.00  0.00     0.186 HD
ENDBRANCH   4  14
TORSDOF 3
