REMARK  3 active torsions:
REMARK  status: ('A' for Active; 'I' for Inactive)
REMARK    1  A    between atoms: C_8  and  N_9 
REMARK       I    between atoms: N_9  and  C_10 
REMARK       I    between atoms: C_10  and  N_12 
REMARK    2  A    between atoms: N_12  and  C_13 
REMARK    3  A    between atoms: C_16  and  O_17 
ROOT
HETATM    1  N   UNL     1       5.393   2.578   0.012  1.00  0.00    -0.295 N 
HETATM    2  C   UNL     1       6.723   2.547   0.333  1.00  0.00     0.322 C 
HETATM    3  O   UNL     1       7.211   1.532   0.823  1.00  0.00    -0.247 OA
HETATM    4  N   UNL     1       7.443   3.645  -0.028  1.00  0.00    -0.338 N 
HETATM    5  H   UNL     1       4.931   1.688   0.117  1.00  0.00     0.172 HD
HETATM    6  H   UNL     1       6.864   4.478  -0.130  1.00  0.00     0.164 HD
ENDROOT
BRANCH   1   7
HETATM    7  C   UNL     1       4.674   3.656  -0.512  1.00  0.00     0.109 A 
HETATM    8  N   UNL     1       5.229   4.889  -0.460  1.00  0.00    -0.346 N 
HETATM    9  C   UNL     1       4.557   5.930  -0.989  1.00  0.00     0.007 A 
ATOM     10  HN  UNL     1       6.142   5.028  -0.027  1.00  0.00     0.167 HD
HETATM   11  C   UNL     1       3.323   5.777  -1.603  1.00  0.00     0.031 A 
HETATM   12  C   UNL     1       5.234   7.260  -0.880  1.00  0.00     0.068 C 
HETATM   13  C   UNL     1       2.749   4.504  -1.657  1.00  0.00    -0.057 A 
HETATM   14  C   UNL     1       1.437   4.285  -2.350  1.00  0.00     0.048 C 
HETATM   15  C   UNL     1       3.430   3.429  -1.078  1.00  0.00     0.055 A 
ENDBRANCH   1   7
BRANCH   4  16
HETATM   16  C   UNL     1       8.880   3.814   0.070  1.00  0.00     0.086 C 
HETATM   17  C   UNL     1       9.275   5.214  -0.435  1.00  0.00     0.028 C 
HETATM   18  C   UNL     1       9.076   5.384  -1.948  1.00  0.00     0.034 C 
HETATM   19  C   UNL     1       9.719   4.265  -2.768  1.00  0.00     0.118 C 
HETATM   20  C   UNL     1       9.376   2.874  -2.237  1.00  0.00     0.034 C 
HETATM   21  C   UNL     1       9.634   2.746  -0.733  1.00  0.00     0.028 C 
BRANCH  19  22
HETATM   22  O   UNL     1      11.135   4.444  -2.798  1.00  0.00    -0.396 OA
HETATM   23  H   UNL     1      11.488   4.306  -1.904  1.00  0.00     0.210 HD
ENDBRANCH  19  22
ENDBRANCH   4  16
TORSDOF 3
