REMARK  3 active torsions:
REMARK  status: ('A' for Active; 'I' for Inactive)
REMARK    1  A    between atoms: N_2  and  C_8 
REMARK    2  A    between atoms: C_6  and  C_8 
REMARK    3  A    between atoms: C_6  and  O_11 
ROOT
HETATM    1  C   UNL     1       3.457   0.594  -0.022  1.00  0.00     0.103 C 
HETATM    2  N   UNL     1       5.258   0.028   1.373  1.00  0.00     0.086 N 
HETATM    3  C   UNL     1       3.328  -0.899   0.276  1.00  0.00     0.071 C 
HETATM    4  C   UNL     1       4.220   1.042   1.217  1.00  0.00     0.308 C 
HETATM    5  C   UNL     1       4.623  -1.248   1.017  1.00  0.00     0.272 C 
HETATM    6  H   UNL     1       5.675   0.018   2.331  1.00  0.00     0.315 HD
ENDROOT
BRANCH   1   7
HETATM    7  C   UNL     1       2.080   1.295  -0.183  1.00  0.00     0.185 C 
BRANCH   7   8
HETATM    8  N   UNL     1       2.188   2.740  -0.387  1.00  0.00    -0.283 N 
HETATM    9  N   UNL     1       2.794   3.316  -1.414  1.00  0.00    -0.021 NA
HETATM   10  N   UNL     1       2.671   4.634  -1.329  1.00  0.00    -0.294 N 
HETATM   11  C   UNL     1       1.970   4.903  -0.215  1.00  0.00     0.123 A 
ATOM     12  HN  UNL     1       3.041   5.318  -1.989  1.00  0.00     0.183 HD
HETATM   13  C   UNL     1       1.662   3.705   0.387  1.00  0.00     0.126 A 
ENDBRANCH   7   8
ENDBRANCH   1   7
BRANCH   1  14
HETATM   14  O   UNL     1       4.284   0.795  -1.145  1.00  0.00    -0.386 OA
HETATM   15  H   UNL     1       3.753   0.586  -1.956  1.00  0.00     0.210 HD
ENDBRANCH   1  14
TORSDOF 3
