REMARK  4 active torsions:
REMARK  status: ('A' for Active; 'I' for Inactive)
REMARK    1  A    between atoms: O_1  and  C_2 
REMARK    2  A    between atoms: C_2  and  C_3 
REMARK    3  A    between atoms: C_3  and  N_4 
REMARK       I    between atoms: N_4  and  C_5 
REMARK       I    between atoms: C_5  and  N_7 
REMARK    4  A    between atoms: N_7  and  C_8 
ROOT
HETATM    1  N   UNL     1       4.373   0.296  -1.650  1.00  0.00    -0.340 N 
HETATM    2  C   UNL     1       4.843   0.281  -2.943  1.00  0.00     0.320 C 
HETATM    3  O   UNL     1       4.104   0.161  -3.910  1.00  0.00    -0.247 OA
HETATM    4  N   UNL     1       6.206   0.482  -2.993  1.00  0.00    -0.309 N 
HETATM    5  H   UNL     1       4.980  -0.143  -0.970  1.00  0.00     0.164 HD
HETATM    6  H   UNL     1       6.546   1.100  -2.270  1.00  0.00     0.170 HD
ENDROOT
BRANCH   1   7
HETATM    7  C   UNL     1       2.936   0.166  -1.452  1.00  0.00     0.162 C 
BRANCH   7   8
HETATM    8  C   UNL     1       2.507   0.110   0.028  1.00  0.00     0.074 C 
HETATM    9  C   UNL     1       0.976   0.076   0.154  1.00  0.00     0.039 C 
HETATM   10  C   UNL     1       0.583  -1.399   0.243  1.00  0.00     0.003 C 
HETATM   11  C   UNL     1       1.881  -2.193   0.340  1.00  0.00     0.003 C 
HETATM   12  C   UNL     1       2.936  -1.174   0.739  1.00  0.00     0.039 C 
BRANCH   8  13
HETATM   13  O   UNL     1       3.031   1.234   0.731  1.00  0.00    -0.388 OA
HETATM   14  H   UNL     1       2.692   2.037   0.298  1.00  0.00     0.210 HD
ENDBRANCH   8  13
ENDBRANCH   7   8
ENDBRANCH   1   7
BRANCH   4  15
HETATM   15  C   UNL     1       6.902   0.476  -4.222  1.00  0.00     0.038 A 
HETATM   16  C   UNL     1       7.860   1.454  -4.465  1.00  0.00     0.046 A 
HETATM   17  C   UNL     1       8.462   1.473  -5.713  1.00  0.00     0.090 A 
HETATM   18  N   UNL     1       8.218   0.568  -6.685  1.00  0.00    -0.375 N 
HETATM   19  C   UNL     1       7.314  -0.393  -6.402  1.00  0.00     0.090 A 
ATOM     20  HN  UNL     1       8.693   0.609  -7.587  1.00  0.00     0.164 HD
HETATM   21  C   UNL     1       6.635  -0.479  -5.201  1.00  0.00     0.046 A 
ENDBRANCH   4  15
TORSDOF 4
