REMARK  4 active torsions:
REMARK  status: ('A' for Active; 'I' for Inactive)
REMARK    1  A    between atoms: C_5  and  C_10 
REMARK       I    between atoms: C_10  and  N_12 
REMARK    2  A    between atoms: N_12  and  C_13 
REMARK    3  A    between atoms: C_13  and  C_14 
REMARK    4  A    between atoms: C_14  and  C_15 
ROOT
HETATM    1  C   UNL     1       5.307   2.537   0.141  1.00  0.00     0.265 C 
HETATM    2  O   UNL     1       6.526   2.447   0.132  1.00  0.00    -0.266 OA
HETATM    3  N   UNL     1       4.619   3.735   0.147  1.00  0.00    -0.356 N 
HETATM    4  H   UNL     1       3.603   3.705   0.122  1.00  0.00     0.162 HD
ENDROOT
BRANCH   1   5
HETATM    5  C   UNL     1       4.477   1.255   0.145  1.00  0.00     0.094 A 
HETATM    6  N   UNL     1       3.182   1.326   0.172  1.00  0.00    -0.295 N 
HETATM    7  N   UNL     1       2.455   0.158   0.179  1.00  0.00    -0.265 N 
ATOM      8  HN  UNL     1       2.712   2.231   0.188  1.00  0.00     0.187 HD
HETATM    9  C   UNL     1       1.009   0.287   0.211  1.00  0.00     0.181 C 
HETATM   10  C   UNL     1       2.979  -1.126   0.185  1.00  0.00     0.238 A 
HETATM   11  C   UNL     1       4.471  -1.278   0.152  1.00  0.00     0.111 A 
HETATM   12  O   UNL     1       2.271  -2.137   0.217  1.00  0.00    -0.272 OA
HETATM   13  C   UNL     1       5.276  -0.010   0.108  1.00  0.00     0.073 A 
ENDBRANCH   1   5
BRANCH   3  14
HETATM   14  C   UNL     1       5.371   4.977   0.119  1.00  0.00     0.127 C 
BRANCH  14  15
HETATM   15  C   UNL     1       4.513   6.242   0.139  1.00  0.00     0.060 C 
BRANCH  15  16
HETATM   16  C   UNL     1       5.362   7.487   0.077  1.00  0.00    -0.041 A 
HETATM   17  C   UNL     1       5.733   8.058  -1.145  1.00  0.00     0.010 A 
HETATM   18  C   UNL     1       6.543   9.191  -1.164  1.00  0.00     0.018 A 
HETATM   19  C   UNL     1       6.964   9.718   0.045  1.00  0.00     0.087 A 
HETATM   20  N   UNL     1       6.633   9.195   1.244  1.00  0.00    -0.375 N 
HETATM   21  C   UNL     1       5.845   8.095   1.233  1.00  0.00     0.094 A 
ATOM     22  HN  UNL     1       6.961   9.609   2.117  1.00  0.00     0.164 HD
ENDBRANCH  15  16
ENDBRANCH  14  15
ENDBRANCH   3  14
TORSDOF 4
