REMARK  6 active torsions:
REMARK  status: ('A' for Active; 'I' for Inactive)
REMARK    1  A    between atoms: C_2  and  C_3 
REMARK    2  A    between atoms: C_2  and  N_11 
REMARK    3  A    between atoms: C_3  and  N_4 
REMARK       I    between atoms: N_11  and  C_12 
REMARK       I    between atoms: C_12  and  N_14 
REMARK    4  A    between atoms: N_14  and  C_16 
REMARK    5  A    between atoms: C_16  and  C_17 
REMARK    6  A    between atoms: C_22  and  O_23 
ROOT
HETATM    1  N   UNL     1       2.956   0.714   1.269  1.00  0.00    -0.337 N 
HETATM    2  C   UNL     1       4.292   0.793   1.555  1.00  0.00     0.318 C 
HETATM    3  O   UNL     1       5.100   0.111   0.929  1.00  0.00    -0.247 OA
HETATM    4  N   UNL     1       4.656   1.682   2.551  1.00  0.00    -0.338 N 
HETATM    5  C   UNL     1       3.726   2.363   3.446  1.00  0.00     0.154 C 
HETATM    6  H   UNL     1       2.362   1.465   1.588  1.00  0.00     0.164 HD
ENDROOT
BRANCH   1   7
HETATM    7  C   UNL     1       2.452  -0.132   0.182  1.00  0.00     0.102 C 
HETATM    8  C   UNL     1       0.932  -0.237   0.311  1.00  0.00     0.034 C 
BRANCH   7   9
HETATM    9  C   UNL     1       2.892   0.394  -1.201  1.00  0.00     0.174 C 
BRANCH   9  10
HETATM   10  N   UNL     1       2.467  -0.451  -2.298  1.00  0.00    -0.285 N 
HETATM   11  C   UNL     1       3.108  -1.530  -2.824  1.00  0.00     0.201 A 
HETATM   12  N   UNL     1       2.392  -2.024  -3.809  1.00  0.00    -0.346 N 
HETATM   13  C   UNL     1       1.315  -1.188  -3.858  1.00  0.00     0.198 A 
ATOM     14  HN  UNL     1       2.593  -2.835  -4.394  1.00  0.00     0.167 HD
HETATM   15  N   UNL     1       1.319  -0.202  -2.952  1.00  0.00    -0.293 N 
ATOM     16  HN  UNL     1       0.635   0.539  -2.799  1.00  0.00     0.188 HD
ENDBRANCH   9  10
ENDBRANCH   7   9
ENDBRANCH   1   7
BRANCH   4  17
HETATM   17  C   UNL     1       6.089   1.891   2.806  1.00  0.00     0.134 C 
BRANCH  17  18
HETATM   18  C   UNL     1       6.723   3.128   2.120  1.00  0.00     0.032 C 
HETATM   19  C   UNL     1       6.652   3.110   0.582  1.00  0.00     0.009 C 
HETATM   20  C   UNL     1       7.552   2.047  -0.050  1.00  0.00     0.001 C 
HETATM   21  C   UNL     1       9.001   2.158   0.415  1.00  0.00     0.002 C 
HETATM   22  C   UNL     1       9.118   2.222   1.934  1.00  0.00     0.032 C 
HETATM   23  C   UNL     1       8.206   3.301   2.530  1.00  0.00     0.123 C 
BRANCH  23  24
HETATM   24  O   UNL     1       8.338   3.337   3.948  1.00  0.00    -0.395 OA
HETATM   25  H   UNL     1       8.479   2.431   4.271  1.00  0.00     0.210 HD
ENDBRANCH  23  24
ENDBRANCH  17  18
ENDBRANCH   4  17
TORSDOF 6
