REMARK  4 active torsions:
REMARK  status: ('A' for Active; 'I' for Inactive)
REMARK       I    between atoms: N_1  and  C_2 
REMARK    1  A    between atoms: C_2  and  C_4 
REMARK    2  A    between atoms: C_4  and  N_5 
REMARK    3  A    between atoms: C_8  and  N_11 
REMARK       I    between atoms: N_11  and  C_12 
REMARK       I    between atoms: C_12  and  N_14 
REMARK    4  A    between atoms: N_14  and  C_15 
ROOT
HETATM    1  N   UNL     1       6.383   0.088  -2.262  1.00  0.00    -0.338 N 
HETATM    2  C   UNL     1       6.688   0.866  -3.365  1.00  0.00     0.321 C 
HETATM    3  O   UNL     1       5.836   1.502  -3.973  1.00  0.00    -0.247 OA
HETATM    4  N   UNL     1       8.017   0.782  -3.705  1.00  0.00    -0.306 N 
HETATM    5  H   UNL     1       7.106   0.011  -1.562  1.00  0.00     0.164 HD
HETATM    6  H   UNL     1       8.564   0.035  -3.305  1.00  0.00     0.171 HD
ENDROOT
BRANCH   1   7
HETATM    7  C   UNL     1       4.990  -0.018  -1.829  1.00  0.00     0.089 C 
HETATM    8  C   UNL     1       4.569   1.156  -0.937  1.00  0.00     0.055 C 
HETATM    9  C   UNL     1       4.933   0.949   0.533  1.00  0.00     0.275 C 
HETATM   10  N   UNL     1       4.509  -0.344   1.098  1.00  0.00     0.097 N 
HETATM   11  C   UNL     1       5.073  -1.438   0.291  1.00  0.00     0.275 C 
HETATM   12  C   UNL     1       4.710  -1.380  -1.193  1.00  0.00     0.055 C 
BRANCH  10  13
HETATM   13  C   UNL     1       3.030  -0.475   1.209  1.00  0.00     0.374 C 
BRANCH  13  14
HETATM   14  C   UNL     1       2.428   0.459   2.261  1.00  0.00     0.243 C 
HETATM   15  N   UNL     1       3.184   0.662   3.379  1.00  0.00    -0.369 N 
HETATM   16  H   UNL     1       2.836   1.281   4.098  1.00  0.00     0.159 HD
HETATM   17  H   UNL     1       4.131   0.306   3.417  1.00  0.00     0.159 HD
HETATM   18  O   UNL     1       1.303   0.944   2.166  1.00  0.00    -0.272 OA
ENDBRANCH  13  14
ENDBRANCH  10  13
ENDBRANCH   1   7
BRANCH   4  19
HETATM   19  C   UNL     1       8.550   1.457  -4.790  1.00  0.00     0.070 A 
HETATM   20  C   UNL     1       8.017   2.500  -5.584  1.00  0.00     0.138 A 
HETATM   21  N   UNL     1       8.843   2.861  -6.570  1.00  0.00    -0.310 N 
HETATM   22  N   UNL     1       9.893   2.041  -6.417  1.00  0.00    -0.310 N 
ATOM     23  HN  UNL     1       8.707   3.588  -7.273  1.00  0.00     0.186 HD
HETATM   24  C   UNL     1       9.781   1.203  -5.342  1.00  0.00     0.138 A 
HETATM   25  H   UNL     1      10.649   2.105  -7.091  1.00  0.00     0.186 HD
ENDBRANCH   4  19
TORSDOF 4
