REMARK  7 active torsions:
REMARK  status: ('A' for Active; 'I' for Inactive)
REMARK    1  A    between atoms: C_2  and  S_3 
REMARK    2  A    between atoms: S_3  and  C_4 
REMARK    3  A    between atoms: C_4  and  C_5 
REMARK    4  A    between atoms: C_5  and  C_6 
REMARK       I    between atoms: C_6  and  N_8 
REMARK    5  A    between atoms: N_8  and  C_9 
REMARK    6  A    between atoms: C_9  and  C_10 
REMARK    7  A    between atoms: C_15  and  N_17 
ROOT
HETATM    1  C   UNL     1       9.550   5.075   2.839  1.00  0.00    -0.036 A 
HETATM    2  C   UNL     1       8.941   6.298   2.585  1.00  0.00     0.026 A 
HETATM    3  C   UNL     1       9.479   7.417   3.183  1.00  0.00     0.090 A 
HETATM    4  N   UNL     1      10.556   7.394   4.002  1.00  0.00    -0.352 N 
ATOM      5  HN  UNL     1      10.910   8.260   4.407  1.00  0.00     0.166 HD
HETATM    6  C   UNL     1      11.160   6.217   4.280  1.00  0.00     0.103 A 
HETATM    7  C   UNL     1      10.651   5.045   3.714  1.00  0.00     0.057 A 
ENDROOT
BRANCH   1   8
HETATM    8  C   UNL     1       9.048   3.813   2.198  1.00  0.00     0.161 C 
BRANCH   8   9
HETATM    9  N   UNL     1       7.975   3.206   2.951  1.00  0.00    -0.357 N 
HETATM   10  C   UNL     1       7.373   2.063   2.472  1.00  0.00     0.218 C 
HETATM   11  O   UNL     1       7.663   1.559   1.391  1.00  0.00    -0.274 OA
HETATM   12  H   UNL     1       7.866   3.458   3.925  1.00  0.00     0.162 HD
BRANCH  10  13
HETATM   13  C   UNL     1       6.324   1.462   3.380  1.00  0.00     0.113 C 
BRANCH  13  14
HETATM   14  C   UNL     1       5.134   2.399   3.527  1.00  0.00     0.083 C 
BRANCH  14  15
HETATM   15  S   UNL     1       3.877   1.641   4.606  1.00  0.00    -0.169 SA
BRANCH  15  16
HETATM   16  C   UNL     1       2.658   2.991   4.603  1.00  0.00     0.069 C 
HETATM   17  C   UNL     1       1.461   2.610   5.454  1.00  0.00     0.016 C 
ENDBRANCH  15  16
ENDBRANCH  14  15
ENDBRANCH  13  14
ENDBRANCH  10  13
ENDBRANCH   8   9
ENDBRANCH   1   8
BRANCH   6  18
HETATM   18  N   UNL     1      12.231   6.226   5.148  1.00  0.00    -0.363 N 
HETATM   19  C   UNL     1      12.739   7.512   5.660  1.00  0.00     0.150 C 
HETATM   20  C   UNL     1      14.163   7.772   5.138  1.00  0.00     0.187 C 
HETATM   21  O   UNL     1      15.048   6.677   5.434  1.00  0.00    -0.388 OA
HETATM   22  C   UNL     1      14.555   5.467   4.837  1.00  0.00     0.187 C 
HETATM   23  C   UNL     1      13.157   5.109   5.367  1.00  0.00     0.150 C 
ENDBRANCH   6  18
TORSDOF 7
