REMARK  4 active torsions:
REMARK  status: ('A' for Active; 'I' for Inactive)
REMARK    1  A    between atoms: N_5  and  C_6 
REMARK    2  A    between atoms: C_6  and  C_7 
REMARK    3  A    between atoms: C_7  and  N_8 
REMARK       I    between atoms: N_8  and  C_9 
REMARK       I    between atoms: C_9  and  N_11 
REMARK    4  A    between atoms: N_11  and  C_12 
ROOT
HETATM    1  N   UNL     1       6.764   0.024  -3.889  1.00  0.00    -0.341 N 
HETATM    2  C   UNL     1       7.324  -1.121  -4.412  1.00  0.00     0.321 C 
HETATM    3  O   UNL     1       6.655  -2.010  -4.924  1.00  0.00    -0.247 OA
HETATM    4  N   UNL     1       8.682  -1.153  -4.212  1.00  0.00    -0.293 N 
HETATM    5  H   UNL     1       7.287   0.866  -4.083  1.00  0.00     0.164 HD
HETATM    6  H   UNL     1       9.029  -0.679  -3.392  1.00  0.00     0.172 HD
ENDROOT
BRANCH   1   7
HETATM    7  C   UNL     1       5.314   0.149  -3.839  1.00  0.00     0.154 C 
BRANCH   7   8
HETATM    8  C   UNL     1       4.696  -0.772  -2.762  1.00  0.00     0.292 C 
BRANCH   8   9
HETATM    9  N   UNL     1       3.225  -0.727  -2.678  1.00  0.00     0.090 N 
HETATM   10  C   UNL     1       2.680   0.582  -2.309  1.00  0.00     0.273 C 
HETATM   11  C   UNL     1       2.953   0.979  -0.857  1.00  0.00     0.034 C 
HETATM   12  C   UNL     1       2.470  -0.085   0.138  1.00  0.00    -0.015 C 
HETATM   13  C   UNL     1       0.945  -0.060   0.285  1.00  0.00     0.010 C 
HETATM   14  C   UNL     1       2.970  -1.474  -0.281  1.00  0.00     0.034 C 
HETATM   15  C   UNL     1       2.718  -1.771  -1.765  1.00  0.00     0.273 C 
ENDBRANCH   8   9
ENDBRANCH   7   8
ENDBRANCH   1   7
BRANCH   4  16
HETATM   16  C   UNL     1       9.415  -2.264  -4.570  1.00  0.00     0.132 A 
HETATM   17  C   UNL     1       9.204  -3.118  -5.674  1.00  0.00     0.084 A 
HETATM   18  C   UNL     1      10.119  -4.124  -5.505  1.00  0.00     0.076 A 
HETATM   19  C   UNL     1      10.405  -5.372  -6.231  1.00  0.00     0.079 C 
HETATM   20  O   UNL     1      10.873  -3.862  -4.405  1.00  0.00    -0.241 OA
HETATM   21  N   UNL     1      10.464  -2.662  -3.843  1.00  0.00    -0.245 N 
ATOM     22  HN  UNL     1      10.877  -2.183  -3.043  1.00  0.00     0.196 HD
ENDBRANCH   4  16
TORSDOF 4
