REMARK  6 active torsions:
REMARK  status: ('A' for Active; 'I' for Inactive)
REMARK    1  A    between atoms: C_2  and  O_3 
REMARK    2  A    between atoms: O_3  and  C_4 
REMARK    3  A    between atoms: C_4  and  C_5 
REMARK    4  A    between atoms: C_5  and  N_6 
REMARK    5  A    between atoms: C_7  and  C_8 
REMARK    6  A    between atoms: C_8  and  N_9 
ROOT
HETATM    1  N   UNL     1       6.410   1.411  -2.018  1.00  0.00    -0.325 N 
HETATM    2  C   UNL     1       7.180   0.459  -2.674  1.00  0.00     0.114 C 
HETATM    3  N   UNL     1       8.470   0.753  -2.566  1.00  0.00    -0.328 N 
ATOM      4  HN  UNL     1       9.260   0.189  -2.879  1.00  0.00     0.169 HD
HETATM    5  C   UNL     1       8.515   1.961  -1.952  1.00  0.00     0.145 A 
HETATM    6  N   UNL     1       9.649   2.694  -1.677  1.00  0.00    -0.288 N 
HETATM    7  C   UNL     1      10.976   2.208  -1.980  1.00  0.00     0.163 C 
HETATM    8  C   UNL     1       9.510   3.938  -1.074  1.00  0.00     0.330 A 
HETATM    9  O   UNL     1      10.461   4.662  -0.778  1.00  0.00    -0.246 OA
HETATM   10  N   UNL     1       8.228   4.365  -0.797  1.00  0.00    -0.273 N 
HETATM   11  C   UNL     1       7.057   3.688  -1.033  1.00  0.00     0.280 A 
HETATM   12  O   UNL     1       5.963   4.160  -0.739  1.00  0.00    -0.265 OA
HETATM   13  C   UNL     1       7.268   2.414  -1.635  1.00  0.00     0.149 A 
HETATM   14  H   UNL     1       8.147   5.271  -0.368  1.00  0.00     0.173 HD
ENDROOT
BRANCH   2  15
HETATM   15  C   UNL     1       6.661  -0.738  -3.434  1.00  0.00     0.349 C 
BRANCH  15  16
HETATM   16  N   UNL     1       6.303  -0.437  -4.836  1.00  0.00     0.099 N 
HETATM   17  C   UNL     1       5.810  -1.654  -5.531  1.00  0.00     0.299 C 
HETATM   18  C   UNL     1       6.906  -2.659  -5.941  1.00  0.00     0.198 C 
HETATM   19  O   UNL     1       7.930  -2.035  -6.723  1.00  0.00    -0.388 OA
HETATM   20  C   UNL     1       8.507  -0.935  -6.009  1.00  0.00     0.198 C 
HETATM   21  C   UNL     1       7.433   0.101  -5.637  1.00  0.00     0.299 C 
ENDBRANCH  15  16
ENDBRANCH   2  15
BRANCH   1  22
HETATM   22  C   UNL     1       4.974   1.419  -1.820  1.00  0.00     0.157 C 
BRANCH  22  23
HETATM   23  C   UNL     1       4.536   1.320  -0.354  1.00  0.00     0.187 C 
BRANCH  23  24
HETATM   24  O   UNL     1       3.107   1.342  -0.322  1.00  0.00    -0.390 OA
BRANCH  24  25
HETATM   25  C   UNL     1       2.584   1.415   1.003  1.00  0.00     0.163 C 
HETATM   26  C   UNL     1       1.073   1.505   0.896  1.00  0.00     0.033 C 
ENDBRANCH  24  25
ENDBRANCH  23  24
ENDBRANCH  22  23
ENDBRANCH   1  22
TORSDOF 6
