REMARK  4 active torsions:
REMARK  status: ('A' for Active; 'I' for Inactive)
REMARK    1  A    between atoms: C_2  and  C_5 
REMARK    2  A    between atoms: C_8  and  C_9 
REMARK    3  A    between atoms: C_9  and  C_10 
REMARK    4  A    between atoms: C_10  and  N_11 
REMARK       I    between atoms: N_11  and  C_12 
REMARK       I    between atoms: C_12  and  N_14 
ROOT
HETATM    1  C   UNL     1       2.532  -5.127   0.192  1.00  0.00     0.084 C 
ENDROOT
BRANCH   1   2
HETATM    2  C   UNL     1       2.998  -3.718   0.393  1.00  0.00     0.052 A 
HETATM    3  S   UNL     1       4.399  -3.430   1.348  1.00  0.00    -0.087 SA
HETATM    4  C   UNL     1       4.209  -1.749   1.100  1.00  0.00     0.077 A 
HETATM    5  C   UNL     1       3.103  -1.494   0.307  1.00  0.00     0.024 A 
HETATM    6  N   UNL     1       2.430  -2.640  -0.105  1.00  0.00    -0.356 N 
ATOM      7  HN  UNL     1       1.609  -2.644  -0.710  1.00  0.00     0.166 HD
BRANCH   5   8
HETATM    8  C   UNL     1       2.593  -0.124  -0.120  1.00  0.00    -0.008 C 
HETATM    9  C   UNL     1       3.671   0.615  -0.937  1.00  0.00     0.021 C 
HETATM   10  C   UNL     1       2.242   0.720   1.123  1.00  0.00     0.021 C 
HETATM   11  C   UNL     1       1.325  -0.236  -0.992  1.00  0.00     0.021 C 
ENDBRANCH   5   8
ENDBRANCH   1   2
BRANCH   1  12
HETATM   12  C   UNL     1       1.300  -5.219  -0.707  1.00  0.00     0.131 C 
BRANCH  12  13
HETATM   13  N   UNL     1       0.873  -6.601  -0.883  1.00  0.00    -0.343 N 
HETATM   14  C   UNL     1      -0.027  -7.170  -0.016  1.00  0.00     0.318 C 
HETATM   15  O   UNL     1      -0.485  -6.577   0.954  1.00  0.00    -0.247 OA
HETATM   16  N   UNL     1      -0.395  -8.449  -0.353  1.00  0.00    -0.334 N 
HETATM   17  C   UNL     1      -1.448  -9.124   0.378  1.00  0.00     0.127 C 
HETATM   18  C   UNL     1       0.414  -9.417  -1.066  1.00  0.00     0.127 C 
HETATM   19  C   UNL     1      -1.599 -10.488  -0.291  1.00  0.00     0.022 C 
HETATM   20  C   UNL     1      -0.580 -10.503  -1.430  1.00  0.00     0.022 C 
HETATM   21  H   UNL     1       0.757  -6.908  -1.837  1.00  0.00     0.164 HD
ENDBRANCH  12  13
ENDBRANCH   1  12
TORSDOF 4
