REMARK  6 active torsions:
REMARK  status: ('A' for Active; 'I' for Inactive)
REMARK    1  A    between atoms: N_2  and  C_4 
REMARK    2  A    between atoms: N_9  and  C_10 
REMARK    3  A    between atoms: C_10  and  C_11 
REMARK       I    between atoms: C_11  and  N_13 
REMARK    4  A    between atoms: N_13  and  C_14 
REMARK    5  A    between atoms: C_14  and  C_15 
REMARK    6  A    between atoms: C_15  and  C_16 
ROOT
HETATM    1  C   UNL     1       6.295  -0.497   2.974  1.00  0.00     0.235 C 
HETATM    2  O   UNL     1       5.456  -1.263   2.502  1.00  0.00    -0.272 OA
HETATM    3  N   UNL     1       7.442  -0.937   3.608  1.00  0.00    -0.359 N 
HETATM    4  H   UNL     1       7.920  -0.303   4.245  1.00  0.00     0.162 HD
ENDROOT
BRANCH   1   5
HETATM    5  C   UNL     1       6.109   1.017   2.902  1.00  0.00     0.234 C 
BRANCH   5   6
HETATM    6  N   UNL     1       5.239   1.553   3.947  1.00  0.00    -0.314 N 
HETATM    7  C   UNL     1       5.841   1.967   5.135  1.00  0.00     0.247 A 
HETATM    8  C   UNL     1       4.955   2.682   6.099  1.00  0.00     0.077 A 
HETATM    9  O   UNL     1       7.024   1.798   5.402  1.00  0.00    -0.268 OA
HETATM   10  C   UNL     1       3.654   2.858   5.826  1.00  0.00     0.043 A 
HETATM   11  C   UNL     1       3.090   2.339   4.599  1.00  0.00     0.118 A 
HETATM   12  C   UNL     1       3.875   1.711   3.705  1.00  0.00     0.130 A 
BRANCH  11  13
HETATM   13  N   UNL     1       1.676   2.537   4.269  1.00  0.00    -0.114 N 
HETATM   14  O   UNL     1       0.990   3.161   5.088  1.00  0.00    -0.532 OA
HETATM   15  O   UNL     1       1.252   2.088   3.195  1.00  0.00    -0.532 OA
ENDBRANCH  11  13
ENDBRANCH   5   6
ENDBRANCH   1   5
BRANCH   3  16
HETATM   16  C   UNL     1       7.707  -2.365   3.655  1.00  0.00     0.127 C 
BRANCH  16  17
HETATM   17  C   UNL     1       8.985  -2.774   4.392  1.00  0.00     0.053 C 
BRANCH  17  18
HETATM   18  C   UNL     1       9.183  -4.281   4.316  1.00  0.00    -0.082 A 
HETATM   19  C   UNL     1       9.921  -4.836   3.344  1.00  0.00    -0.024 A 
HETATM   20  C   UNL     1      10.101  -6.301   3.138  1.00  0.00     0.027 A 
HETATM   21  C   UNL     1       9.456  -7.234   4.156  1.00  0.00     0.004 A 
HETATM   22  C   UNL     1       8.643  -6.622   5.294  1.00  0.00     0.005 A 
HETATM   23  C   UNL     1       8.470  -5.104   5.349  1.00  0.00     0.034 A 
ENDBRANCH  17  18
ENDBRANCH  16  17
ENDBRANCH   3  16
TORSDOF 6
