REMARK  4 active torsions:
REMARK  status: ('A' for Active; 'I' for Inactive)
REMARK    1  A    between atoms: C_2  and  C_3 
REMARK    2  A    between atoms: C_3  and  N_6 
REMARK       I    between atoms: N_6  and  C_7 
REMARK    3  A    between atoms: C_7  and  C_9 
REMARK    4  A    between atoms: C_9  and  N_10 
ROOT
HETATM    1  C   UNL     1       6.730  -1.445  -2.197  1.00  0.00     0.235 C 
ENDROOT
BRANCH   1   2
HETATM    2  C   UNL     1       5.214  -1.488  -2.381  1.00  0.00     0.236 C 
HETATM    3  N   UNL     1       4.501  -0.896  -1.353  1.00  0.00    -0.351 N 
HETATM    4  H   UNL     1       5.023  -0.733  -0.492  1.00  0.00     0.163 HD
HETATM    5  O   UNL     1       4.706  -2.075  -3.334  1.00  0.00    -0.272 OA
BRANCH   3   6
HETATM    6  C   UNL     1       3.031  -0.886  -1.258  1.00  0.00     0.025 C 
HETATM    7  C   UNL     1       2.495  -2.325  -1.120  1.00  0.00     0.038 C 
HETATM    8  C   UNL     1       2.410  -0.227  -2.504  1.00  0.00     0.038 C 
BRANCH   6   9
HETATM    9  C   UNL     1       2.596  -0.113   0.021  1.00  0.00     0.026 C 
HETATM   10  C   UNL     1       3.017   1.351   0.084  1.00  0.00     0.007 C 
ENDBRANCH   6   9
ENDBRANCH   3   6
ENDBRANCH   1   2
BRANCH   1  11
HETATM   11  N   UNL     1       7.135  -2.615  -1.422  1.00  0.00    -0.301 N 
HETATM   12  C   UNL     1       7.466  -3.785  -2.074  1.00  0.00     0.102 C 
HETATM   13  C   UNL     1       7.704  -4.914  -1.406  1.00  0.00     0.092 C 
HETATM   14  C   UNL     1       7.590  -4.903   0.060  1.00  0.00     0.250 C 
HETATM   15  O   UNL     1       7.671  -5.941   0.709  1.00  0.00    -0.268 OA
HETATM   16  N   UNL     1       7.366  -3.687   0.635  1.00  0.00    -0.275 N 
HETATM   17  C   UNL     1       7.038  -2.544  -0.040  1.00  0.00     0.329 C 
HETATM   18  H   UNL     1       7.246  -3.674   1.636  1.00  0.00     0.173 HD
HETATM   19  O   UNL     1       6.646  -1.544   0.561  1.00  0.00    -0.246 OA
ENDBRANCH   1  11
TORSDOF 4
