REMARK  7 active torsions:
REMARK  status: ('A' for Active; 'I' for Inactive)
REMARK    1  A    between atoms: C_2  and  C_4 
REMARK    2  A    between atoms: C_7  and  C_10 
REMARK    3  A    between atoms: C_10  and  O_11 
REMARK    4  A    between atoms: C_10  and  C_12 
REMARK    5  A    between atoms: C_12  and  N_13 
REMARK    6  A    between atoms: C_14  and  C_15 
REMARK    7  A    between atoms: C_15  and  O_16 
ROOT
HETATM    1  N   UNL     1       3.570   3.549  -6.963  1.00  0.00    -0.330 N 
HETATM    2  C   UNL     1       2.479   3.952  -7.708  1.00  0.00     0.108 A 
HETATM    3  N   UNL     1       2.872   4.554  -8.817  1.00  0.00    -0.342 N 
ATOM      4  HN  UNL     1       2.276   4.923  -9.558  1.00  0.00     0.167 HD
HETATM    5  C   UNL     1       4.244   4.582  -8.771  1.00  0.00     0.060 A 
HETATM    6  C   UNL     1       5.158   5.112  -9.692  1.00  0.00     0.032 A 
HETATM    7  C   UNL     1       6.528   5.016  -9.420  1.00  0.00     0.002 A 
HETATM    8  C   UNL     1       6.979   4.406  -8.249  1.00  0.00     0.002 A 
HETATM    9  C   UNL     1       6.079   3.866  -7.321  1.00  0.00     0.032 A 
HETATM   10  C   UNL     1       4.712   3.967  -7.615  1.00  0.00     0.062 A 
ENDROOT
BRANCH   1  11
HETATM   11  C   UNL     1       3.559   2.678  -5.801  1.00  0.00     0.167 C 
BRANCH  11  12
HETATM   12  C   UNL     1       3.411   3.397  -4.451  1.00  0.00     0.169 C 
BRANCH  12  13
HETATM   13  C   UNL     1       3.289   2.465  -3.252  1.00  0.00    -0.028 A 
HETATM   14  C   UNL     1       3.046   3.015  -1.983  1.00  0.00     0.010 A 
HETATM   15  C   UNL     1       2.832   2.194  -0.870  1.00  0.00     0.008 A 
HETATM   16  C   UNL     1       2.853   0.798  -0.991  1.00  0.00    -0.055 A 
HETATM   17  C   UNL     1       3.150   0.249  -2.242  1.00  0.00     0.008 A 
HETATM   18  C   UNL     1       3.371   1.069  -3.352  1.00  0.00     0.010 A 
BRANCH  16  19
HETATM   19  C   UNL     1       2.431  -0.064   0.186  1.00  0.00     0.010 C 
HETATM   20  C   UNL     1       0.922  -0.316   0.093  1.00  0.00     0.015 C 
HETATM   21  C   UNL     1       3.182  -1.394   0.305  1.00  0.00     0.015 C 
ENDBRANCH  16  19
ENDBRANCH  12  13
BRANCH  12  22
HETATM   22  O   UNL     1       4.535   4.257  -4.238  1.00  0.00    -0.389 OA
HETATM   23  H   UNL     1       5.243   3.724  -3.838  1.00  0.00     0.210 HD
ENDBRANCH  12  22
ENDBRANCH  11  12
ENDBRANCH   1  11
BRANCH   2  24
HETATM   24  C   UNL     1       1.059   3.756  -7.307  1.00  0.00     0.240 C 
BRANCH  24  25
HETATM   25  O   UNL     1       0.781   2.361  -7.284  1.00  0.00    -0.393 OA
HETATM   26  H   UNL     1       0.761   2.082  -8.218  1.00  0.00     0.209 HD
ENDBRANCH  24  25
ENDBRANCH   2  24
TORSDOF 7
