REMARK  7 active torsions:
REMARK  status: ('A' for Active; 'I' for Inactive)
REMARK    1  A    between atoms: C_2  and  N_3 
REMARK       I    between atoms: N_3  and  C_4 
REMARK    2  A    between atoms: C_4  and  C_6 
REMARK    3  A    between atoms: C_6  and  N_7 
REMARK    4  A    between atoms: C_10  and  N_11 
REMARK    5  A    between atoms: N_11  and  C_12 
REMARK    6  A    between atoms: C_12  and  C_14 
REMARK    7  A    between atoms: C_14  and  O_15 
ROOT
HETATM    1  N   UNL     1       6.556   1.443   2.600  1.00  0.00    -0.293 N 
HETATM    2  C   UNL     1       7.353   0.491   3.162  1.00  0.00     0.114 A 
HETATM    3  C   UNL     1       8.638   0.964   3.033  1.00  0.00     0.068 A 
HETATM    4  C   UNL     1       8.521   2.198   2.357  1.00  0.00     0.117 A 
HETATM    5  N   UNL     1       7.250   2.468   2.059  1.00  0.00    -0.283 N 
ATOM      6  HN  UNL     1       6.885   3.267   1.540  1.00  0.00     0.188 HD
ENDROOT
BRANCH   1   7
HETATM    7  C   UNL     1       5.104   1.458   2.558  1.00  0.00     0.250 C 
BRANCH   7   8
HETATM    8  C   UNL     1       4.493   2.607   3.339  1.00  0.00     0.237 C 
HETATM    9  N   UNL     1       5.163   3.809   3.275  1.00  0.00    -0.360 N 
HETATM   10  H   UNL     1       6.081   3.811   2.816  1.00  0.00     0.162 HD
HETATM   11  O   UNL     1       3.424   2.477   3.936  1.00  0.00    -0.272 OA
BRANCH   9  12
HETATM   12  C   UNL     1       4.732   4.976   4.006  1.00  0.00     0.118 C 
HETATM   13  C   UNL     1       5.733   6.108   3.888  1.00  0.00     0.026 C 
ENDBRANCH   9  12
ENDBRANCH   7   8
ENDBRANCH   1   7
BRANCH   4  14
HETATM   14  N   UNL     1       9.589   2.976   2.078  1.00  0.00    -0.369 N 
HETATM   15  H   UNL     1      10.498   2.525   2.154  1.00  0.00     0.161 HD
BRANCH  14  16
HETATM   16  C   UNL     1       9.543   3.894   0.928  1.00  0.00     0.103 C 
HETATM   17  C   UNL     1       9.002   5.256   1.361  1.00  0.00     0.034 C 
BRANCH  16  18
HETATM   18  C   UNL     1      10.968   4.063   0.355  1.00  0.00     0.191 C 
BRANCH  18  19
HETATM   19  O   UNL     1      11.462   2.786  -0.071  1.00  0.00    -0.394 OA
HETATM   20  C   UNL     1      12.763   2.885  -0.631  1.00  0.00     0.201 C 
ENDBRANCH  18  19
ENDBRANCH  16  18
ENDBRANCH  14  16
ENDBRANCH   4  14
TORSDOF 7
