REMARK  5 active torsions:
REMARK  status: ('A' for Active; 'I' for Inactive)
REMARK    1  A    between atoms: C_2  and  C_3 
REMARK       I    between atoms: C_2  and  N_20 
REMARK    2  A    between atoms: C_3  and  N_4 
REMARK       I    between atoms: N_4  and  C_5 
REMARK       I    between atoms: C_5  and  N_7 
REMARK    3  A    between atoms: N_7  and  C_8 
REMARK    4  A    between atoms: C_14  and  N_15 
REMARK    5  A    between atoms: N_20  and  C_21 
ROOT
HETATM    1  C   UNL     1       2.335  -1.316  -2.803  1.00  0.00     0.216 C 
HETATM    2  C   UNL     1       3.287  -1.968  -3.792  1.00  0.00    -0.098 C 
HETATM    3  C   UNL     1       4.105  -2.527  -4.640  1.00  0.00     0.014 C 
ENDROOT
BRANCH   1   4
HETATM    4  N   UNL     1       2.897  -0.098  -2.249  1.00  0.00    -0.349 N 
HETATM    5  C   UNL     1       2.215   0.652  -1.309  1.00  0.00     0.236 C 
HETATM    6  O   UNL     1       1.114   0.323  -0.864  1.00  0.00    -0.272 OA
HETATM    7  H   UNL     1       3.795   0.216  -2.596  1.00  0.00     0.163 HD
BRANCH   5   8
HETATM    8  C   UNL     1       2.949   1.919  -0.829  1.00  0.00     0.226 C 
BRANCH   8   9
HETATM    9  N   UNL     1       2.140   2.734   0.070  1.00  0.00    -0.339 N 
HETATM   10  C   UNL     1       2.690   3.835   0.697  1.00  0.00     0.299 C 
HETATM   11  O   UNL     1       3.845   4.204   0.508  1.00  0.00    -0.254 OA
HETATM   12  N   UNL     1       1.740   4.487   1.468  1.00  0.00    -0.207 NA
HETATM   13  H   UNL     1       0.874   4.535   0.949  1.00  0.00     0.138 HD
HETATM   14  H   UNL     1       1.410   2.247   0.576  1.00  0.00     0.164 HD
BRANCH  12  15
HETATM   15  C   UNL     1       2.085   5.703   2.130  1.00  0.00     0.060 A 
HETATM   16  C   UNL     1       1.712   6.900   1.505  1.00  0.00     0.029 A 
HETATM   17  C   UNL     1       2.051   8.113   2.082  1.00  0.00     0.019 A 
HETATM   18  C   UNL     1       2.742   8.088   3.274  1.00  0.00     0.090 A 
HETATM   19  N   UNL     1       3.092   6.949   3.919  1.00  0.00    -0.351 N 
HETATM   20  C   UNL     1       2.755   5.747   3.376  1.00  0.00     0.125 A 
ATOM     21  HN  UNL     1       3.602   6.992   4.801  1.00  0.00     0.166 HD
BRANCH  20  22
HETATM   22  N   UNL     1       3.043   4.611   4.119  1.00  0.00    -0.366 N 
HETATM   23  C   UNL     1       3.867   4.711   5.321  1.00  0.00     0.124 C 
HETATM   24  C   UNL     1       3.379   3.591   6.242  1.00  0.00     0.021 C 
HETATM   25  C   UNL     1       2.021   3.190   5.697  1.00  0.00     0.021 C 
HETATM   26  C   UNL     1       2.096   3.511   4.212  1.00  0.00     0.124 C 
ENDBRANCH  20  22
ENDBRANCH  12  15
ENDBRANCH   8   9
ENDBRANCH   5   8
ENDBRANCH   1   4
TORSDOF 5
