REMARK  5 active torsions:
REMARK  status: ('A' for Active; 'I' for Inactive)
REMARK    1  A    between atoms: O_2  and  C_3 
REMARK    2  A    between atoms: C_8  and  N_9 
REMARK       I    between atoms: N_9  and  C_10 
REMARK    3  A    between atoms: C_10  and  C_12 
REMARK    4  A    between atoms: C_12  and  O_13 
REMARK    5  A    between atoms: O_13  and  C_14 
ROOT
HETATM    1  N   UNL     1       4.812   1.309  -3.662  1.00  0.00    -0.311 N 
HETATM    2  C   UNL     1       5.792   0.330  -3.761  1.00  0.00     0.246 C 
HETATM    3  O   UNL     1       6.135  -0.447  -2.873  1.00  0.00    -0.271 OA
HETATM    4  H   UNL     1       4.557   1.833  -4.486  1.00  0.00     0.170 HD
ENDROOT
BRANCH   1   5
HETATM    5  C   UNL     1       4.082   1.562  -2.489  1.00  0.00     0.110 A 
HETATM    6  N   UNL     1       4.423   0.948  -1.349  1.00  0.00    -0.352 N 
HETATM    7  C   UNL     1       3.699   1.187  -0.242  1.00  0.00     0.092 A 
ATOM      8  HN  UNL     1       5.218   0.310  -1.321  1.00  0.00     0.166 HD
HETATM    9  C   UNL     1       2.631   2.057  -0.206  1.00  0.00     0.053 A 
HETATM   10  C   UNL     1       2.300   2.721  -1.379  1.00  0.00     0.073 A 
HETATM   11  C   UNL     1       3.022   2.460  -2.546  1.00  0.00     0.085 A 
BRANCH  10  12
HETATM   12  O   UNL     1       1.273   3.620  -1.501  1.00  0.00    -0.356 OA
HETATM   13  C   UNL     1       0.908   4.288  -0.295  1.00  0.00     0.210 C 
ENDBRANCH  10  12
ENDBRANCH   1   5
BRANCH   2  14
HETATM   14  C   UNL     1       6.452   0.266  -5.144  1.00  0.00     0.271 C 
BRANCH  14  15
HETATM   15  O   UNL     1       6.639  -1.098  -5.494  1.00  0.00    -0.377 OA
BRANCH  15  16
HETATM   16  C   UNL     1       7.410  -1.344  -6.668  1.00  0.00     0.122 C 
HETATM   17  C   UNL     1       6.678  -0.876  -7.929  1.00  0.00     0.032 C 
HETATM   18  C   UNL     1       5.333  -1.587  -8.080  1.00  0.00     0.002 C 
HETATM   19  C   UNL     1       5.513  -3.103  -8.112  1.00  0.00     0.000 C 
HETATM   20  C   UNL     1       6.302  -3.615  -6.909  1.00  0.00     0.002 C 
HETATM   21  C   UNL     1       7.625  -2.864  -6.733  1.00  0.00     0.032 C 
ENDBRANCH  15  16
ENDBRANCH  14  15
ENDBRANCH   2  14
TORSDOF 5
