REMARK  8 active torsions:
REMARK  status: ('A' for Active; 'I' for Inactive)
REMARK    1  A    between atoms: O_2  and  C_3 
REMARK    2  A    between atoms: C_3  and  C_4 
REMARK    3  A    between atoms: C_4  and  N_5 
REMARK    4  A    between atoms: N_8  and  C_9 
REMARK    5  A    between atoms: C_9  and  C_10 
REMARK    6  A    between atoms: C_10  and  O_11 
REMARK    7  A    between atoms: C_10  and  C_12 
REMARK    8  A    between atoms: C_12  and  N_13 
ROOT
HETATM    1  C   UNL     1       3.373  -5.255  -4.451  1.00  0.00     0.164 C 
ENDROOT
BRANCH   1   2
HETATM    2  C   UNL     1       4.490  -4.672  -3.535  1.00  0.00     0.305 C 
BRANCH   2   3
HETATM    3  N   UNL     1       4.051  -4.069  -2.255  1.00  0.00     0.094 N 
HETATM    4  C   UNL     1       3.116  -2.934  -2.413  1.00  0.00     0.302 C 
HETATM    5  C   UNL     1       3.764  -1.680  -3.051  1.00  0.00     0.302 C 
HETATM    6  N   UNL     1       4.925  -1.162  -2.291  1.00  0.00     0.093 N 
HETATM    7  C   UNL     1       5.860  -2.269  -2.012  1.00  0.00     0.302 C 
HETATM    8  C   UNL     1       5.213  -3.574  -1.473  1.00  0.00     0.302 C 
BRANCH   6   9
HETATM    9  C   UNL     1       4.452  -0.444  -1.088  1.00  0.00     0.298 C 
BRANCH   9  10
HETATM   10  C   UNL     1       5.518   0.199  -0.183  1.00  0.00     0.197 C 
BRANCH  10  11
HETATM   11  O   UNL     1       6.264   1.190  -0.887  1.00  0.00    -0.394 OA
HETATM   12  C   UNL     1       7.269   1.760  -0.060  1.00  0.00     0.201 C 
ENDBRANCH  10  11
ENDBRANCH   9  10
ENDBRANCH   6   9
ENDBRANCH   2   3
ENDBRANCH   1   2
BRANCH   1  13
HETATM   13  O   UNL     1       2.494  -4.225  -4.919  1.00  0.00    -0.392 OA
HETATM   14  H   UNL     1       3.026  -3.512  -5.309  1.00  0.00     0.210 HD
ENDBRANCH   1  13
BRANCH   1  15
HETATM   15  C   UNL     1       4.000  -5.928  -5.681  1.00  0.00     0.163 C 
BRANCH  15  16
HETATM   16  N   UNL     1       3.011  -6.508  -6.569  1.00  0.00    -0.339 N 
HETATM   17  C   UNL     1       2.325  -5.822  -7.536  1.00  0.00     0.184 A 
HETATM   18  N   UNL     1       1.551  -6.614  -8.240  1.00  0.00    -0.350 N 
HETATM   19  C   UNL     1       1.742  -7.863  -7.706  1.00  0.00     0.060 A 
ATOM     20  HN  UNL     1       0.940  -6.357  -9.015  1.00  0.00     0.166 HD
HETATM   21  C   UNL     1       1.179  -9.087  -8.087  1.00  0.00     0.039 A 
HETATM   22  C   UNL     1       2.649  -7.828  -6.651  1.00  0.00     0.062 A 
HETATM   23  C   UNL     1       1.559 -10.269  -7.420  1.00  0.00    -0.054 A 
HETATM   24  C   UNL     1       0.969 -11.570  -7.891  1.00  0.00     0.049 C 
HETATM   25  C   UNL     1       2.484 -10.209  -6.355  1.00  0.00    -0.054 A 
HETATM   26  C   UNL     1       2.986 -11.437  -5.640  1.00  0.00     0.049 C 
HETATM   27  C   UNL     1       3.023  -8.972  -5.943  1.00  0.00     0.039 A 
ENDBRANCH  15  16
ENDBRANCH   1  15
TORSDOF 8
