REMARK  5 active torsions:
REMARK  status: ('A' for Active; 'I' for Inactive)
REMARK    1  A    between atoms: C_7  and  N_8 
REMARK       I    between atoms: N_8  and  C_9 
REMARK       I    between atoms: C_9  and  N_11 
REMARK       I    between atoms: N_11  and  C_12 
REMARK    2  A    between atoms: C_12  and  C_14 
REMARK    3  A    between atoms: C_14  and  N_15 
REMARK    4  A    between atoms: C_22  and  C_23 
REMARK    5  A    between atoms: C_23  and  N_24 
ROOT
HETATM    1  N   UNL     1       2.539  -2.476   0.629  1.00  0.00    -0.338 N 
HETATM    2  C   UNL     1       2.982  -2.507   1.919  1.00  0.00     0.323 C 
HETATM    3  O   UNL     1       3.806  -1.729   2.389  1.00  0.00    -0.247 OA
HETATM    4  N   UNL     1       2.453  -3.505   2.701  1.00  0.00    -0.278 N 
HETATM    5  C   UNL     1       1.377  -4.330   2.415  1.00  0.00     0.245 C 
HETATM    6  O   UNL     1       0.728  -4.264   1.370  1.00  0.00    -0.271 OA
HETATM    7  H   UNL     1       1.745  -3.076   0.411  1.00  0.00     0.164 HD
HETATM    8  H   UNL     1       2.839  -3.546   3.636  1.00  0.00     0.173 HD
ENDROOT
BRANCH   5   9
HETATM    9  C   UNL     1       0.945  -5.207   3.577  1.00  0.00     0.255 C 
BRANCH   9  10
HETATM   10  N   UNL     1       2.063  -5.982   4.104  1.00  0.00    -0.247 N 
HETATM   11  N   UNL     1       2.755  -5.464   5.169  1.00  0.00    -0.299 N 
HETATM   12  C   UNL     1       3.694  -6.186   5.703  1.00  0.00     0.029 A 
ATOM     13  HN  UNL     1       2.538  -4.536   5.532  1.00  0.00     0.187 HD
HETATM   14  C   UNL     1       4.438  -5.586   6.873  1.00  0.00     0.070 C 
HETATM   15  C   UNL     1       4.069  -7.555   5.245  1.00  0.00    -0.013 A 
HETATM   16  C   UNL     1       5.148  -8.349   5.923  1.00  0.00     0.052 C 
HETATM   17  C   UNL     1       3.383  -8.009   4.184  1.00  0.00     0.103 A 
HETATM   18  C   UNL     1       2.356  -7.199   3.505  1.00  0.00     0.282 A 
HETATM   19  O   UNL     1       1.803  -7.606   2.488  1.00  0.00    -0.265 OA
BRANCH  17  20
HETATM   20  C   UNL     1       3.677  -9.385   3.609  1.00  0.00    -0.031 C 
BRANCH  20  21
HETATM   21  N   UNL     1       3.921 -10.526   3.132  1.00  0.00    -0.365 N 
ATOM     22  HN2 UNL     1       3.731  -9.598   3.511  1.00  0.00     0.165 HD
ATOM     23  HN1 UNL     1       4.118 -11.449   2.746  1.00  0.00     0.165 HD
ENDBRANCH  20  21
ENDBRANCH  17  20
ENDBRANCH   9  10
ENDBRANCH   5   9
BRANCH   1  24
HETATM   24  C   UNL     1       2.932  -1.469  -0.338  1.00  0.00     0.089 C 
HETATM   25  C   UNL     1       2.129  -0.154  -0.200  1.00  0.00     0.004 C 
HETATM   26  C   UNL     1       0.610  -0.341  -0.331  1.00  0.00     0.012 C 
HETATM   27  C   UNL     1       2.645   0.863  -1.235  1.00  0.00     0.006 C 
HETATM   28  C   UNL     1       2.620   0.323  -2.666  1.00  0.00     0.001 C 
HETATM   29  C   UNL     1       3.339  -1.018  -2.789  1.00  0.00     0.002 C 
HETATM   30  C   UNL     1       2.853  -2.036  -1.761  1.00  0.00     0.026 C 
ENDBRANCH   1  24
TORSDOF 5
