REMARK  6 active torsions:
REMARK  status: ('A' for Active; 'I' for Inactive)
REMARK    1  A    between atoms: C_2  and  C_4 
REMARK    2  A    between atoms: C_2  and  N_19 
REMARK    3  A    between atoms: C_4  and  N_5 
REMARK       I    between atoms: N_5  and  C_6 
REMARK    4  A    between atoms: C_6  and  C_8 
REMARK    5  A    between atoms: C_8  and  N_9 
REMARK    6  A    between atoms: C_11  and  N_16 
ROOT
HETATM    1  N   UNL     1       2.120  -1.329   2.186  1.00  0.00    -0.357 N 
HETATM    2  C   UNL     1       0.949  -1.186   2.896  1.00  0.00     0.235 C 
HETATM    3  O   UNL     1       0.394  -0.105   3.085  1.00  0.00    -0.272 OA
HETATM    4  H   UNL     1       2.669  -2.168   2.365  1.00  0.00     0.162 HD
ENDROOT
BRANCH   2   5
HETATM    5  C   UNL     1       0.423  -2.480   3.511  1.00  0.00     0.234 C 
BRANCH   5   6
HETATM    6  N   UNL     1       0.947  -2.624   4.865  1.00  0.00    -0.314 N 
HETATM    7  C   UNL     1       0.247  -2.069   5.934  1.00  0.00     0.130 A 
HETATM    8  C   UNL     1       0.732  -2.151   7.184  1.00  0.00     0.118 A 
HETATM    9  C   UNL     1       1.996  -2.811   7.433  1.00  0.00     0.043 A 
HETATM   10  C   UNL     1       2.693  -3.342   6.417  1.00  0.00     0.077 A 
HETATM   11  C   UNL     1       2.183  -3.248   5.021  1.00  0.00     0.247 A 
HETATM   12  O   UNL     1       2.852  -3.689   4.091  1.00  0.00    -0.268 OA
BRANCH   8  13
HETATM   13  N   UNL     1      -0.054  -1.566   8.271  1.00  0.00    -0.114 N 
HETATM   14  O   UNL     1       0.421  -1.641   9.413  1.00  0.00    -0.532 OA
HETATM   15  O   UNL     1      -1.144  -1.044   7.997  1.00  0.00    -0.532 OA
ENDBRANCH   8  13
ENDBRANCH   5   6
ENDBRANCH   2   5
BRANCH   1  16
HETATM   16  C   UNL     1       2.795  -0.215   1.534  1.00  0.00     0.163 C 
BRANCH  16  17
HETATM   17  C   UNL     1       2.332   0.140   0.062  1.00  0.00     0.168 C 
HETATM   18  C   UNL     1       0.823   0.447   0.054  1.00  0.00     0.050 C 
HETATM   19  C   UNL     1       3.045   1.492  -0.242  1.00  0.00     0.050 C 
BRANCH  17  20
HETATM   20  N   UNL     1       2.791  -0.866  -0.946  1.00  0.00     0.103 N 
HETATM   21  C   UNL     1       2.588  -0.547  -2.379  1.00  0.00     0.299 C 
HETATM   22  C   UNL     1       1.220  -0.961  -2.949  1.00  0.00     0.198 C 
HETATM   23  O   UNL     1       0.963  -2.353  -2.739  1.00  0.00    -0.388 OA
HETATM   24  C   UNL     1       1.055  -2.684  -1.349  1.00  0.00     0.198 C 
HETATM   25  C   UNL     1       2.418  -2.282  -0.762  1.00  0.00     0.299 C 
ENDBRANCH  17  20
ENDBRANCH  16  17
ENDBRANCH   1  16
TORSDOF 6
