REMARK  5 active torsions:
REMARK  status: ('A' for Active; 'I' for Inactive)
REMARK    1  A    between atoms: C_2  and  N_3 
REMARK    2  A    between atoms: C_2  and  C_12 
REMARK    3  A    between atoms: N_3  and  C_4 
REMARK    4  A    between atoms: C_4  and  C_5 
REMARK    5  A    between atoms: C_5  and  N_6 
REMARK       I    between atoms: C_12  and  N_14 
ROOT
HETATM    1  C   UNL     1       1.082  -0.261   0.004  1.00  0.00     0.053 C 
HETATM    2  C   UNL     1       2.610  -0.107   0.030  1.00  0.00     0.307 C 
ENDROOT
BRANCH   2   3
HETATM    3  N   UNL     1       3.029   1.207   0.582  1.00  0.00     0.098 N 
HETATM    4  H   UNL     1       4.047   1.236   0.632  1.00  0.00     0.317 HD
BRANCH   3   5
HETATM    5  C   UNL     1       2.534   2.341  -0.219  1.00  0.00     0.292 C 
BRANCH   5   6
HETATM    6  C   UNL     1       2.946   3.703   0.358  1.00  0.00     0.178 C 
BRANCH   6   7
HETATM    7  N   UNL     1       2.443   4.810  -0.441  1.00  0.00    -0.302 N 
HETATM    8  C   UNL     1       1.606   5.811  -0.033  1.00  0.00     0.111 A 
HETATM    9  C   UNL     1       1.425   6.628  -1.124  1.00  0.00     0.037 A 
HETATM   10  C   UNL     1       2.197   6.039  -2.141  1.00  0.00     0.108 A 
HETATM   11  N   UNL     1       2.825   4.936  -1.729  1.00  0.00    -0.310 N 
ATOM     12  HN  UNL     1       3.448   4.330  -2.263  1.00  0.00     0.186 HD
ENDBRANCH   6   7
ENDBRANCH   5   6
ENDBRANCH   3   5
ENDBRANCH   2   3
BRANCH   2  13
HETATM   13  C   UNL     1       3.175  -1.260   0.911  1.00  0.00     0.253 C 
HETATM   14  O   UNL     1       2.535  -1.670   1.884  1.00  0.00    -0.271 OA
HETATM   15  N   UNL     1       4.390  -1.839   0.578  1.00  0.00    -0.346 N 
HETATM   16  C   UNL     1       5.296  -1.459  -0.507  1.00  0.00     0.152 C 
HETATM   17  C   UNL     1       4.769  -3.106   1.217  1.00  0.00     0.152 C 
HETATM   18  C   UNL     1       5.412  -2.606  -1.521  1.00  0.00     0.187 C 
HETATM   19  O   UNL     1       5.826  -3.824  -0.878  1.00  0.00    -0.388 OA
HETATM   20  C   UNL     1       4.898  -4.207   0.154  1.00  0.00     0.187 C 
ENDBRANCH   2  13
TORSDOF 5
