REMARK  5 active torsions:
REMARK  status: ('A' for Active; 'I' for Inactive)
REMARK    1  A    between atoms: C_2  and  C_3 
REMARK    2  A    between atoms: C_2  and  N_11 
REMARK    3  A    between atoms: C_3  and  N_4 
REMARK    4  A    between atoms: N_11  and  C_12 
REMARK    5  A    between atoms: C_12  and  C_13 
ROOT
HETATM    1  N   UNL     1       2.758  -1.120   0.925  1.00  0.00     0.090 N 
HETATM    2  H   UNL     1       2.445  -0.307   0.389  1.00  0.00     0.316 HD
ENDROOT
BRANCH   1   3
HETATM    3  C   UNL     1       2.257  -1.013   2.310  1.00  0.00     0.236 C 
HETATM    4  C   UNL     1       2.766   0.241   3.025  1.00  0.00     0.044 C 
BRANCH   3   5
HETATM    5  C   UNL     1       0.716  -1.068   2.235  1.00  0.00     0.184 C 
BRANCH   5   6
HETATM    6  N   UNL     1       0.064  -1.094   3.523  1.00  0.00    -0.285 N 
HETATM    7  C   UNL     1      -0.222  -2.175   4.296  1.00  0.00     0.201 A 
HETATM    8  N   UNL     1      -0.850  -1.784   5.381  1.00  0.00    -0.346 N 
HETATM    9  C   UNL     1      -0.943  -0.432   5.209  1.00  0.00     0.198 A 
ATOM     10  HN  UNL     1      -1.186  -2.350   6.160  1.00  0.00     0.167 HD
HETATM   11  N   UNL     1      -0.404   0.038   4.081  1.00  0.00    -0.293 N 
ATOM     12  HN  UNL     1      -0.359   0.997   3.735  1.00  0.00     0.188 HD
ENDBRANCH   5   6
ENDBRANCH   3   5
ENDBRANCH   1   3
BRANCH   1  13
HETATM   13  C   UNL     1       4.215  -1.228   0.762  1.00  0.00     0.279 C 
BRANCH  13  14
HETATM   14  C   UNL     1       4.982  -2.397   1.459  1.00  0.00     0.045 C 
HETATM   15  C   UNL     1       6.550  -2.229   1.353  1.00  0.00    -0.009 C 
HETATM   16  C   UNL     1       7.055  -0.895   0.769  1.00  0.00     0.011 C 
HETATM   17  C   UNL     1       7.373  -3.366   0.710  1.00  0.00     0.009 C 
HETATM   18  C   UNL     1       6.652  -4.572   0.135  1.00  0.00     0.028 C 
HETATM   19  C   UNL     1       5.231  -4.724   0.506  1.00  0.00    -0.024 C 
HETATM   20  C   UNL     1       4.469  -3.791   1.089  1.00  0.00    -0.081 C 
HETATM   21  C   UNL     1       3.055  -4.169   1.457  1.00  0.00     0.043 C 
ENDBRANCH  13  14
ENDBRANCH   1  13
TORSDOF 5
