REMARK  4 active torsions:
REMARK  status: ('A' for Active; 'I' for Inactive)
REMARK    1  A    between atoms: C_8  and  N_9 
REMARK       I    between atoms: N_9  and  C_10 
REMARK       I    between atoms: C_10  and  N_12 
REMARK    2  A    between atoms: N_12  and  C_13 
REMARK    3  A    between atoms: C_13  and  C_14 
REMARK    4  A    between atoms: C_14  and  N_15 
ROOT
HETATM    1  N   UNL     1       2.435  -2.471   0.282  1.00  0.00    -0.294 N 
HETATM    2  C   UNL     1       1.078  -2.510   0.249  1.00  0.00     0.321 C 
HETATM    3  O   UNL     1       0.461  -1.453   0.118  1.00  0.00    -0.247 OA
HETATM    4  N   UNL     1       0.456  -3.712   0.407  1.00  0.00    -0.341 N 
HETATM    5  H   UNL     1       2.798  -1.538   0.190  1.00  0.00     0.172 HD
HETATM    6  H   UNL     1       1.055  -4.525   0.293  1.00  0.00     0.164 HD
ENDROOT
BRANCH   1   7
HETATM    7  C   UNL     1       3.339  -3.524   0.480  1.00  0.00     0.114 A 
HETATM    8  C   UNL     1       4.713  -3.261   0.552  1.00  0.00    -0.018 A 
HETATM    9  C   UNL     1       5.317  -1.891   0.422  1.00  0.00     0.052 C 
HETATM   10  C   UNL     1       5.565  -4.342   0.815  1.00  0.00     0.012 A 
HETATM   11  C   UNL     1       5.051  -5.621   0.970  1.00  0.00     0.018 A 
HETATM   12  C   UNL     1       3.688  -5.789   0.854  1.00  0.00     0.089 A 
HETATM   13  N   UNL     1       2.833  -4.777   0.609  1.00  0.00    -0.352 N 
ATOM     14  HN  UNL     1       1.831  -4.948   0.523  1.00  0.00     0.166 HD
ENDBRANCH   1   7
BRANCH   4  15
HETATM   15  C   UNL     1      -0.982  -3.802   0.353  1.00  0.00     0.144 C 
BRANCH  15  16
HETATM   16  C   UNL     1      -1.596  -5.192   0.591  1.00  0.00     0.145 C 
BRANCH  16  17
HETATM   17  N   UNL     1      -3.066  -5.125   0.495  1.00  0.00    -0.351 N 
HETATM   18  C   UNL     1      -3.787  -4.359   1.510  1.00  0.00     0.126 C 
HETATM   19  C   UNL     1      -4.264  -3.004   1.008  1.00  0.00     0.020 C 
HETATM   20  C   UNL     1      -5.622  -3.060   0.316  1.00  0.00     0.002 C 
HETATM   21  C   UNL     1      -5.893  -4.318  -0.508  1.00  0.00     0.009 C 
HETATM   22  C   UNL     1      -4.709  -4.786  -1.335  1.00  0.00     0.103 C 
HETATM   23  C   UNL     1      -3.671  -5.651  -0.634  1.00  0.00     0.219 C 
HETATM   24  O   UNL     1      -3.258  -6.678  -1.175  1.00  0.00    -0.273 OA
ENDBRANCH  16  17
ENDBRANCH  15  16
ENDBRANCH   4  15
TORSDOF 4
