REMARK  5 active torsions:
REMARK  status: ('A' for Active; 'I' for Inactive)
REMARK    1  A    between atoms: O_1  and  C_2 
REMARK    2  A    between atoms: C_2  and  C_4 
REMARK    3  A    between atoms: N_8  and  C_9 
REMARK    4  A    between atoms: C_9  and  C_10 
REMARK       I    between atoms: C_10  and  N_12 
REMARK    5  A    between atoms: N_12  and  C_13 
ROOT
HETATM    1  C   UNL     1       5.616  -3.921  -2.569  1.00  0.00     0.071 A 
HETATM    2  C   UNL     1       6.228  -4.959  -1.829  1.00  0.00     0.127 A 
HETATM    3  N   UNL     1       5.478  -5.386  -0.809  1.00  0.00    -0.309 N 
ATOM      4  HN  UNL     1       5.696  -6.113  -0.127  1.00  0.00     0.186 HD
HETATM    5  N   UNL     1       4.367  -4.631  -0.894  1.00  0.00    -0.294 N 
HETATM    6  C   UNL     1       4.421  -3.708  -1.906  1.00  0.00     0.130 A 
ENDROOT
BRANCH   5   7
HETATM    7  C   UNL     1       3.309  -4.803   0.083  1.00  0.00     0.250 C 
BRANCH   7   8
HETATM    8  C   UNL     1       1.993  -5.163  -0.570  1.00  0.00     0.237 C 
HETATM    9  O   UNL     1       1.429  -4.410  -1.364  1.00  0.00    -0.272 OA
HETATM   10  N   UNL     1       1.452  -6.370  -0.171  1.00  0.00    -0.355 N 
HETATM   11  H   UNL     1       2.060  -7.045   0.281  1.00  0.00     0.162 HD
BRANCH  10  12
HETATM   12  C   UNL     1       0.196  -6.855  -0.709  1.00  0.00     0.084 C 
HETATM   13  C   UNL     1      -0.575  -7.715   0.296  1.00  0.00     0.025 C 
HETATM   14  C   UNL     1      -1.237  -8.829  -0.515  1.00  0.00     0.002 C 
HETATM   15  C   UNL     1      -0.922  -8.534  -1.975  1.00  0.00     0.002 C 
HETATM   16  C   UNL     1       0.385  -7.760  -1.923  1.00  0.00     0.025 C 
ENDBRANCH  10  12
ENDBRANCH   7   8
ENDBRANCH   5   7
BRANCH   1  17
HETATM   17  C   UNL     1       6.160  -3.263  -3.742  1.00  0.00     0.179 C 
HETATM   18  O   UNL     1       7.248  -3.551  -4.222  1.00  0.00    -0.646 OA
BRANCH  17  19
HETATM   19  O   UNL     1       5.377  -2.299  -4.288  1.00  0.00    -0.773 OA
HETATM   20  H   UNL     1       4.528  -2.188  -3.822  1.00  0.00     0.167 HD
ENDBRANCH  17  19
ENDBRANCH   1  17
TORSDOF 5
