REMARK  4 active torsions:
REMARK  status: ('A' for Active; 'I' for Inactive)
REMARK       I    between atoms: C_2  and  N_3 
REMARK       I    between atoms: C_2  and  N_13 
REMARK    1  A    between atoms: N_3  and  C_4 
REMARK    2  A    between atoms: C_4  and  C_5 
REMARK    3  A    between atoms: C_5  and  N_6 
REMARK    4  A    between atoms: N_13  and  C_14 
ROOT
HETATM    1  O   UNL     1       3.097   0.468  -2.330  1.00  0.00    -0.247 OA
HETATM    2  C   UNL     1       3.286   0.182  -1.149  1.00  0.00     0.321 C 
HETATM    3  N   UNL     1       2.884  -0.989  -0.596  1.00  0.00    -0.341 N 
HETATM    4  N   UNL     1       3.912   1.072  -0.334  1.00  0.00    -0.295 N 
HETATM    5  H   UNL     1       3.157  -1.139   0.374  1.00  0.00     0.164 HD
HETATM    6  H   UNL     1       4.150   1.930  -0.809  1.00  0.00     0.172 HD
ENDROOT
BRANCH   3   7
HETATM    7  C   UNL     1       2.221  -2.035  -1.336  1.00  0.00     0.144 C 
BRANCH   7   8
HETATM    8  C   UNL     1       3.205  -3.030  -1.963  1.00  0.00     0.154 C 
BRANCH   8   9
HETATM    9  N   UNL     1       2.516  -4.028  -2.763  1.00  0.00    -0.287 N 
HETATM   10  C   UNL     1       1.685  -4.973  -2.234  1.00  0.00     0.226 C 
HETATM   11  O   UNL     1       1.414  -5.134  -1.053  1.00  0.00    -0.273 OA
HETATM   12  C   UNL     1       1.179  -5.848  -3.344  1.00  0.00     0.112 C 
HETATM   13  C   UNL     1       1.661  -5.156  -4.605  1.00  0.00     0.112 C 
HETATM   14  C   UNL     1       2.679  -4.173  -4.110  1.00  0.00     0.226 C 
HETATM   15  O   UNL     1       3.484  -3.600  -4.826  1.00  0.00    -0.273 OA
ENDBRANCH   8   9
ENDBRANCH   7   8
ENDBRANCH   3   7
BRANCH   4  16
HETATM   16  C   UNL     1       4.253   0.948   1.016  1.00  0.00     0.108 A 
HETATM   17  C   UNL     1       4.873   2.034   1.625  1.00  0.00     0.049 A 
HETATM   18  C   UNL     1       5.235   1.940   2.967  1.00  0.00     0.005 A 
HETATM   19  C   UNL     1       4.968   0.768   3.663  1.00  0.00     0.017 A 
HETATM   20  C   UNL     1       4.346  -0.264   2.984  1.00  0.00     0.089 A 
HETATM   21  N   UNL     1       3.987  -0.199   1.682  1.00  0.00    -0.352 N 
ATOM     22  HN  UNL     1       3.532  -0.986   1.219  1.00  0.00     0.166 HD
ENDBRANCH   4  16
TORSDOF 4
