REMARK  5 active torsions:
REMARK  status: ('A' for Active; 'I' for Inactive)
REMARK    1  A    between atoms: C_2  and  N_4 
REMARK       I    between atoms: N_4  and  C_5 
REMARK    2  A    between atoms: C_5  and  C_7 
REMARK    3  A    between atoms: C_7  and  N_8 
REMARK    4  A    between atoms: C_11  and  C_12 
REMARK    5  A    between atoms: C_12  and  O_14 
ROOT
HETATM    1  N   UNL     1       6.411  -3.188  -0.249  1.00  0.00    -0.309 N 
HETATM    2  C   UNL     1       7.126  -3.037  -1.465  1.00  0.00     0.029 A 
HETATM    3  C   UNL     1       6.309  -2.849  -2.738  1.00  0.00     0.069 C 
HETATM    4  C   UNL     1       8.490  -3.038  -1.462  1.00  0.00     0.066 A 
HETATM    5  C   UNL     1       9.199  -3.224  -0.180  1.00  0.00    -0.038 A 
HETATM    6  C   UNL     1      10.702  -3.262  -0.051  1.00  0.00     0.049 C 
HETATM    7  C   UNL     1       8.509  -3.386   0.959  1.00  0.00     0.082 A 
HETATM    8  C   UNL     1       7.044  -3.416   0.966  1.00  0.00     0.248 A 
HETATM    9  O   UNL     1       6.462  -3.665   2.020  1.00  0.00    -0.268 OA
ENDROOT
BRANCH   1  10
HETATM   10  C   UNL     1       4.947  -3.160  -0.167  1.00  0.00     0.235 C 
BRANCH  10  11
HETATM   11  C   UNL     1       4.352  -4.534  -0.438  1.00  0.00     0.236 C 
HETATM   12  N   UNL     1       4.703  -5.508   0.479  1.00  0.00    -0.356 N 
HETATM   13  H   UNL     1       5.175  -5.200   1.329  1.00  0.00     0.162 HD
HETATM   14  O   UNL     1       3.604  -4.748  -1.394  1.00  0.00    -0.272 OA
BRANCH  12  15
HETATM   15  C   UNL     1       4.168  -6.859   0.427  1.00  0.00     0.076 C 
HETATM   16  C   UNL     1       5.177  -7.844   1.007  1.00  0.00     0.032 C 
HETATM   17  C   UNL     1       2.837  -6.947   1.165  1.00  0.00     0.032 C 
ENDBRANCH  12  15
ENDBRANCH  10  11
ENDBRANCH   1  10
BRANCH   4  18
HETATM   18  C   UNL     1       9.305  -2.745  -2.688  1.00  0.00     0.178 C 
HETATM   19  O   UNL     1      10.292  -2.021  -2.673  1.00  0.00    -0.646 OA
BRANCH  18  20
HETATM   20  O   UNL     1       8.924  -3.354  -3.835  1.00  0.00    -0.773 OA
HETATM   21  H   UNL     1       8.207  -4.003  -3.763  1.00  0.00     0.167 HD
ENDBRANCH  18  20
ENDBRANCH   4  18
TORSDOF 5
