REMARK  9 active torsions:
REMARK  status: ('A' for Active; 'I' for Inactive)
REMARK    1  A    between atoms: N_2  and  C_3 
REMARK    2  A    between atoms: N_2  and  C_21 
REMARK    3  A    between atoms: C_3  and  C_4 
REMARK    4  A    between atoms: C_4  and  O_5 
REMARK    5  A    between atoms: C_4  and  C_6 
REMARK    6  A    between atoms: C_6  and  N_7 
REMARK    7  A    between atoms: C_14  and  C_15 
REMARK    8  A    between atoms: C_15  and  N_16 
REMARK    9  A    between atoms: C_21  and  C_22 
ROOT
HETATM    1  N   UNL     1       2.697   4.410  -0.462  1.00  0.00    -0.254 N 
HETATM    2  N   UNL     1       1.376   4.768  -0.277  1.00  0.00    -0.300 N 
ATOM      3  HN  UNL     1       0.635   4.315  -0.813  1.00  0.00     0.187 HD
HETATM    4  C   UNL     1       1.095   5.691   0.591  1.00  0.00     0.029 A 
HETATM    5  C   UNL     1      -0.371   6.008   0.800  1.00  0.00     0.070 C 
HETATM    6  C   UNL     1       2.104   6.432   1.385  1.00  0.00    -0.013 A 
HETATM    7  C   UNL     1       1.714   7.468   2.398  1.00  0.00     0.052 C 
HETATM    8  C   UNL     1       3.376   6.068   1.151  1.00  0.00     0.103 A 
HETATM    9  C   UNL     1       3.745   4.960   0.247  1.00  0.00     0.282 A 
HETATM   10  O   UNL     1       4.905   4.569   0.180  1.00  0.00    -0.265 OA
ENDROOT
BRANCH   1  11
HETATM   11  C   UNL     1       2.967   3.371  -1.470  1.00  0.00     0.186 C 
BRANCH  11  12
HETATM   12  C   UNL     1       2.210   2.058  -1.210  1.00  0.00     0.166 C 
BRANCH  12  13
HETATM   13  C   UNL     1       2.582   1.416   0.156  1.00  0.00     0.305 C 
BRANCH  13  14
HETATM   14  N   UNL     1       1.981   0.081   0.386  1.00  0.00     0.090 N 
HETATM   15  C   UNL     1       0.514   0.157   0.432  1.00  0.00     0.310 C 
BRANCH  14  16
HETATM   16  C   UNL     1       2.516  -0.543   1.613  1.00  0.00     0.310 C 
BRANCH  16  17
HETATM   17  C   UNL     1       2.049  -1.981   1.761  1.00  0.00    -0.030 A 
HETATM   18  C   UNL     1       2.328  -2.919   0.752  1.00  0.00     0.009 A 
HETATM   19  C   UNL     1       1.777  -4.199   0.804  1.00  0.00     0.001 A 
HETATM   20  C   UNL     1       0.953  -4.561   1.868  1.00  0.00     0.000 A 
HETATM   21  C   UNL     1       0.695  -3.651   2.891  1.00  0.00     0.001 A 
HETATM   22  C   UNL     1       1.245  -2.368   2.844  1.00  0.00     0.009 A 
ENDBRANCH  16  17
ENDBRANCH  14  16
ENDBRANCH  13  14
ENDBRANCH  12  13
BRANCH  12  23
HETATM   23  O   UNL     1       0.807   2.345  -1.307  1.00  0.00    -0.392 OA
HETATM   24  H   UNL     1       0.672   3.155  -0.772  1.00  0.00     0.210 HD
ENDBRANCH  12  23
ENDBRANCH  11  12
ENDBRANCH   1  11
BRANCH   8  25
HETATM   25  C   UNL     1       4.493   6.719   1.950  1.00  0.00    -0.031 C 
BRANCH  25  26
HETATM   26  N   UNL     1       5.420   7.260   2.613  1.00  0.00    -0.365 N 
ATOM     27  HN2 UNL     1       4.663   6.848   2.068  1.00  0.00     0.165 HD
ATOM     28  HN1 UNL     1       6.170   7.697   3.149  1.00  0.00     0.165 HD
ENDBRANCH  25  26
ENDBRANCH   8  25
TORSDOF 9
