REMARK  3 active torsions:
REMARK  status: ('A' for Active; 'I' for Inactive)
REMARK    1  A    between atoms: N_4  and  C_9 
REMARK    2  A    between atoms: C_12  and  C_16 
REMARK    3  A    between atoms: C_16  and  O_18 
ROOT
HETATM    1  C   UNL     1       1.948   1.484  -3.427  1.00  0.00     0.103 A 
HETATM    2  C   UNL     1       1.082   0.957  -4.385  1.00  0.00     0.049 A 
HETATM    3  C   UNL     1       0.496   1.781  -5.342  1.00  0.00     0.023 A 
HETATM    4  C   UNL     1       0.791   3.137  -5.335  1.00  0.00     0.053 A 
HETATM    5  C   UNL     1       1.618   3.606  -4.327  1.00  0.00     0.108 A 
HETATM    6  N   UNL     1       2.194   2.812  -3.386  1.00  0.00    -0.351 N 
ATOM      7  HN  UNL     1       2.798   3.209  -2.666  1.00  0.00     0.166 HD
ENDROOT
BRANCH   1   8
HETATM    8  N   UNL     1       2.502   0.661  -2.480  1.00  0.00    -0.362 N 
HETATM    9  C   UNL     1       2.936   1.168  -1.179  1.00  0.00     0.156 C 
HETATM   10  C   UNL     1       2.538   0.120  -0.104  1.00  0.00     0.136 C 
HETATM   11  C   UNL     1       1.030   0.119   0.161  1.00  0.00     0.041 C 
HETATM   12  O   UNL     1       3.007  -1.211  -0.431  1.00  0.00    -0.378 OA
HETATM   13  C   UNL     1       2.609  -1.647  -1.748  1.00  0.00     0.136 C 
HETATM   14  C   UNL     1       3.067  -0.643  -2.821  1.00  0.00     0.156 C 
HETATM   15  C   UNL     1       3.213  -3.020  -2.001  1.00  0.00     0.041 C 
ENDBRANCH   1   8
BRANCH   4  16
HETATM   16  C   UNL     1       0.180   4.014  -6.350  1.00  0.00     0.177 C 
HETATM   17  O   UNL     1      -0.921   3.796  -6.826  1.00  0.00    -0.646 OA
BRANCH  16  18
HETATM   18  O   UNL     1       0.966   5.037  -6.744  1.00  0.00    -0.773 OA
HETATM   19  H   UNL     1       1.899   4.996  -6.466  1.00  0.00     0.167 HD
ENDBRANCH  16  18
ENDBRANCH   4  16
TORSDOF 3
