REMARK  4 active torsions:
REMARK  status: ('A' for Active; 'I' for Inactive)
REMARK    1  A    between atoms: N_1  and  C_8 
REMARK    2  A    between atoms: N_2  and  C_7 
REMARK    3  A    between atoms: C_8  and  C_9 
REMARK       I    between atoms: C_9  and  N_12 
REMARK    4  A    between atoms: N_12  and  C_16 
ROOT
HETATM    1  N   UNL     1      -0.529   1.020   0.543  1.00  0.00    -0.255 N 
HETATM    2  N   UNL     1       1.518   0.108  -0.224  1.00  0.00    -0.279 N 
HETATM    3  C   UNL     1       0.327   0.765  -0.528  1.00  0.00     0.334 C 
HETATM    4  C   UNL     1      -0.372   0.444   1.794  1.00  0.00     0.292 C 
HETATM    5  C   UNL     1       0.830  -0.391   1.975  1.00  0.00     0.200 C 
HETATM    6  C   UNL     1       1.736  -0.478   1.008  1.00  0.00     0.146 C 
HETATM    7  O   UNL     1       0.081   1.177  -1.662  1.00  0.00    -0.246 OA
HETATM    8  O   UNL     1      -1.159   0.630   2.717  1.00  0.00    -0.264 OA
HETATM    9  F   UNL     1       1.022  -0.951   3.189  1.00  0.00    -0.199 F 
ENDROOT
BRANCH   1  10
HETATM   10  C   UNL     1      -1.410   2.181   0.426  1.00  0.00     0.240 C 
BRANCH  10  11
HETATM   11  C   UNL     1      -2.910   2.049   0.143  1.00  0.00     0.236 C 
HETATM   12  N   UNL     1      -3.491   0.814   0.260  1.00  0.00    -0.355 N 
HETATM   13  H   UNL     1      -2.962   0.076   0.708  1.00  0.00     0.162 HD
HETATM   14  O   UNL     1      -3.559   3.057  -0.141  1.00  0.00    -0.272 OA
BRANCH  12  15
HETATM   15  C   UNL     1      -4.896   0.551  -0.076  1.00  0.00     0.084 C 
HETATM   16  C   UNL     1      -5.225   0.993  -1.513  1.00  0.00     0.025 C 
HETATM   17  C   UNL     1      -6.196   0.051  -2.199  1.00  0.00     0.002 C 
HETATM   18  C   UNL     1      -7.653   0.085  -1.738  1.00  0.00     0.000 C 
HETATM   19  C   UNL     1      -8.032   0.930  -0.525  1.00  0.00     0.000 C 
HETATM   20  C   UNL     1      -7.321   0.613   0.790  1.00  0.00     0.002 C 
HETATM   21  C   UNL     1      -5.886   1.144   0.930  1.00  0.00     0.025 C 
ENDBRANCH  12  15
ENDBRANCH  10  11
ENDBRANCH   1  10
BRANCH   2  22
HETATM   22  C   UNL     1       2.579   0.213  -1.223  1.00  0.00     0.232 C 
HETATM   23  O   UNL     1       3.750  -0.548  -0.873  1.00  0.00    -0.366 OA
HETATM   24  C   UNL     1       4.899   0.138  -1.398  1.00  0.00     0.170 C 
HETATM   25  C   UNL     1       4.436   1.458  -1.981  1.00  0.00     0.031 C 
HETATM   26  C   UNL     1       3.080   1.645  -1.364  1.00  0.00     0.056 C 
ENDBRANCH   2  22
TORSDOF 4
