REMARK  4 active torsions:
REMARK  status: ('A' for Active; 'I' for Inactive)
REMARK    1  A    between atoms: N_2  and  C_4 
REMARK    2  A    between atoms: C_4  and  C_5 
REMARK    3  A    between atoms: C_5  and  N_6 
REMARK       I    between atoms: N_6  and  C_7 
REMARK       I    between atoms: C_7  and  N_9 
REMARK    4  A    between atoms: N_9  and  C_10 
ROOT
HETATM    1  N   UNL     1       4.049  -1.234  -2.546  1.00  0.00    -0.340 N 
HETATM    2  C   UNL     1       5.216  -1.750  -3.076  1.00  0.00     0.322 C 
HETATM    3  O   UNL     1       6.248  -1.095  -3.100  1.00  0.00    -0.247 OA
HETATM    4  N   UNL     1       5.055  -3.021  -3.564  1.00  0.00    -0.288 N 
HETATM    5  H   UNL     1       3.359  -1.897  -2.236  1.00  0.00     0.164 HD
HETATM    6  H   UNL     1       4.126  -3.335  -3.796  1.00  0.00     0.172 HD
ENDROOT
BRANCH   1   7
HETATM    7  C   UNL     1       4.154   0.042  -1.856  1.00  0.00     0.166 C 
BRANCH   7   8
HETATM    8  C   UNL     1       2.865   0.648  -1.201  1.00  0.00     0.174 C 
HETATM    9  C   UNL     1       3.273   2.108  -0.785  1.00  0.00     0.043 C 
HETATM   10  C   UNL     1       2.100   2.966  -0.322  1.00  0.00     0.003 C 
HETATM   11  C   UNL     1       1.076   3.101  -1.439  1.00  0.00     0.000 C 
HETATM   12  C   UNL     1       0.607   1.736  -1.932  1.00  0.00     0.003 C 
HETATM   13  C   UNL     1       1.772   0.812  -2.307  1.00  0.00     0.043 C 
BRANCH   8  14
HETATM   14  N   UNL     1       2.345  -0.097  -0.004  1.00  0.00     0.091 N 
HETATM   15  C   UNL     1       1.896  -1.470  -0.224  1.00  0.00     0.310 C 
HETATM   16  C   UNL     1       3.250  -0.097   1.156  1.00  0.00     0.310 C 
ENDBRANCH   8  14
ENDBRANCH   7   8
ENDBRANCH   1   7
BRANCH   4  17
HETATM   17  C   UNL     1       6.062  -3.777  -4.118  1.00  0.00     0.168 A 
HETATM   18  N   UNL     1       5.834  -4.840  -4.859  1.00  0.00    -0.279 N 
HETATM   19  N   UNL     1       7.005  -5.403  -5.336  1.00  0.00    -0.303 N 
ATOM     20  HN  UNL     1       4.903  -5.206  -5.059  1.00  0.00     0.189 HD
HETATM   21  C   UNL     1       8.065  -4.759  -4.898  1.00  0.00     0.160 A 
ATOM     22  HN  UNL     1       7.041  -6.216  -5.951  1.00  0.00     0.186 HD
HETATM   23  S   UNL     1       7.720  -3.459  -3.844  1.00  0.00    -0.046 SA
ENDBRANCH   4  17
TORSDOF 4
