REMARK  5 active torsions:
REMARK  status: ('A' for Active; 'I' for Inactive)
REMARK       I    between atoms: C_2  and  N_3 
REMARK       I    between atoms: C_2  and  N_12 
REMARK    1  A    between atoms: N_3  and  C_4 
REMARK    2  A    between atoms: C_4  and  C_5 
REMARK    3  A    between atoms: C_5  and  N_6 
REMARK    4  A    between atoms: N_12  and  C_13 
REMARK    5  A    between atoms: C_16  and  N_20 
ROOT
HETATM    1  O   UNL     1       1.177  -0.181  -0.238  1.00  0.00    -0.247 OA
HETATM    2  C   UNL     1       2.400  -0.102  -0.186  1.00  0.00     0.320 C 
HETATM    3  N   UNL     1       3.127   0.469  -1.213  1.00  0.00    -0.341 N 
HETATM    4  N   UNL     1       3.200  -0.512   0.856  1.00  0.00    -0.308 N 
HETATM    5  H   UNL     1       3.969   0.945  -0.931  1.00  0.00     0.164 HD
HETATM    6  H   UNL     1       4.188  -0.326   0.780  1.00  0.00     0.170 HD
ENDROOT
BRANCH   4   7
HETATM    7  C   UNL     1       2.730  -1.054   2.073  1.00  0.00     0.051 A 
HETATM    8  C   UNL     1       1.435  -1.506   2.249  1.00  0.00     0.035 A 
HETATM    9  C   UNL     1       1.015  -1.935   3.503  1.00  0.00     0.051 A 
HETATM   10  C   UNL     1       1.890  -1.930   4.583  1.00  0.00     0.103 A 
HETATM   11  N   UNL     1       3.182  -1.577   4.409  1.00  0.00    -0.350 N 
HETATM   12  C   UNL     1       3.568  -1.142   3.178  1.00  0.00     0.119 A 
ATOM     13  HN  UNL     1       3.850  -1.635   5.178  1.00  0.00     0.166 HD
BRANCH  10  14
HETATM   14  N   UNL     1       1.454  -2.314   5.824  1.00  0.00    -0.363 N 
HETATM   15  C   UNL     1       2.359  -2.894   6.810  1.00  0.00     0.150 C 
HETATM   16  C   UNL     1       1.688  -4.167   7.371  1.00  0.00     0.187 C 
HETATM   17  O   UNL     1       0.365  -3.908   7.886  1.00  0.00    -0.388 OA
HETATM   18  C   UNL     1      -0.481  -3.347   6.866  1.00  0.00     0.187 C 
HETATM   19  C   UNL     1       0.108  -2.037   6.325  1.00  0.00     0.150 C 
ENDBRANCH  10  14
ENDBRANCH   4   7
BRANCH   3  20
HETATM   20  C   UNL     1       2.356   1.093  -2.280  1.00  0.00     0.154 C 
BRANCH  20  21
HETATM   21  C   UNL     1       3.231   1.704  -3.383  1.00  0.00     0.292 C 
BRANCH  21  22
HETATM   22  N   UNL     1       2.479   2.313  -4.497  1.00  0.00     0.090 N 
HETATM   23  C   UNL     1       3.383   2.851  -5.527  1.00  0.00     0.272 C 
HETATM   24  C   UNL     1       4.098   4.141  -5.110  1.00  0.00     0.030 C 
HETATM   25  C   UNL     1       3.117   5.199  -4.610  1.00  0.00     0.003 C 
HETATM   26  C   UNL     1       2.161   4.621  -3.572  1.00  0.00     0.030 C 
HETATM   27  C   UNL     1       1.507   3.342  -4.095  1.00  0.00     0.272 C 
ENDBRANCH  21  22
ENDBRANCH  20  21
ENDBRANCH   3  20
TORSDOF 5
