REMARK  3 active torsions:
REMARK  status: ('A' for Active; 'I' for Inactive)
REMARK    1  A    between atoms: N_6  and  C_7 
REMARK    2  A    between atoms: C_7  and  C_8 
REMARK       I    between atoms: C_8  and  N_10 
REMARK    3  A    between atoms: N_10  and  C_11 
ROOT
HETATM    1  C   UNL     1       9.047  -3.069   0.199  1.00  0.00     0.122 C 
HETATM    2  C   UNL     1       9.336  -3.118  -1.321  1.00  0.00     0.046 C 
HETATM    3  C   UNL     1       9.284  -4.534  -1.907  1.00  0.00     0.004 C 
HETATM    4  C   UNL     1      10.128  -5.544  -1.130  1.00  0.00     0.000 C 
HETATM    5  C   UNL     1       9.956  -5.454   0.386  1.00  0.00     0.004 C 
HETATM    6  C   UNL     1      10.060  -4.010   0.898  1.00  0.00     0.046 C 
HETATM    7  C   UNL     1       7.667  -3.567   0.477  1.00  0.00     0.091 C 
HETATM    8  N   UNL     1       6.595  -3.928   0.728  1.00  0.00    -0.195 NA
ENDROOT
BRANCH   1   9
HETATM    9  N   UNL     1       9.084  -1.678   0.696  1.00  0.00    -0.338 N 
HETATM   10  C   UNL     1      10.210  -0.894   0.798  1.00  0.00     0.238 C 
HETATM   11  O   UNL     1      11.334  -1.309   0.533  1.00  0.00    -0.272 OA
HETATM   12  H   UNL     1       8.199  -1.177   0.745  1.00  0.00     0.164 HD
BRANCH  10  13
HETATM   13  C   UNL     1       9.936   0.592   1.047  1.00  0.00     0.255 C 
BRANCH  13  14
HETATM   14  N   UNL     1       8.967   0.849   2.111  1.00  0.00    -0.248 N 
HETATM   15  N   UNL     1       7.682   1.167   1.733  1.00  0.00    -0.305 N 
HETATM   16  C   UNL     1       6.880   1.570   2.663  1.00  0.00     0.133 A 
ATOM     17  HN  UNL     1       7.377   1.088   0.763  1.00  0.00     0.186 HD
HETATM   18  C   UNL     1       7.213   1.701   4.090  1.00  0.00     0.078 A 
HETATM   19 CL   UNL     1       5.975   2.260   5.137  1.00  0.00    -0.081 Cl
HETATM   20  C   UNL     1       8.453   1.371   4.451  1.00  0.00     0.126 A 
HETATM   21  C   UNL     1       9.436   0.927   3.427  1.00  0.00     0.285 A 
HETATM   22 CL   UNL     1       9.011   1.467   6.087  1.00  0.00    -0.076 Cl
HETATM   23  O   UNL     1      10.598   0.663   3.731  1.00  0.00    -0.265 OA
ENDBRANCH  13  14
ENDBRANCH  10  13
ENDBRANCH   1   9
TORSDOF 3
