REMARK  4 active torsions:
REMARK  status: ('A' for Active; 'I' for Inactive)
REMARK    1  A    between atoms: O_1  and  C_2 
REMARK    2  A    between atoms: C_2  and  C_3 
REMARK    3  A    between atoms: C_3  and  N_4 
REMARK       I    between atoms: N_4  and  C_5 
REMARK       I    between atoms: C_5  and  N_7 
REMARK    4  A    between atoms: N_7  and  C_8 
ROOT
HETATM    1  N   UNL     1       2.584  -0.556   2.467  1.00  0.00    -0.340 N 
HETATM    2  C   UNL     1       3.046  -0.284   3.741  1.00  0.00     0.322 C 
HETATM    3  O   UNL     1       3.820   0.640   3.954  1.00  0.00    -0.247 OA
HETATM    4  N   UNL     1       2.491  -1.131   4.663  1.00  0.00    -0.289 N 
HETATM    5  H   UNL     1       2.395  -1.528   2.269  1.00  0.00     0.164 HD
HETATM    6  H   UNL     1       1.652  -1.630   4.421  1.00  0.00     0.172 HD
ENDROOT
BRANCH   1   7
HETATM    7  C   UNL     1       3.065   0.268   1.370  1.00  0.00     0.162 C 
BRANCH   7   8
HETATM    8  C   UNL     1       2.482  -0.117  -0.008  1.00  0.00     0.074 C 
HETATM    9  C   UNL     1       2.922   0.926  -1.053  1.00  0.00     0.039 C 
HETATM   10  C   UNL     1       2.484   0.562  -2.472  1.00  0.00     0.003 C 
HETATM   11  C   UNL     1       2.951  -0.837  -2.858  1.00  0.00     0.000 C 
HETATM   12  C   UNL     1       2.478  -1.878  -1.851  1.00  0.00     0.003 C 
HETATM   13  C   UNL     1       2.925  -1.528  -0.431  1.00  0.00     0.039 C 
BRANCH   8  14
HETATM   14  O   UNL     1       1.047  -0.112   0.067  1.00  0.00    -0.388 OA
HETATM   15  H   UNL     1       0.770   0.763   0.391  1.00  0.00     0.210 HD
ENDBRANCH   8  14
ENDBRANCH   7   8
ENDBRANCH   1   7
BRANCH   4  16
HETATM   16  C   UNL     1       2.793  -1.026   5.992  1.00  0.00     0.152 A 
HETATM   17  N   UNL     1       3.784  -0.396   6.568  1.00  0.00    -0.346 N 
HETATM   18  C   UNL     1       3.657  -0.495   7.936  1.00  0.00     0.097 A 
ATOM     19  HN  UNL     1       4.534   0.093   6.080  1.00  0.00     0.167 HD
HETATM   20  C   UNL     1       2.574  -1.224   8.380  1.00  0.00     0.070 A 
HETATM   21  S   UNL     1       1.703  -1.833   7.030  1.00  0.00    -0.064 SA
ENDBRANCH   4  16
TORSDOF 4
