REMARK  5 active torsions:
REMARK  status: ('A' for Active; 'I' for Inactive)
REMARK    1  A    between atoms: N_11  and  C_12 
REMARK    2  A    between atoms: C_12  and  C_13 
REMARK    3  A    between atoms: C_13  and  O_14 
REMARK    4  A    between atoms: C_13  and  C_15 
REMARK    5  A    between atoms: C_15  and  N_16 
ROOT
HETATM    1  C   UNL     1       0.942  -0.088  -0.141  1.00  0.00     0.089 C 
HETATM    2  C   UNL     1       2.417  -0.004   0.016  1.00  0.00     0.080 A 
HETATM    3  N   UNL     1       3.088   1.122   0.123  1.00  0.00    -0.344 N 
ATOM      4  HN  UNL     1       2.707   2.068   0.117  1.00  0.00     0.167 HD
HETATM    5  C   UNL     1       4.402   0.763   0.244  1.00  0.00     0.060 A 
HETATM    6  C   UNL     1       5.526   1.594   0.416  1.00  0.00     0.032 A 
HETATM    7  C   UNL     1       6.801   1.028   0.519  1.00  0.00     0.002 A 
HETATM    8  C   UNL     1       6.959  -0.350   0.448  1.00  0.00     0.002 A 
HETATM    9  C   UNL     1       5.848  -1.189   0.283  1.00  0.00     0.032 A 
HETATM   10  C   UNL     1       4.558  -0.623   0.188  1.00  0.00     0.062 A 
HETATM   11  N   UNL     1       3.255  -1.107   0.081  1.00  0.00    -0.333 N 
ENDROOT
BRANCH  11  12
HETATM   12  C   UNL     1       2.752  -2.494   0.067  1.00  0.00     0.164 C 
BRANCH  12  13
HETATM   13  C   UNL     1       3.827  -3.554   0.243  1.00  0.00     0.164 C 
BRANCH  13  14
HETATM   14  O   UNL     1       4.314  -3.438   1.591  1.00  0.00    -0.392 OA
HETATM   15  H   UNL     1       4.285  -4.322   1.999  1.00  0.00     0.210 HD
ENDBRANCH  13  14
BRANCH  13  16
HETATM   16  C   UNL     1       3.508  -5.041  -0.046  1.00  0.00     0.305 C 
BRANCH  16  17
HETATM   17  N   UNL     1       4.758  -5.810   0.174  1.00  0.00     0.095 N 
HETATM   18  C   UNL     1       5.818  -5.571  -0.837  1.00  0.00     0.298 C 
HETATM   19  C   UNL     1       5.622  -6.358  -2.138  1.00  0.00     0.198 C 
HETATM   20  O   UNL     1       5.593  -7.760  -1.866  1.00  0.00    -0.388 OA
HETATM   21  C   UNL     1       4.522  -8.076  -0.969  1.00  0.00     0.198 C 
HETATM   22  C   UNL     1       4.586  -7.263   0.337  1.00  0.00     0.298 C 
ENDBRANCH  16  17
ENDBRANCH  13  16
ENDBRANCH  12  13
ENDBRANCH  11  12
TORSDOF 5
