REMARK  7 active torsions:
REMARK  status: ('A' for Active; 'I' for Inactive)
REMARK    1  A    between atoms: C_2  and  N_3 
REMARK       I    between atoms: N_3  and  C_4 
REMARK    2  A    between atoms: C_4  and  C_6 
REMARK    3  A    between atoms: C_6  and  N_7 
REMARK    4  A    between atoms: C_9  and  C_10 
REMARK    5  A    between atoms: C_10  and  C_11 
REMARK    6  A    between atoms: C_11  and  O_12 
REMARK    7  A    between atoms: C_13  and  C_16 
ROOT
HETATM    1  N   UNL     1       6.341   2.473   1.781  1.00  0.00    -0.294 N 
HETATM    2  C   UNL     1       7.111   1.953   2.776  1.00  0.00     0.120 A 
HETATM    3  C   UNL     1       8.424   2.160   2.408  1.00  0.00    -0.006 A 
HETATM    4  C   UNL     1       8.345   2.839   1.145  1.00  0.00     0.140 A 
HETATM    5  N   UNL     1       7.057   3.027   0.781  1.00  0.00    -0.294 N 
ATOM      6  HN  UNL     1       6.706   3.485  -0.060  1.00  0.00     0.187 HD
ENDROOT
BRANCH   1   7
HETATM    7  C   UNL     1       4.896   2.435   1.691  1.00  0.00     0.250 C 
BRANCH   7   8
HETATM    8  C   UNL     1       4.269   3.638   2.350  1.00  0.00     0.237 C 
HETATM    9  N   UNL     1       4.515   4.841   1.720  1.00  0.00    -0.360 N 
HETATM   10  H   UNL     1       5.258   4.871   1.025  1.00  0.00     0.162 HD
HETATM   11  O   UNL     1       3.554   3.532   3.344  1.00  0.00    -0.272 OA
BRANCH   9  12
HETATM   12  C   UNL     1       4.026   6.096   2.252  1.00  0.00     0.118 C 
HETATM   13  C   UNL     1       4.939   6.645   3.334  1.00  0.00     0.026 C 
ENDBRANCH   9  12
ENDBRANCH   7   8
ENDBRANCH   1   7
BRANCH   3  14
HETATM   14  C   UNL     1       9.645   1.755   3.172  1.00  0.00     0.068 C 
BRANCH  14  15
HETATM   15  C   UNL     1      10.157   2.847   4.112  1.00  0.00     0.168 C 
BRANCH  15  16
HETATM   16  O   UNL     1      10.553   4.013   3.397  1.00  0.00    -0.401 OA
HETATM   17  H   UNL     1      11.270   3.764   2.787  1.00  0.00     0.209 HD
ENDBRANCH  15  16
ENDBRANCH  14  15
ENDBRANCH   3  14
BRANCH   4  18
HETATM   18  C   UNL     1       9.485   3.297   0.262  1.00  0.00     0.434 C 
HETATM   19  F   UNL     1      10.713   3.045   0.803  1.00  0.00    -0.165 F 
HETATM   20  F   UNL     1       9.476   2.668  -0.946  1.00  0.00    -0.165 F 
HETATM   21  F   UNL     1       9.449   4.632   0.009  1.00  0.00    -0.165 F 
ENDBRANCH   4  18
TORSDOF 7
