REMARK  5 active torsions:
REMARK  status: ('A' for Active; 'I' for Inactive)
REMARK    1  A    between atoms: C_2  and  C_4 
REMARK    2  A    between atoms: C_4  and  C_5 
REMARK    3  A    between atoms: C_4  and  N_18 
REMARK    4  A    between atoms: C_5  and  N_6 
REMARK       I    between atoms: N_6  and  C_7 
REMARK       I    between atoms: C_7  and  N_9 
REMARK    5  A    between atoms: N_9  and  C_10 
ROOT
HETATM    1  N   UNL     1       2.924   1.488   3.246  1.00  0.00    -0.341 N 
HETATM    2  C   UNL     1       2.349   1.624   4.483  1.00  0.00     0.320 C 
HETATM    3  O   UNL     1       1.265   1.112   4.752  1.00  0.00    -0.247 OA
HETATM    4  N   UNL     1       3.095   2.392   5.347  1.00  0.00    -0.306 N 
HETATM    5  H   UNL     1       3.886   1.750   3.079  1.00  0.00     0.164 HD
HETATM    6  H   UNL     1       4.078   2.499   5.131  1.00  0.00     0.171 HD
ENDROOT
BRANCH   1   7
HETATM    7  C   UNL     1       2.311   0.594   2.278  1.00  0.00     0.149 C 
BRANCH   7   8
HETATM    8  C   UNL     1       2.807   0.785   0.804  1.00  0.00     0.100 C 
BRANCH   8   9
HETATM    9  C   UNL     1       2.007  -0.219  -0.129  1.00  0.00     0.001 C 
HETATM   10  C   UNL     1       0.483  -0.151   0.122  1.00  0.00     0.011 C 
HETATM   11  C   UNL     1       2.181  -0.028  -1.640  1.00  0.00     0.011 C 
ENDBRANCH   8   9
BRANCH   8  12
HETATM   12  N   UNL     1       4.295   0.866   0.803  1.00  0.00    -0.403 N 
HETATM   13  C   UNL     1       4.958   1.325  -0.422  1.00  0.00     0.147 C 
HETATM   14  C   UNL     1       5.459   0.233  -1.406  1.00  0.00     0.291 C 
HETATM   15  N   UNL     1       5.986  -1.023  -0.840  1.00  0.00     0.087 N 
HETATM   16  C   UNL     1       7.432  -0.961  -0.688  1.00  0.00     0.310 C 
HETATM   17  C   UNL     1       5.311  -1.400   0.415  1.00  0.00     0.291 C 
HETATM   18  C   UNL     1       5.063  -0.241   1.388  1.00  0.00     0.147 C 
ENDBRANCH   8  12
ENDBRANCH   7   8
ENDBRANCH   1   7
BRANCH   4  19
HETATM   19  C   UNL     1       2.678   2.819   6.631  1.00  0.00     0.077 A 
HETATM   20  C   UNL     1       1.348   2.812   7.049  1.00  0.00     0.050 A 
HETATM   21  C   UNL     1       1.047   3.241   8.334  1.00  0.00     0.090 A 
HETATM   22  N   UNL     1       1.970   3.678   9.219  1.00  0.00    -0.372 N 
HETATM   23  C   UNL     1       3.252   3.692   8.787  1.00  0.00     0.132 A 
ATOM     24  HN  UNL     1       1.715   3.980  10.159  1.00  0.00     0.164 HD
HETATM   25  C   UNL     1       3.643   3.289   7.522  1.00  0.00     0.158 A 
HETATM   26  F   UNL     1       4.936   3.330   7.168  1.00  0.00    -0.202 F 
ENDBRANCH   4  19
TORSDOF 5
