REMARK  6 active torsions:
REMARK  status: ('A' for Active; 'I' for Inactive)
REMARK    1  A    between atoms: C_2  and  C_5 
REMARK    2  A    between atoms: C_5  and  O_6 
REMARK    3  A    between atoms: O_6  and  C_7 
REMARK    4  A    between atoms: C_7  and  C_8 
REMARK       I    between atoms: C_8  and  N_10 
REMARK    5  A    between atoms: N_10  and  C_11 
REMARK    6  A    between atoms: C_17  and  N_18 
ROOT
HETATM    1  C   UNL     1       8.184   3.422   2.331  1.00  0.00     0.079 A 
HETATM    2  C   UNL     1       8.952   4.600   2.248  1.00  0.00     0.035 A 
HETATM    3  C   UNL     1      10.323   4.541   2.444  1.00  0.00     0.019 A 
HETATM    4  C   UNL     1      10.875   3.309   2.716  1.00  0.00     0.090 A 
HETATM    5  N   UNL     1      10.168   2.155   2.770  1.00  0.00    -0.351 N 
ATOM      6  HN  UNL     1      10.640   1.274   2.971  1.00  0.00     0.166 HD
HETATM    7  C   UNL     1       8.821   2.177   2.554  1.00  0.00     0.130 A 
ENDROOT
BRANCH   1   8
HETATM    8  N   UNL     1       6.776   3.573   2.323  1.00  0.00    -0.322 N 
HETATM    9  C   UNL     1       6.091   4.228   1.316  1.00  0.00     0.245 C 
HETATM   10  O   UNL     1       6.607   4.733   0.323  1.00  0.00    -0.271 OA
HETATM   11  H   UNL     1       6.256   3.056   3.023  1.00  0.00     0.169 HD
BRANCH   9  12
HETATM   12  C   UNL     1       4.572   4.153   1.470  1.00  0.00     0.271 C 
BRANCH  12  13
HETATM   13  O   UNL     1       4.141   4.655   2.728  1.00  0.00    -0.373 OA
BRANCH  13  14
HETATM   14  C   UNL     1       2.707   4.703   2.811  1.00  0.00     0.285 C 
BRANCH  14  15
HETATM   15  C   UNL     1       2.194   5.404   4.073  1.00  0.00     0.408 C 
HETATM   16  F   UNL     1       3.180   5.980   4.791  1.00  0.00    -0.169 F 
HETATM   17  F   UNL     1       1.557   4.525   4.882  1.00  0.00    -0.169 F 
HETATM   18  F   UNL     1       1.303   6.372   3.752  1.00  0.00    -0.169 F 
ENDBRANCH  14  15
ENDBRANCH  13  14
ENDBRANCH  12  13
ENDBRANCH   9  12
ENDBRANCH   1   8
BRANCH   7  19
HETATM   19  N   UNL     1       8.208   0.944   2.471  1.00  0.00    -0.361 N 
HETATM   20  C   UNL     1       8.755  -0.161   3.271  1.00  0.00     0.150 C 
HETATM   21  C   UNL     1       8.592  -1.508   2.550  1.00  0.00     0.187 C 
HETATM   22  O   UNL     1       7.233  -1.724   2.139  1.00  0.00    -0.388 OA
HETATM   23  C   UNL     1       6.859  -0.708   1.201  1.00  0.00     0.187 C 
HETATM   24  C   UNL     1       6.922   0.698   1.820  1.00  0.00     0.150 C 
ENDBRANCH   7  19
TORSDOF 6
