REMARK  4 active torsions:
REMARK  status: ('A' for Active; 'I' for Inactive)
REMARK    1  A    between atoms: O_1  and  C_2 
REMARK    2  A    between atoms: C_2  and  C_3 
REMARK    3  A    between atoms: C_3  and  N_4 
REMARK    4  A    between atoms: C_5  and  C_6 
ROOT
HETATM    1  N   UNL     1       4.414   1.113   0.666  1.00  0.00    -0.332 N 
HETATM    2  C   UNL     1       5.269   0.027   0.654  1.00  0.00     0.098 A 
HETATM    3  N   UNL     1       6.528   0.428   0.623  1.00  0.00    -0.343 N 
ATOM      4  HN  UNL     1       7.359  -0.164   0.599  1.00  0.00     0.167 HD
HETATM    5  C   UNL     1       6.494   1.796   0.630  1.00  0.00     0.060 A 
HETATM    6  C   UNL     1       7.555   2.714   0.618  1.00  0.00     0.033 A 
HETATM    7  C   UNL     1       7.264   4.084   0.624  1.00  0.00     0.026 A 
HETATM    8  C   UNL     1       5.940   4.525   0.641  1.00  0.00     0.036 A 
HETATM    9 CL   UNL     1       5.615   6.217   0.647  1.00  0.00    -0.084 Cl
HETATM   10  C   UNL     1       4.869   3.625   0.652  1.00  0.00     0.056 A 
HETATM   11  C   UNL     1       5.183   2.259   0.647  1.00  0.00     0.064 A 
ENDROOT
BRANCH   1  12
HETATM   12  C   UNL     1       2.960   1.092   0.630  1.00  0.00     0.156 C 
BRANCH  12  13
HETATM   13  C   UNL     1       2.317   1.133   2.013  1.00  0.00     0.184 C 
BRANCH  13  14
HETATM   14  O   UNL     1       2.497   2.408   2.618  1.00  0.00    -0.399 OA
HETATM   15  H   UNL     1       2.283   2.314   3.564  1.00  0.00     0.209 HD
ENDBRANCH  13  14
ENDBRANCH  12  13
ENDBRANCH   1  12
BRANCH   2  16
HETATM   16  C   UNL     1       4.846  -1.401   0.658  1.00  0.00     0.191 C 
HETATM   17 CL   UNL     1       4.534  -1.960   2.316  1.00  0.00    -0.122 Cl
ENDBRANCH   2  16
TORSDOF 4
