REMARK  7 active torsions:
REMARK  status: ('A' for Active; 'I' for Inactive)
REMARK    1  A    between atoms: O_2  and  C_3 
REMARK    2  A    between atoms: C_3  and  C_4 
REMARK    3  A    between atoms: C_4  and  N_5 
REMARK    4  A    between atoms: C_8  and  C_13 
REMARK       I    between atoms: C_13  and  N_15 
REMARK    5  A    between atoms: N_15  and  C_16 
REMARK    6  A    between atoms: C_16  and  C_17 
REMARK    7  A    between atoms: C_16  and  C_20 
ROOT
HETATM    1  N   UNL     1       5.399  -2.288  -1.613  1.00  0.00    -0.255 N 
HETATM    2  N   UNL     1       5.764  -2.074  -2.941  1.00  0.00    -0.290 N 
ATOM      3  HN  UNL     1       6.283  -1.244  -3.226  1.00  0.00     0.187 HD
HETATM    4  C   UNL     1       5.410  -2.984  -3.797  1.00  0.00     0.116 A 
HETATM    5  C   UNL     1       4.611  -4.184  -3.472  1.00  0.00     0.042 A 
HETATM    6  C   UNL     1       4.310  -4.385  -2.191  1.00  0.00     0.078 A 
HETATM    7  C   UNL     1       4.720  -3.415  -1.158  1.00  0.00     0.262 A 
HETATM    8  O   UNL     1       4.411  -3.636   0.010  1.00  0.00    -0.267 OA
ENDROOT
BRANCH   4   9
HETATM    9  C   UNL     1       5.813  -2.856  -5.264  1.00  0.00     0.269 C 
HETATM   10  O   UNL     1       5.858  -3.866  -5.954  1.00  0.00    -0.266 OA
HETATM   11  N   UNL     1       6.073  -1.580  -5.713  1.00  0.00    -0.350 N 
HETATM   12  H   UNL     1       6.024  -0.814  -5.054  1.00  0.00     0.163 HD
BRANCH  11  13
HETATM   13  C   UNL     1       6.393  -1.328  -7.103  1.00  0.00     0.093 C 
BRANCH  13  14
HETATM   14  C   UNL     1       5.323  -0.444  -7.694  1.00  0.00     0.009 A 
HETATM   15  C   UNL     1       3.902  -0.937  -7.835  1.00  0.00     0.007 A 
HETATM   16  C   UNL     1       4.754  -0.764  -9.060  1.00  0.00     0.007 A 
ENDBRANCH  13  14
BRANCH  13  17
HETATM   17  C   UNL     1       7.765  -0.727  -7.283  1.00  0.00     0.009 A 
HETATM   18  C   UNL     1       8.986  -1.479  -6.805  1.00  0.00     0.007 A 
HETATM   19  C   UNL     1       8.620  -0.168  -6.169  1.00  0.00     0.007 A 
ENDBRANCH  13  17
ENDBRANCH  11  13
ENDBRANCH   4   9
BRANCH   1  20
HETATM   20  C   UNL     1       5.665  -1.189  -0.687  1.00  0.00     0.178 C 
BRANCH  20  21
HETATM   21  C   UNL     1       4.798   0.018  -1.030  1.00  0.00     0.189 C 
BRANCH  21  22
HETATM   22  O   UNL     1       5.002   1.071  -0.088  1.00  0.00    -0.394 OA
HETATM   23  C   UNL     1       4.217   2.208  -0.426  1.00  0.00     0.201 C 
ENDBRANCH  21  22
ENDBRANCH  20  21
ENDBRANCH   1  20
TORSDOF 7
