REMARK  1 active torsions:
REMARK  status: ('A' for Active; 'I' for Inactive)
REMARK    1  A    between atoms: C_4  and  C_7 
ROOT
HETATM    1  C   UNL     1       0.779   1.253  -0.528  1.00  0.00     0.299 C 
HETATM    2  C   UNL     1       1.451   0.049   0.162  1.00  0.00     0.300 C 
HETATM    3  N   UNL     1       0.716  -1.205  -0.047  1.00  0.00     0.096 N 
HETATM    4  C   UNL     1      -0.697  -1.083   0.384  1.00  0.00     0.282 C 
HETATM    5  C   UNL     1      -1.358   0.167  -0.291  1.00  0.00     0.309 C 
HETATM    6  N   UNL     1      -0.627   1.444  -0.134  1.00  0.00     0.087 N 
HETATM    7  H   UNL     1       1.175  -1.959   0.456  1.00  0.00     0.316 HD
HETATM    8  H   UNL     1      -0.636   1.721   0.845  1.00  0.00     0.316 HD
ENDROOT
BRANCH   4   9
HETATM    9  C   UNL     1      -0.837  -1.205   1.897  1.00  0.00    -0.008 A 
HETATM   10  C   UNL     1      -0.414  -2.377   2.547  1.00  0.00     0.012 A 
HETATM   11  C   UNL     1      -0.499  -2.490   3.933  1.00  0.00     0.018 A 
HETATM   12  C   UNL     1      -1.024  -1.426   4.641  1.00  0.00     0.087 A 
HETATM   13  N   UNL     1      -1.473  -0.295   4.063  1.00  0.00    -0.375 N 
HETATM   14  C   UNL     1      -1.378  -0.216   2.713  1.00  0.00     0.096 A 
ATOM     15  HN  UNL     1      -1.866   0.467   4.616  1.00  0.00     0.164 HD
ENDBRANCH   4   9
TORSDOF 1
