REMARK  5 active torsions:
REMARK  status: ('A' for Active; 'I' for Inactive)
REMARK    1  A    between atoms: C_2  and  C_4 
REMARK    2  A    between atoms: C_4  and  C_5 
REMARK       I    between atoms: N_10  and  C_11 
REMARK       I    between atoms: C_11  and  N_13 
REMARK    3  A    between atoms: N_13  and  C_14 
REMARK    4  A    between atoms: C_14  and  C_16 
REMARK    5  A    between atoms: C_16  and  N_17 
ROOT
HETATM    1  C   UNL     1       4.626  -1.388  -0.657  1.00  0.00     0.113 C 
HETATM    2  C   UNL     1       5.129  -0.393  -1.733  1.00  0.00     0.193 C 
HETATM    3  O   UNL     1       4.686  -0.761  -3.048  1.00  0.00    -0.388 OA
HETATM    4  C   UNL     1       5.193  -2.057  -3.403  1.00  0.00     0.187 C 
HETATM    5  C   UNL     1       4.703  -3.124  -2.422  1.00  0.00     0.154 C 
HETATM    6  N   UNL     1       5.049  -2.758  -1.041  1.00  0.00    -0.325 N 
HETATM    7  C   UNL     1       5.844  -3.632  -0.333  1.00  0.00     0.319 C 
HETATM    8  O   UNL     1       6.253  -4.685  -0.817  1.00  0.00    -0.247 OA
HETATM    9  N   UNL     1       6.193  -3.261   0.932  1.00  0.00    -0.337 N 
HETATM   10  H   UNL     1       5.733  -2.483   1.358  1.00  0.00     0.164 HD
ENDROOT
BRANCH   9  11
HETATM   11  C   UNL     1       7.022  -4.087   1.812  1.00  0.00     0.100 C 
HETATM   12  C   UNL     1       6.310  -5.389   2.188  1.00  0.00     0.034 C 
BRANCH  11  13
HETATM   13  C   UNL     1       8.430  -4.366   1.252  1.00  0.00     0.153 C 
BRANCH  13  14
HETATM   14  N   UNL     1       9.204  -3.153   1.062  1.00  0.00    -0.350 N 
HETATM   15  C   UNL     1      10.064  -2.590   1.963  1.00  0.00     0.108 A 
HETATM   16  C   UNL     1      10.567  -1.480   1.324  1.00  0.00     0.106 A 
HETATM   17  N   UNL     1      10.030  -1.355   0.069  1.00  0.00    -0.361 N 
HETATM   18  C   UNL     1       9.225  -2.386  -0.067  1.00  0.00     0.182 A 
ATOM     19  HN  UNL     1      10.215  -0.620  -0.613  1.00  0.00     0.166 HD
ENDBRANCH  13  14
ENDBRANCH  11  13
ENDBRANCH   9  11
BRANCH   1  20
HETATM   20  C   UNL     1       3.088  -1.286  -0.496  1.00  0.00     0.031 C 
BRANCH  20  21
HETATM   21  C   UNL     1       2.481  -2.220   0.571  1.00  0.00    -0.021 C 
HETATM   22  C   UNL     1       2.919  -1.853   1.989  1.00  0.00     0.009 C 
HETATM   23  C   UNL     1       0.951  -2.170   0.500  1.00  0.00     0.009 C 
ENDBRANCH  20  21
ENDBRANCH   1  20
TORSDOF 5
