REMARK  7 active torsions:
REMARK  status: ('A' for Active; 'I' for Inactive)
REMARK    1  A    between atoms: N_2  and  C_9 
REMARK    2  A    between atoms: C_4  and  N_7 
REMARK    3  A    between atoms: C_14  and  C_23 
REMARK    4  A    between atoms: C_14  and  C_24 
REMARK    5  A    between atoms: C_20  and  C_29 
REMARK    6  A    between atoms: C_23  and  O_25 
REMARK    7  A    between atoms: C_24  and  O_26 
ROOT
HETATM    1  C   UNL     1       0.420  -0.651   0.168  1.00  0.00     0.117 A 
HETATM    2  N   UNL     1       1.645   1.149   0.104  1.00  0.00    -0.322 N 
HETATM    3  C   UNL     1       0.336   0.741   0.166  1.00  0.00     0.140 A 
HETATM    4  C   UNL     1      -0.784  -1.401   0.176  1.00  0.00     0.115 A 
HETATM    5  N   UNL     1       1.738  -1.067   0.138  1.00  0.00    -0.346 N 
ATOM      6  HN  UNL     1       2.087  -2.025   0.145  1.00  0.00     0.167 HD
HETATM    7  C   UNL     1       2.440   0.037   0.099  1.00  0.00     0.185 A 
HETATM    8  N   UNL     1      -0.790   1.473   0.194  1.00  0.00    -0.336 N 
ATOM      9  HN  UNL     1      -0.818   2.493   0.198  1.00  0.00     0.168 HD
HETATM   10  N   UNL     1      -1.938  -0.677   0.212  1.00  0.00    -0.341 N 
ATOM     11  HN  UNL     1      -2.840  -1.152   0.236  1.00  0.00     0.167 HD
HETATM   12  C   UNL     1      -1.881   0.674   0.216  1.00  0.00     0.183 A 
ENDROOT
BRANCH   2  13
HETATM   13  C   UNL     1       2.250   2.445   0.072  1.00  0.00     0.094 C 
HETATM   14  C   UNL     1       1.846   3.391   1.238  1.00  0.00     0.039 C 
HETATM   15  C   UNL     1       2.101   4.573   0.238  1.00  0.00     0.006 C 
HETATM   16  C   UNL     1       1.644   3.528  -0.854  1.00  0.00     0.039 C 
BRANCH  15  17
HETATM   17  C   UNL     1       1.173   5.769   0.451  1.00  0.00     0.175 C 
BRANCH  17  18
HETATM   18  O   UNL     1       1.183   6.608  -0.699  1.00  0.00    -0.400 OA
HETATM   19  H   UNL     1       2.117   6.839  -0.878  1.00  0.00     0.209 HD
ENDBRANCH  17  18
ENDBRANCH  15  17
BRANCH  15  20
HETATM   20  C   UNL     1       3.573   5.021   0.210  1.00  0.00     0.175 C 
BRANCH  20  21
HETATM   21  O   UNL     1       3.841   5.735  -0.991  1.00  0.00    -0.400 OA
HETATM   22  H   UNL     1       3.966   5.078  -1.701  1.00  0.00     0.209 HD
ENDBRANCH  20  21
ENDBRANCH  15  20
ENDBRANCH   2  13
BRANCH   4  23
HETATM   23  N   UNL     1      -0.876  -2.802   0.022  1.00  0.00    -0.258 NA
HETATM   24  C   UNL     1       0.291  -3.352  -0.715  1.00  0.00     0.134 C 
HETATM   25  C   UNL     1       0.056  -4.826  -1.096  1.00  0.00     0.066 C 
HETATM   26  O   UNL     1      -0.169  -5.605   0.097  1.00  0.00    -0.378 OA
HETATM   27  C   UNL     1      -1.097  -4.964  -2.100  1.00  0.00     0.047 C 
HETATM   28  C   UNL     1       1.336  -5.385  -1.733  1.00  0.00     0.047 C 
HETATM   29  C   UNL     1      -1.245  -5.096   0.902  1.00  0.00     0.188 C 
HETATM   30  C   UNL     1      -1.105  -3.586   1.271  1.00  0.00     0.088 C 
BRANCH  30  31
HETATM   31  C   UNL     1      -2.319  -3.138   2.108  1.00  0.00     0.018 C 
HETATM   32  C   UNL     1      -3.671  -3.313   1.429  1.00  0.00     0.007 C 
ENDBRANCH  30  31
ENDBRANCH   4  23
TORSDOF 7
