REMARK  6 active torsions:
REMARK  status: ('A' for Active; 'I' for Inactive)
REMARK    1  A    between atoms: N_8  and  C_9 
REMARK    2  A    between atoms: C_9  and  C_10 
REMARK    3  A    between atoms: C_10  and  O_11 
REMARK    4  A    between atoms: C_10  and  C_12 
REMARK    5  A    between atoms: C_12  and  N_13 
REMARK    6  A    between atoms: C_17  and  O_18 
ROOT
HETATM    1  C   UNL     1       7.547   0.887   0.120  1.00  0.00     0.163 C 
ENDROOT
BRANCH   1   2
HETATM    2  N   UNL     1       8.426   0.468   1.194  1.00  0.00    -0.339 N 
HETATM    3  C   UNL     1       9.792   0.484   1.158  1.00  0.00     0.184 A 
HETATM    4  N   UNL     1      10.312   0.093   2.299  1.00  0.00    -0.350 N 
HETATM    5  C   UNL     1       9.238  -0.221   3.095  1.00  0.00     0.060 A 
ATOM      6  HN  UNL     1      11.301   0.035   2.542  1.00  0.00     0.166 HD
HETATM    7  C   UNL     1       9.209  -0.679   4.420  1.00  0.00     0.039 A 
HETATM    8  C   UNL     1       8.040  -0.022   2.420  1.00  0.00     0.062 A 
HETATM    9  C   UNL     1       7.971  -0.927   5.047  1.00  0.00    -0.054 A 
HETATM   10  C   UNL     1       7.963  -1.382   6.481  1.00  0.00     0.049 C 
HETATM   11  C   UNL     1       6.768  -0.732   4.333  1.00  0.00    -0.054 A 
HETATM   12  C   UNL     1       6.793  -0.283   2.999  1.00  0.00     0.039 A 
HETATM   13  C   UNL     1       5.432  -0.986   4.982  1.00  0.00     0.049 C 
ENDBRANCH   1   2
BRANCH   1  14
HETATM   14  C   UNL     1       7.101   2.362   0.199  1.00  0.00     0.164 C 
BRANCH  14  15
HETATM   15  O   UNL     1       6.364   2.626   1.398  1.00  0.00    -0.392 OA
HETATM   16  H   UNL     1       6.952   2.465   2.160  1.00  0.00     0.210 HD
ENDBRANCH  14  15
BRANCH  14  17
HETATM   17  C   UNL     1       8.249   3.392   0.035  1.00  0.00     0.305 C 
BRANCH  17  18
HETATM   18  N   UNL     1       9.050   3.155  -1.169  1.00  0.00     0.093 N 
HETATM   19  C   UNL     1       8.340   3.441  -2.422  1.00  0.00     0.272 C 
HETATM   20  C   UNL     1       9.125   2.806  -3.570  1.00  0.00     0.033 C 
HETATM   21  C   UNL     1      10.551   3.341  -3.640  1.00  0.00     0.035 C 
HETATM   22  C   UNL     1      11.243   3.316  -2.277  1.00  0.00     0.146 C 
HETATM   23  C   UNL     1      10.331   3.881  -1.163  1.00  0.00     0.303 C 
BRANCH  22  24
HETATM   24  O   UNL     1      12.470   4.035  -2.341  1.00  0.00    -0.394 OA
HETATM   25  H   UNL     1      12.306   4.882  -2.787  1.00  0.00     0.210 HD
ENDBRANCH  22  24
ENDBRANCH  17  18
ENDBRANCH  14  17
ENDBRANCH   1  14
TORSDOF 6
