REMARK  6 active torsions:
REMARK  status: ('A' for Active; 'I' for Inactive)
REMARK    1  A    between atoms: O_2  and  C_3 
REMARK    2  A    between atoms: C_6  and  O_7 
REMARK    3  A    between atoms: C_9  and  C_11 
REMARK    4  A    between atoms: C_11  and  O_12 
REMARK    5  A    between atoms: C_11  and  C_13 
REMARK    6  A    between atoms: C_13  and  N_14 
ROOT
HETATM    1  C   UNL     1       6.485   2.114   1.803  1.00  0.00     0.172 C 
ENDROOT
BRANCH   1   2
HETATM    2  C   UNL     1       5.023   2.168   1.381  1.00  0.00     0.008 A 
HETATM    3  C   UNL     1       4.010   1.523   2.117  1.00  0.00     0.077 A 
HETATM    4  C   UNL     1       2.681   1.613   1.695  1.00  0.00     0.040 A 
HETATM    5  C   UNL     1       2.340   2.364   0.566  1.00  0.00     0.039 A 
HETATM    6  C   UNL     1       3.326   3.033  -0.156  1.00  0.00     0.069 A 
HETATM    7  C   UNL     1       4.660   2.921   0.247  1.00  0.00     0.049 A 
BRANCH   3   8
HETATM    8  O   UNL     1       4.421   0.860   3.242  1.00  0.00    -0.355 OA
HETATM    9  C   UNL     1       3.439   0.186   4.017  1.00  0.00     0.210 C 
ENDBRANCH   3   8
BRANCH   6  10
HETATM   10  O   UNL     1       3.114   3.819  -1.256  1.00  0.00    -0.356 OA
HETATM   11  C   UNL     1       1.760   4.050  -1.629  1.00  0.00     0.210 C 
ENDBRANCH   6  10
ENDBRANCH   1   2
BRANCH   1  12
HETATM   12  O   UNL     1       6.599   2.734   3.086  1.00  0.00    -0.389 OA
HETATM   13  H   UNL     1       6.118   2.155   3.708  1.00  0.00     0.210 HD
ENDBRANCH   1  12
BRANCH   1  14
HETATM   14  C   UNL     1       7.070   0.680   1.809  1.00  0.00     0.170 C 
BRANCH  14  15
HETATM   15  N   UNL     1       8.459   0.620   2.207  1.00  0.00    -0.295 N 
HETATM   16  C   UNL     1       8.907   0.404   3.532  1.00  0.00     0.329 A 
HETATM   17  O   UNL     1       8.211   0.242   4.523  1.00  0.00    -0.246 OA
HETATM   18  N   UNL     1      10.318   0.378   3.470  1.00  0.00    -0.302 N 
HETATM   19  C   UNL     1      11.199   0.135   4.575  1.00  0.00     0.161 C 
HETATM   20  C   UNL     1      10.720   0.593   2.145  1.00  0.00     0.065 A 
HETATM   21  C   UNL     1      11.985   0.646   1.597  1.00  0.00     0.032 A 
HETATM   22  C   UNL     1       9.570   0.751   1.366  1.00  0.00     0.066 A 
HETATM   23  C   UNL     1      12.074   0.871   0.220  1.00  0.00     0.002 A 
HETATM   24  C   UNL     1      10.915   1.035  -0.566  1.00  0.00     0.002 A 
HETATM   25  C   UNL     1       9.640   0.973   0.007  1.00  0.00     0.032 A 
ENDBRANCH  14  15
ENDBRANCH   1  14
TORSDOF 6
