REMARK  6 active torsions:
REMARK  status: ('A' for Active; 'I' for Inactive)
REMARK    1  A    between atoms: C_2  and  C_3 
REMARK    2  A    between atoms: C_5  and  N_6 
REMARK       I    between atoms: N_6  and  C_7 
REMARK       I    between atoms: C_7  and  N_9 
REMARK    3  A    between atoms: N_9  and  C_10 
REMARK    4  A    between atoms: C_10  and  C_11 
REMARK    5  A    between atoms: C_11  and  O_13 
REMARK    6  A    between atoms: C_11  and  C_14 
ROOT
HETATM    1  C   UNL     1      -2.494   0.751  -3.231  1.00  0.00     0.166 C 
ENDROOT
BRANCH   1   2
HETATM    2  N   UNL     1      -1.494   1.367  -2.371  1.00  0.00    -0.340 N 
HETATM    3  C   UNL     1      -0.182   1.359  -2.769  1.00  0.00     0.316 C 
HETATM    4  N   UNL     1       0.652   1.932  -1.838  1.00  0.00    -0.338 N 
HETATM    5  O   UNL     1       0.187   0.901  -3.842  1.00  0.00    -0.247 OA
HETATM    6  H   UNL     1       0.214   2.589  -1.208  1.00  0.00     0.164 HD
HETATM    7  H   UNL     1      -1.672   1.348  -1.375  1.00  0.00     0.164 HD
BRANCH   4   8
HETATM    8  C   UNL     1       2.048   2.102  -2.114  1.00  0.00     0.090 A 
HETATM    9  C   UNL     1       3.116   1.383  -1.323  1.00  0.00     0.010 A 
HETATM   10  C   UNL     1       2.945   2.873  -1.186  1.00  0.00     0.032 A 
BRANCH   9  11
HETATM   11  C   UNL     1       2.832   0.529  -0.124  1.00  0.00     0.002 C 
HETATM   12  C   UNL     1       2.927  -0.955  -0.437  1.00  0.00     0.005 C 
ENDBRANCH   9  11
ENDBRANCH   4   8
ENDBRANCH   1   2
BRANCH   1  13
HETATM   13  C   UNL     1      -3.928   0.808  -2.646  1.00  0.00     0.100 C 
HETATM   14  C   UNL     1      -4.886   0.042  -3.570  1.00  0.00     0.053 C 
BRANCH  13  15
HETATM   15  O   UNL     1      -3.908   0.114  -1.380  1.00  0.00    -0.384 OA
HETATM   16  H   UNL     1      -3.500  -0.756  -1.530  1.00  0.00     0.211 HD
ENDBRANCH  13  15
BRANCH  13  17
HETATM   17  C   UNL     1      -4.401   2.223  -2.446  1.00  0.00     0.011 A 
HETATM   18  C   UNL     1      -4.505   3.255  -3.411  1.00  0.00     0.119 A 
HETATM   19  N   UNL     1      -4.958   4.402  -2.899  1.00  0.00    -0.310 N 
HETATM   20  N   UNL     1      -5.145   4.114  -1.600  1.00  0.00    -0.307 N 
ATOM     21  HN  UNL     1      -5.123   5.286  -3.380  1.00  0.00     0.186 HD
HETATM   22  C   UNL     1      -5.620   5.127  -0.690  1.00  0.00     0.177 C 
HETATM   23  C   UNL     1      -4.836   2.827  -1.281  1.00  0.00     0.121 A 
ENDBRANCH  13  17
ENDBRANCH   1  13
TORSDOF 6
