REMARK  8 active torsions:
REMARK  status: ('A' for Active; 'I' for Inactive)
REMARK    1  A    between atoms: N_2  and  C_15 
REMARK    2  A    between atoms: C_6  and  N_8 
REMARK    3  A    between atoms: N_8  and  C_19 
REMARK    4  A    between atoms: C_13  and  C_15 
REMARK    5  A    between atoms: C_13  and  C_26 
REMARK    6  A    between atoms: C_14  and  C_19 
REMARK       I    between atoms: C_14  and  N_17 
REMARK    7  A    between atoms: C_16  and  N_17 
REMARK    8  A    between atoms: C_26  and  O_28 
ROOT
HETATM    1  C   UNL     1       0.535  -0.896  -0.377  1.00  0.00     0.117 A 
HETATM    2  N   UNL     1       1.680   0.995  -0.323  1.00  0.00    -0.326 N 
HETATM    3  C   UNL     1       0.422   0.475  -0.140  1.00  0.00     0.140 A 
HETATM    4  N   UNL     1       1.851  -1.188  -0.706  1.00  0.00    -0.346 N 
ATOM      5  HN  UNL     1       2.235  -2.103  -0.941  1.00  0.00     0.167 HD
HETATM    6  C   UNL     1      -0.648  -1.695  -0.227  1.00  0.00     0.114 A 
HETATM    7  C   UNL     1       2.504  -0.049  -0.654  1.00  0.00     0.185 A 
HETATM    8  N   UNL     1      -0.681   1.156   0.212  1.00  0.00    -0.336 N 
ATOM      9  HN  UNL     1      -0.717   2.164   0.365  1.00  0.00     0.168 HD
HETATM   10  N   UNL     1      -1.769  -1.011   0.152  1.00  0.00    -0.341 N 
ATOM     11  HN  UNL     1      -2.643  -1.516   0.298  1.00  0.00     0.167 HD
HETATM   12  C   UNL     1      -1.731   0.324   0.335  1.00  0.00     0.183 A 
ENDROOT
BRANCH   6  13
HETATM   13  N   UNL     1      -0.774  -3.098  -0.338  1.00  0.00    -0.263 NA
HETATM   14  C   UNL     1       0.225  -3.804  -1.152  1.00  0.00     0.119 C 
BRANCH  13  15
HETATM   15  C   UNL     1      -2.163  -3.569  -0.621  1.00  0.00     0.199 C 
BRANCH  15  16
HETATM   16  C   UNL     1      -3.158  -3.731   0.536  1.00  0.00     0.231 C 
HETATM   17  N   UNL     1      -2.771  -3.399   1.820  1.00  0.00    -0.355 N 
HETATM   18  H   UNL     1      -1.918  -2.857   1.902  1.00  0.00     0.162 HD
HETATM   19  O   UNL     1      -4.280  -4.199   0.297  1.00  0.00    -0.272 OA
BRANCH  17  20
HETATM   20  C   UNL     1      -3.696  -3.506   2.921  1.00  0.00     0.084 A 
HETATM   21  C   UNL     1      -3.966  -2.336   3.830  1.00  0.00     0.027 A 
HETATM   22  C   UNL     1      -3.255  -3.545   4.359  1.00  0.00     0.027 A 
ENDBRANCH  17  20
ENDBRANCH  15  16
ENDBRANCH  13  15
ENDBRANCH   6  13
BRANCH   2  23
HETATM   23  C   UNL     1       2.120   2.367  -0.055  1.00  0.00     0.147 C 
BRANCH  23  24
HETATM   24  C   UNL     1       1.986   3.337  -1.223  1.00  0.00     0.040 C 
HETATM   25  C   UNL     1       2.949   3.114  -2.408  1.00  0.00     0.183 C 
HETATM   26  O   UNL     1       3.328   4.513  -2.399  1.00  0.00    -0.389 OA
HETATM   27  C   UNL     1       2.783   4.655  -1.059  1.00  0.00     0.183 C 
BRANCH  24  28
HETATM   28  C   UNL     1       0.552   3.594  -1.674  1.00  0.00     0.179 C 
BRANCH  28  29
HETATM   29  O   UNL     1      -0.224   4.033  -0.564  1.00  0.00    -0.400 OA
HETATM   30  H   UNL     1      -0.588   3.232  -0.135  1.00  0.00     0.209 HD
ENDBRANCH  28  29
ENDBRANCH  24  28
ENDBRANCH  23  24
ENDBRANCH   2  23
TORSDOF 8
