REMARK  4 active torsions:
REMARK  status: ('A' for Active; 'I' for Inactive)
REMARK    1  A    between atoms: C_2  and  C_4 
REMARK    2  A    between atoms: C_4  and  C_5 
REMARK    3  A    between atoms: C_9  and  N_10 
REMARK       I    between atoms: N_10  and  C_11 
REMARK       I    between atoms: C_11  and  N_13 
REMARK    4  A    between atoms: N_13  and  C_14 
ROOT
HETATM    1  N   UNL     1       7.783  -0.812  -0.991  1.00  0.00    -0.289 N 
HETATM    2  C   UNL     1       7.637  -2.112  -0.610  1.00  0.00     0.322 C 
HETATM    3  O   UNL     1       8.613  -2.856  -0.589  1.00  0.00    -0.247 OA
HETATM    4  N   UNL     1       6.396  -2.467  -0.171  1.00  0.00    -0.332 N 
HETATM    5  H   UNL     1       8.725  -0.491  -1.158  1.00  0.00     0.172 HD
HETATM    6  H   UNL     1       5.640  -1.865  -0.494  1.00  0.00     0.165 HD
ENDROOT
BRANCH   1   7
HETATM    7  C   UNL     1       6.751   0.053  -1.172  1.00  0.00     0.152 A 
HETATM    8  N   UNL     1       5.466  -0.225  -1.178  1.00  0.00    -0.345 N 
HETATM    9  C   UNL     1       4.767   0.909  -1.531  1.00  0.00     0.104 A 
ATOM     10  HN  UNL     1       5.054  -1.132  -0.957  1.00  0.00     0.167 HD
HETATM   11  C   UNL     1       5.535   2.034  -1.748  1.00  0.00     0.002 A 
HETATM   12  S   UNL     1       7.189   1.669  -1.442  1.00  0.00    -0.057 SA
BRANCH  11  13
HETATM   13  C   UNL     1       5.106   3.383  -2.229  1.00  0.00     0.051 C 
BRANCH  13  14
HETATM   14  C   UNL     1       5.805   3.787  -3.542  1.00  0.00    -0.018 C 
HETATM   15  C   UNL     1       5.507   2.805  -4.680  1.00  0.00     0.010 C 
HETATM   16  C   UNL     1       5.393   5.201  -3.943  1.00  0.00     0.010 C 
ENDBRANCH  13  14
ENDBRANCH  11  13
ENDBRANCH   1   7
BRANCH   4  17
HETATM   17  C   UNL     1       6.043  -3.722   0.469  1.00  0.00     0.054 C 
HETATM   18  C   UNL     1       6.939  -3.977   1.693  1.00  0.00     0.041 C 
HETATM   19  C   UNL     1       6.035  -4.886  -0.506  1.00  0.00     0.059 C 
HETATM   20  C   UNL     1       5.051  -5.858   0.116  1.00  0.00     0.170 C 
HETATM   21  O   UNL     1       4.156  -5.103   0.945  1.00  0.00    -0.389 OA
HETATM   22  C   UNL     1       4.573  -3.730   0.911  1.00  0.00     0.198 C 
ENDBRANCH   4  17
TORSDOF 4
