REMARK  5 active torsions:
REMARK  status: ('A' for Active; 'I' for Inactive)
REMARK    1  A    between atoms: C_2  and  C_3 
REMARK    2  A    between atoms: C_2  and  C_5 
REMARK    3  A    between atoms: C_3  and  O_4 
REMARK    4  A    between atoms: C_5  and  N_7 
REMARK       I    between atoms: N_7  and  C_8 
REMARK       I    between atoms: C_8  and  N_10 
REMARK    5  A    between atoms: N_10  and  C_12 
ROOT
HETATM    1  N   UNL     1       4.472   0.076  -1.623  1.00  0.00    -0.338 N 
HETATM    2  C   UNL     1       5.213  -0.102  -2.764  1.00  0.00     0.324 C 
HETATM    3  O   UNL     1       4.688  -0.303  -3.858  1.00  0.00    -0.247 OA
HETATM    4  N   UNL     1       6.581   0.102  -2.618  1.00  0.00    -0.290 N 
HETATM    5  C   UNL     1       7.447  -0.025  -3.782  1.00  0.00     0.163 C 
HETATM    6  H   UNL     1       4.976  -0.149  -0.769  1.00  0.00     0.164 HD
ENDROOT
BRANCH   1   7
HETATM    7  C   UNL     1       3.015   0.079  -1.563  1.00  0.00     0.087 C 
HETATM    8  C   UNL     1       2.454  -1.291  -1.953  1.00  0.00     0.032 C 
BRANCH   7   9
HETATM    9  C   UNL     1       2.395   1.258  -2.364  1.00  0.00     0.028 C 
HETATM   10  C   UNL     1       0.868   1.321  -2.213  1.00  0.00     0.014 C 
BRANCH   9  11
HETATM   11  C   UNL     1       3.008   2.602  -1.929  1.00  0.00     0.170 C 
BRANCH  11  12
HETATM   12  O   UNL     1       2.526   3.669  -2.740  1.00  0.00    -0.400 OA
HETATM   13  H   UNL     1       2.740   3.441  -3.662  1.00  0.00     0.209 HD
ENDBRANCH  11  12
ENDBRANCH   9  11
ENDBRANCH   7   9
ENDBRANCH   1   7
BRANCH   4  14
HETATM   14  C   UNL     1       7.202   0.344  -1.372  1.00  0.00     0.110 A 
HETATM   15  C   UNL     1       8.119   1.387  -1.248  1.00  0.00     0.050 A 
HETATM   16  C   UNL     1       8.701   1.642  -0.007  1.00  0.00     0.029 A 
HETATM   17  C   UNL     1       8.398   0.816   1.065  1.00  0.00     0.049 A 
HETATM   18 CL   UNL     1       9.126   1.063   2.597  1.00  0.00    -0.083 Cl
HETATM   19  C   UNL     1       7.482  -0.204   0.863  1.00  0.00     0.113 A 
HETATM   20  N   UNL     1       6.847  -0.428  -0.314  1.00  0.00    -0.350 N 
ATOM     21  HN  UNL     1       6.130  -1.149  -0.401  1.00  0.00     0.166 HD
ENDBRANCH   4  14
TORSDOF 5
