REMARK  2 active torsions:
REMARK  status: ('A' for Active; 'I' for Inactive)
REMARK    1  A    between atoms: C_6  and  N_7 
REMARK       I    between atoms: N_7  and  C_8 
REMARK       I    between atoms: C_8  and  N_10 
REMARK    2  A    between atoms: N_10  and  C_11 
ROOT
HETATM    1  N   UNL     1       5.234  -2.624   0.138  1.00  0.00    -0.295 N 
HETATM    2  C   UNL     1       4.384  -3.672  -0.080  1.00  0.00     0.322 C 
HETATM    3  O   UNL     1       3.172  -3.501  -0.017  1.00  0.00    -0.247 OA
HETATM    4  N   UNL     1       4.959  -4.881  -0.316  1.00  0.00    -0.335 N 
HETATM    5  H   UNL     1       4.758  -1.769   0.375  1.00  0.00     0.172 HD
HETATM    6  H   UNL     1       5.974  -4.888  -0.268  1.00  0.00     0.164 HD
ENDROOT
BRANCH   1   7
HETATM    7  C   UNL     1       6.631  -2.648   0.182  1.00  0.00     0.109 A 
HETATM    8  C   UNL     1       7.308  -1.557   0.704  1.00  0.00     0.049 A 
HETATM    9  C   UNL     1       8.698  -1.631   0.816  1.00  0.00     0.006 A 
HETATM   10  C   UNL     1       9.367  -2.768   0.371  1.00  0.00     0.025 A 
HETATM   11  C   UNL     1       8.624  -3.805  -0.170  1.00  0.00     0.007 A 
HETATM   12  C   UNL     1       9.261  -5.031  -0.743  1.00  0.00     0.068 C 
HETATM   13  N   UNL     1       7.278  -3.755  -0.249  1.00  0.00    -0.346 N 
ATOM     14  HN  UNL     1       6.754  -4.543  -0.629  1.00  0.00     0.167 HD
ENDBRANCH   1   7
BRANCH   4  15
HETATM   15  C   UNL     1       4.261  -6.142  -0.341  1.00  0.00     0.109 C 
HETATM   16  C   UNL     1       4.068  -6.680   1.083  1.00  0.00     0.029 C 
HETATM   17  C   UNL     1       3.693  -8.162   1.136  1.00  0.00     0.006 C 
HETATM   18  C   UNL     1       4.456  -9.073   0.169  1.00  0.00     0.027 C 
HETATM   19  C   UNL     1       5.186  -8.383  -0.942  1.00  0.00    -0.029 C 
HETATM   20  C   UNL     1       5.090  -7.069  -1.182  1.00  0.00    -0.006 C 
ENDBRANCH   4  15
TORSDOF 2
