REMARK  3 active torsions:
REMARK  status: ('A' for Active; 'I' for Inactive)
REMARK    1  A    between atoms: N_6  and  C_7 
REMARK    2  A    between atoms: C_7  and  C_8 
REMARK       I    between atoms: C_8  and  N_10 
REMARK       I    between atoms: N_10  and  C_11 
REMARK       I    between atoms: C_11  and  N_13 
REMARK    3  A    between atoms: N_13  and  C_14 
ROOT
HETATM    1  C   UNL     1       7.524  -1.402  -0.239  1.00  0.00     0.245 C 
HETATM    2  O   UNL     1       7.132  -0.268   0.057  1.00  0.00    -0.271 OA
HETATM    3  N   UNL     1       8.860  -1.732  -0.090  1.00  0.00    -0.278 N 
HETATM    4  C   UNL     1       9.388  -2.985  -0.249  1.00  0.00     0.323 C 
HETATM    5  O   UNL     1       8.771  -3.940  -0.703  1.00  0.00    -0.247 OA
HETATM    6  N   UNL     1      10.677  -3.110   0.184  1.00  0.00    -0.338 N 
HETATM    7  H   UNL     1       9.423  -1.005   0.319  1.00  0.00     0.173 HD
HETATM    8  H   UNL     1      11.273  -2.296   0.142  1.00  0.00     0.164 HD
ENDROOT
BRANCH   1   9
HETATM    9  C   UNL     1       6.605  -2.536  -0.717  1.00  0.00     0.255 C 
BRANCH   9  10
HETATM   10  N   UNL     1       5.241  -2.137  -0.992  1.00  0.00    -0.248 N 
HETATM   11  N   UNL     1       4.319  -2.390  -0.005  1.00  0.00    -0.305 N 
HETATM   12  C   UNL     1       3.083  -2.169  -0.300  1.00  0.00     0.133 A 
ATOM     13  HN  UNL     1       4.598  -2.735   0.914  1.00  0.00     0.186 HD
HETATM   14  C   UNL     1       2.586  -1.694  -1.597  1.00  0.00     0.078 A 
HETATM   15 CL   UNL     1       0.890  -1.496  -1.755  1.00  0.00    -0.081 Cl
HETATM   16  C   UNL     1       3.489  -1.473  -2.554  1.00  0.00     0.126 A 
HETATM   17  C   UNL     1       4.933  -1.699  -2.277  1.00  0.00     0.285 A 
HETATM   18 CL   UNL     1       3.070  -0.957  -4.148  1.00  0.00    -0.076 Cl
HETATM   19  O   UNL     1       5.783  -1.532  -3.150  1.00  0.00    -0.265 OA
ENDBRANCH   9  10
ENDBRANCH   1   9
BRANCH   6  20
HETATM   20  C   UNL     1      11.327  -4.415   0.193  1.00  0.00     0.086 C 
HETATM   21  C   UNL     1      10.577  -5.457   1.040  1.00  0.00     0.025 C 
HETATM   22  C   UNL     1      11.446  -6.695   1.222  1.00  0.00     0.002 C 
HETATM   23  C   UNL     1      11.900  -7.281  -0.117  1.00  0.00     0.000 C 
HETATM   24  C   UNL     1      12.457  -6.238  -1.091  1.00  0.00     0.002 C 
HETATM   25  C   UNL     1      11.565  -5.003  -1.205  1.00  0.00     0.025 C 
ENDBRANCH   6  20
TORSDOF 3
