REMARK  4 active torsions:
REMARK  status: ('A' for Active; 'I' for Inactive)
REMARK    1  A    between atoms: C_2  and  C_4 
REMARK    2  A    between atoms: C_7  and  C_8 
REMARK    3  A    between atoms: C_8  and  C_9 
REMARK    4  A    between atoms: C_9  and  N_10 
REMARK       I    between atoms: N_10  and  C_11 
REMARK       I    between atoms: C_11  and  N_13 
ROOT
HETATM    1  C   UNL     1       3.739   2.471  -4.104  1.00  0.00     0.077 C 
ENDROOT
BRANCH   1   2
HETATM    2  C   UNL     1       3.533   1.272  -3.233  1.00  0.00     0.018 A 
HETATM    3  N   UNL     1       4.364   0.171  -3.377  1.00  0.00    -0.356 N 
HETATM    4  C   UNL     1       4.009  -0.783  -2.538  1.00  0.00     0.054 A 
ATOM      5  HN  UNL     1       5.139   0.108  -4.037  1.00  0.00     0.166 HD
HETATM    6  S   UNL     1       2.691  -0.394  -1.503  1.00  0.00    -0.086 SA
HETATM    7  C   UNL     1       2.573   1.141  -2.248  1.00  0.00     0.076 A 
BRANCH   4   8
HETATM    8  C   UNL     1       4.667  -2.138  -2.452  1.00  0.00     0.035 C 
HETATM    9  C   UNL     1       4.539  -2.876  -3.787  1.00  0.00     0.016 C 
HETATM   10  C   UNL     1       6.136  -1.997  -2.053  1.00  0.00     0.016 C 
ENDBRANCH   4   8
ENDBRANCH   1   2
BRANCH   1  11
HETATM   11  C   UNL     1       4.183   2.112  -5.525  1.00  0.00     0.130 C 
BRANCH  11  12
HETATM   12  N   UNL     1       4.406   3.269  -6.373  1.00  0.00    -0.347 N 
HETATM   13  C   UNL     1       3.398   4.136  -6.713  1.00  0.00     0.296 C 
HETATM   14  O   UNL     1       2.225   3.990  -6.393  1.00  0.00    -0.254 OA
HETATM   15  N   UNL     1       3.877   5.220  -7.411  1.00  0.00    -0.235 NA
HETATM   16  C   UNL     1       3.062   6.361  -7.848  1.00  0.00     0.101 C 
HETATM   17  C   UNL     1       4.499   5.127  -8.741  1.00  0.00     0.101 C 
HETATM   18  C   UNL     1       4.215   6.633  -8.827  1.00  0.00     0.030 C 
HETATM   19  H   UNL     1       5.330   3.676  -6.389  1.00  0.00     0.163 HD
ENDBRANCH  11  12
ENDBRANCH   1  11
TORSDOF 4
