REMARK  6 active torsions:
REMARK  status: ('A' for Active; 'I' for Inactive)
REMARK    1  A    between atoms: C_2  and  C_3 
REMARK    2  A    between atoms: C_2  and  N_10 
REMARK    3  A    between atoms: C_3  and  N_4 
REMARK       I    between atoms: N_10  and  C_11 
REMARK    4  A    between atoms: C_11  and  C_13 
REMARK    5  A    between atoms: C_13  and  C_14 
REMARK    6  A    between atoms: C_14  and  C_15 
ROOT
HETATM    1  N   UNL     1       3.121  -0.763   1.136  1.00  0.00    -0.355 N 
HETATM    2  C   UNL     1       4.479  -0.932   1.270  1.00  0.00     0.218 C 
HETATM    3  O   UNL     1       5.287  -0.560   0.424  1.00  0.00    -0.274 OA
HETATM    4  H   UNL     1       2.524  -0.955   1.931  1.00  0.00     0.162 HD
ENDROOT
BRANCH   2   5
HETATM    5  C   UNL     1       4.902  -1.621   2.556  1.00  0.00     0.105 C 
BRANCH   5   6
HETATM    6  C   UNL     1       5.917  -0.749   3.295  1.00  0.00     0.044 C 
BRANCH   6   7
HETATM    7  C   UNL     1       6.436  -1.329   4.601  1.00  0.00     0.179 C 
HETATM    8  N   UNL     1       7.099  -2.602   4.486  1.00  0.00    -0.330 N 
HETATM    9  C   UNL     1       6.711  -3.460   5.491  1.00  0.00     0.323 C 
HETATM   10  H   UNL     1       7.964  -2.773   3.987  1.00  0.00     0.165 HD
HETATM   11  O   UNL     1       7.230  -4.533   5.737  1.00  0.00    -0.247 OA
HETATM   12  N   UNL     1       5.669  -2.902   6.153  1.00  0.00    -0.278 N 
HETATM   13  C   UNL     1       5.370  -1.677   5.640  1.00  0.00     0.248 C 
HETATM   14  H   UNL     1       5.173  -3.355   6.901  1.00  0.00     0.173 HD
HETATM   15  O   UNL     1       4.438  -0.969   5.986  1.00  0.00    -0.271 OA
ENDBRANCH   6   7
ENDBRANCH   5   6
ENDBRANCH   2   5
BRANCH   1  16
HETATM   16  C   UNL     1       2.522  -0.092  -0.027  1.00  0.00     0.100 C 
HETATM   17  C   UNL     1       1.085  -0.589  -0.181  1.00  0.00     0.034 C 
BRANCH  16  18
HETATM   18  C   UNL     1       2.617   1.440   0.102  1.00  0.00     0.172 C 
BRANCH  18  19
HETATM   19  N   UNL     1       2.084   2.159  -1.039  1.00  0.00    -0.302 N 
HETATM   20  C   UNL     1       2.760   2.545  -2.163  1.00  0.00     0.111 A 
HETATM   21  C   UNL     1       1.848   3.209  -2.948  1.00  0.00     0.037 A 
HETATM   22  C   UNL     1       0.651   3.181  -2.210  1.00  0.00     0.108 A 
HETATM   23  N   UNL     1       0.792   2.549  -1.040  1.00  0.00    -0.310 N 
ATOM     24  HN  UNL     1       0.088   2.397  -0.318  1.00  0.00     0.186 HD
ENDBRANCH  18  19
ENDBRANCH  16  18
ENDBRANCH   1  16
TORSDOF 6
