REMARK  7 active torsions:
REMARK  status: ('A' for Active; 'I' for Inactive)
REMARK    1  A    between atoms: C_2  and  C_3 
REMARK       I    between atoms: C_2  and  N_17 
REMARK    2  A    between atoms: C_3  and  N_4 
REMARK    3  A    between atoms: N_11  and  C_12 
REMARK    4  A    between atoms: N_17  and  C_18 
REMARK    5  A    between atoms: C_18  and  C_19 
REMARK    6  A    between atoms: C_19  and  C_20 
REMARK    7  A    between atoms: C_20  and  N_21 
ROOT
HETATM    1  N   UNL     1       2.123   2.327   0.595  1.00  0.00    -0.256 N 
HETATM    2  C   UNL     1       2.572   3.623   0.388  1.00  0.00     0.274 C 
HETATM    3  O   UNL     1       3.713   3.898   0.025  1.00  0.00    -0.266 OA
HETATM    4  C   UNL     1       1.611   4.711   0.690  1.00  0.00     0.128 C 
HETATM    5  C   UNL     1       1.994   6.070   0.530  1.00  0.00     0.106 C 
HETATM    6  N   UNL     1       2.242   7.199   0.436  1.00  0.00    -0.191 NA
HETATM    7  C   UNL     1       0.394   4.379   1.129  1.00  0.00     0.124 C 
HETATM    8  N   UNL     1       0.013   3.073   1.335  1.00  0.00    -0.303 N 
HETATM    9  C   UNL     1       0.894   2.003   1.166  1.00  0.00     0.332 C 
HETATM   10  O   UNL     1       0.614   0.845   1.487  1.00  0.00    -0.246 OA
ENDROOT
BRANCH   1  11
HETATM   11  C   UNL     1       3.044   1.221   0.363  1.00  0.00     0.239 C 
BRANCH  11  12
HETATM   12  C   UNL     1       2.593   0.345  -0.814  1.00  0.00     0.236 C 
HETATM   13  O   UNL     1       2.800   0.645  -1.986  1.00  0.00    -0.272 OA
HETATM   14  N   UNL     1       1.901  -0.796  -0.445  1.00  0.00    -0.359 N 
HETATM   15  H   UNL     1       1.379  -0.717   0.431  1.00  0.00     0.162 HD
BRANCH  14  16
HETATM   16  C   UNL     1       1.406  -1.753  -1.431  1.00  0.00     0.135 C 
BRANCH  16  17
HETATM   17  C   UNL     1       2.531  -2.496  -2.151  1.00  0.00     0.123 C 
BRANCH  17  18
HETATM   18  C   UNL     1       1.989  -3.538  -3.115  1.00  0.00    -0.076 C 
BRANCH  18  19
HETATM   19  N   UNL     1       1.539  -4.402  -3.916  1.00  0.00    -0.370 N 
ATOM     20  HN2 UNL     1       1.897  -3.668  -3.305  1.00  0.00     0.165 HD
ATOM     21  HN1 UNL     1       1.175  -5.101  -4.563  1.00  0.00     0.165 HD
ENDBRANCH  18  19
ENDBRANCH  17  18
ENDBRANCH  16  17
ENDBRANCH  14  16
ENDBRANCH  11  12
ENDBRANCH   1  11
BRANCH   8  22
HETATM   22  C   UNL     1      -1.333   2.822   1.797  1.00  0.00     0.094 A 
HETATM   23  C   UNL     1      -2.266   1.962   0.975  1.00  0.00     0.028 A 
HETATM   24  C   UNL     1      -2.552   3.422   1.135  1.00  0.00     0.028 A 
ENDBRANCH   8  22
TORSDOF 7
