REMARK  6 active torsions:
REMARK  status: ('A' for Active; 'I' for Inactive)
REMARK    1  A    between atoms: C_2  and  C_4 
REMARK    2  A    between atoms: C_4  and  C_5 
REMARK    3  A    between atoms: C_5  and  N_7 
REMARK    4  A    between atoms: N_7  and  C_8 
REMARK    5  A    between atoms: C_8  and  C_9 
REMARK    6  A    between atoms: C_15  and  N_16 
ROOT
HETATM    1  C   UNL     1       7.041   4.170  -0.249  1.00  0.00     0.014 A 
HETATM    2  C   UNL     1       6.339   5.294   0.224  1.00  0.00     0.014 A 
HETATM    3  C   UNL     1       6.874   6.564   0.101  1.00  0.00     0.018 A 
HETATM    4  C   UNL     1       8.124   6.676  -0.458  1.00  0.00     0.089 A 
HETATM    5  N   UNL     1       8.839   5.624  -0.913  1.00  0.00    -0.352 N 
ATOM      6  HN  UNL     1       9.765   5.765  -1.317  1.00  0.00     0.166 HD
HETATM    7  C   UNL     1       8.311   4.378  -0.826  1.00  0.00     0.111 A 
ENDROOT
BRANCH   1   8
HETATM    8  C   UNL     1       6.385   2.811  -0.138  1.00  0.00     0.312 C 
BRANCH   8   9
HETATM    9  N   UNL     1       4.952   2.744  -0.474  1.00  0.00     0.091 N 
HETATM   10  H   UNL     1       4.635   1.787  -0.330  1.00  0.00     0.316 HD
BRANCH   9  11
HETATM   11  C   UNL     1       4.635   3.149  -1.859  1.00  0.00     0.217 C 
HETATM   12  C   UNL     1       3.113   3.055  -2.008  1.00  0.00     0.042 C 
BRANCH  11  13
HETATM   13  C   UNL     1       5.358   2.292  -2.922  1.00  0.00     0.039 C 
BRANCH  13  14
HETATM   14  C   UNL     1       5.153   2.729  -4.386  1.00  0.00    -0.021 C 
HETATM   15  C   UNL     1       5.630   4.163  -4.627  1.00  0.00     0.009 C 
HETATM   16  C   UNL     1       5.917   1.770  -5.308  1.00  0.00     0.009 C 
ENDBRANCH  13  14
ENDBRANCH  11  13
ENDBRANCH   9  11
ENDBRANCH   8   9
ENDBRANCH   1   8
BRANCH   7  17
HETATM   17  N   UNL     1       8.991   3.364  -1.475  1.00  0.00    -0.363 N 
HETATM   18  C   UNL     1       9.954   3.758  -2.517  1.00  0.00     0.150 C 
HETATM   19  C   UNL     1      10.030   2.596  -3.524  1.00  0.00     0.187 C 
HETATM   20  O   UNL     1      10.402   1.354  -2.892  1.00  0.00    -0.388 OA
HETATM   21  C   UNL     1       9.501   1.033  -1.814  1.00  0.00     0.187 C 
HETATM   22  C   UNL     1       9.460   2.164  -0.765  1.00  0.00     0.150 C 
ENDBRANCH   7  17
TORSDOF 6
