REMARK  6 active torsions:
REMARK  status: ('A' for Active; 'I' for Inactive)
REMARK    1  A    between atoms: C_2  and  C_3 
REMARK    2  A    between atoms: C_2  and  N_10 
REMARK    3  A    between atoms: C_3  and  N_4 
REMARK       I    between atoms: N_10  and  C_11 
REMARK    4  A    between atoms: C_11  and  C_13 
REMARK    5  A    between atoms: C_13  and  N_14 
REMARK    6  A    between atoms: C_18  and  C_21 
ROOT
HETATM    1  N   UNL     1       3.100  -1.169   0.532  1.00  0.00    -0.354 N 
HETATM    2  C   UNL     1       2.970  -2.418  -0.043  1.00  0.00     0.236 C 
HETATM    3  O   UNL     1       2.327  -2.620  -1.071  1.00  0.00    -0.272 OA
HETATM    4  H   UNL     1       3.891  -1.011   1.149  1.00  0.00     0.162 HD
ENDROOT
BRANCH   2   5
HETATM    5  C   UNL     1       3.776  -3.523   0.635  1.00  0.00     0.234 C 
BRANCH   5   6
HETATM    6  N   UNL     1       5.132  -3.722   0.109  1.00  0.00    -0.315 N 
HETATM    7  C   UNL     1       5.402  -3.520  -1.233  1.00  0.00     0.095 A 
HETATM    8  C   UNL     1       6.618  -3.748  -1.736  1.00  0.00     0.018 A 
HETATM    9  C   UNL     1       7.651  -4.275  -0.888  1.00  0.00     0.023 A 
HETATM   10  C   UNL     1       7.424  -4.543   0.411  1.00  0.00     0.115 A 
HETATM   11  C   UNL     1       6.091  -4.237   0.992  1.00  0.00     0.263 A 
HETATM   12  O   UNL     1       5.850  -4.436   2.178  1.00  0.00    -0.267 OA
BRANCH  10  13
HETATM   13  C   UNL     1       8.446  -5.176   1.281  1.00  0.00     0.422 C 
HETATM   14  F   UNL     1       8.091  -5.425   2.563  1.00  0.00    -0.166 F 
HETATM   15  F   UNL     1       8.840  -6.373   0.760  1.00  0.00    -0.166 F 
HETATM   16  F   UNL     1       9.574  -4.413   1.339  1.00  0.00    -0.166 F 
ENDBRANCH  10  13
ENDBRANCH   5   6
ENDBRANCH   2   5
BRANCH   1  17
HETATM   17  C   UNL     1       2.525   0.020  -0.094  1.00  0.00     0.108 C 
HETATM   18  C   UNL     1       0.996  -0.022  -0.070  1.00  0.00     0.034 C 
BRANCH  17  19
HETATM   19  C   UNL     1       3.035   1.308   0.607  1.00  0.00     0.297 C 
BRANCH  19  20
HETATM   20  N   UNL     1       4.509   1.448   0.643  1.00  0.00     0.094 N 
HETATM   21  C   UNL     1       4.909   2.664   1.401  1.00  0.00     0.298 C 
HETATM   22  C   UNL     1       4.663   3.993   0.657  1.00  0.00     0.198 C 
HETATM   23  O   UNL     1       5.264   3.997  -0.643  1.00  0.00    -0.388 OA
HETATM   24  C   UNL     1       4.812   2.882  -1.420  1.00  0.00     0.198 C 
HETATM   25  C   UNL     1       5.120   1.557  -0.704  1.00  0.00     0.298 C 
ENDBRANCH  19  20
ENDBRANCH  17  19
ENDBRANCH   1  17
TORSDOF 6
