REMARK  5 active torsions:
REMARK  status: ('A' for Active; 'I' for Inactive)
REMARK    1  A    between atoms: C_2  and  N_5 
REMARK       I    between atoms: N_5  and  C_6 
REMARK    2  A    between atoms: C_6  and  C_8 
REMARK    3  A    between atoms: C_8  and  N_9 
REMARK    4  A    between atoms: C_11  and  S_16 
REMARK    5  A    between atoms: S_16  and  N_19 
ROOT
HETATM    1  N   UNL     1       6.471  -1.208   2.867  1.00  0.00    -0.314 N 
HETATM    2  C   UNL     1       7.128  -0.304   2.036  1.00  0.00     0.120 A 
HETATM    3  C   UNL     1       8.465  -0.329   1.897  1.00  0.00     0.095 A 
HETATM    4  C   UNL     1       9.239  -1.279   2.672  1.00  0.00     0.032 A 
HETATM    5  C   UNL     1       8.635  -2.163   3.477  1.00  0.00     0.076 A 
HETATM    6  C   UNL     1       7.153  -2.175   3.607  1.00  0.00     0.247 A 
HETATM    7  O   UNL     1       6.620  -2.996   4.345  1.00  0.00    -0.268 OA
ENDROOT
BRANCH   1   8
HETATM    8  C   UNL     1       5.006  -1.227   2.889  1.00  0.00     0.234 C 
BRANCH   8   9
HETATM    9  C   UNL     1       4.293  -0.320   3.900  1.00  0.00     0.236 C 
HETATM   10  N   UNL     1       5.083   0.352   4.808  1.00  0.00    -0.352 N 
HETATM   11  H   UNL     1       6.072   0.137   4.807  1.00  0.00     0.163 HD
HETATM   12  O   UNL     1       3.065  -0.230   3.874  1.00  0.00    -0.272 OA
BRANCH  10  13
HETATM   13  C   UNL     1       4.557   1.248   5.857  1.00  0.00     0.022 C 
HETATM   14  C   UNL     1       3.623   0.495   6.818  1.00  0.00     0.037 C 
HETATM   15  C   UNL     1       3.818   2.445   5.234  1.00  0.00     0.037 C 
HETATM   16  C   UNL     1       5.739   1.796   6.678  1.00  0.00     0.037 C 
ENDBRANCH  10  13
ENDBRANCH   8   9
ENDBRANCH   1   8
BRANCH   3  17
HETATM   17  S   UNL     1       9.248   0.877   0.883  1.00  0.00     0.262 S 
HETATM   18  O   UNL     1       8.237   1.745   0.312  1.00  0.00    -0.200 OA
HETATM   19  O   UNL     1      10.332   1.443   1.661  1.00  0.00    -0.200 OA
BRANCH  17  20
HETATM   20  N   UNL     1       9.969   0.085  -0.407  1.00  0.00    -0.307 N 
HETATM   21  C   UNL     1       9.230  -0.243  -1.634  1.00  0.00     0.135 C 
HETATM   22  C   UNL     1      10.028  -1.380  -2.272  1.00  0.00     0.022 C 
HETATM   23  C   UNL     1      11.416  -1.257  -1.667  1.00  0.00     0.022 C 
HETATM   24  C   UNL     1      11.136  -0.783  -0.248  1.00  0.00     0.135 C 
ENDBRANCH  17  20
ENDBRANCH   3  17
TORSDOF 5
