REMARK  5 active torsions:
REMARK  status: ('A' for Active; 'I' for Inactive)
REMARK    1  A    between atoms: O_2  and  C_3 
REMARK    2  A    between atoms: C_3  and  C_4 
REMARK    3  A    between atoms: C_4  and  O_5 
REMARK    4  A    between atoms: C_4  and  C_6 
REMARK    5  A    between atoms: C_6  and  N_7 
ROOT
HETATM    1  N   UNL     1       6.322  -2.380  -1.568  1.00  0.00    -0.332 N 
HETATM    2  C   UNL     1       7.142  -2.884  -0.581  1.00  0.00     0.080 A 
HETATM    3  C   UNL     1       6.675  -3.508   0.685  1.00  0.00     0.089 C 
HETATM    4  N   UNL     1       8.410  -2.724  -0.901  1.00  0.00    -0.344 N 
ATOM      5  HN  UNL     1       9.222  -3.000  -0.349  1.00  0.00     0.167 HD
HETATM    6  C   UNL     1       8.417  -2.110  -2.129  1.00  0.00     0.060 A 
HETATM    7  C   UNL     1       9.504  -1.689  -2.914  1.00  0.00     0.032 A 
HETATM    8  C   UNL     1       9.251  -1.056  -4.134  1.00  0.00     0.002 A 
HETATM    9  C   UNL     1       7.944  -0.860  -4.577  1.00  0.00     0.002 A 
HETATM   10  C   UNL     1       6.849  -1.290  -3.822  1.00  0.00     0.032 A 
HETATM   11  C   UNL     1       7.124  -1.905  -2.588  1.00  0.00     0.062 A 
ENDROOT
BRANCH   1  12
HETATM   12  C   UNL     1       4.881  -2.320  -1.562  1.00  0.00     0.164 C 
BRANCH  12  13
HETATM   13  C   UNL     1       4.301  -1.062  -0.905  1.00  0.00     0.160 C 
BRANCH  13  14
HETATM   14  C   UNL     1       4.761   0.233  -1.594  1.00  0.00     0.200 C 
BRANCH  14  15
HETATM   15  O   UNL     1       4.146   1.360  -0.960  1.00  0.00    -0.393 OA
HETATM   16  C   UNL     1       4.626   2.579  -1.529  1.00  0.00     0.201 C 
ENDBRANCH  14  15
ENDBRANCH  13  14
BRANCH  13  17
HETATM   17  O   UNL     1       2.869  -1.170  -0.999  1.00  0.00    -0.392 OA
HETATM   18  H   UNL     1       2.527  -0.265  -1.133  1.00  0.00     0.210 HD
ENDBRANCH  13  17
ENDBRANCH  12  13
ENDBRANCH   1  12
TORSDOF 5
