REMARK  4 active torsions:
REMARK  status: ('A' for Active; 'I' for Inactive)
REMARK    1  A    between atoms: C_2  and  C_4 
REMARK    2  A    between atoms: C_4  and  N_6 
REMARK       I    between atoms: N_6  and  C_7 
REMARK    3  A    between atoms: C_7  and  C_9 
REMARK    4  A    between atoms: C_9  and  C_11 
ROOT
HETATM    1  C   UNL     1       6.586   2.139  -1.441  1.00  0.00     0.110 C 
HETATM    2  C   UNL     1       7.076   1.856  -0.021  1.00  0.00     0.025 C 
ENDROOT
BRANCH   1   3
HETATM    3  C   UNL     1       5.056   2.153  -1.587  1.00  0.00     0.226 C 
HETATM    4  N   UNL     1       4.362   1.237  -0.826  1.00  0.00    -0.356 N 
HETATM    5  H   UNL     1       4.854   0.699  -0.127  1.00  0.00     0.162 HD
HETATM    6  O   UNL     1       4.491   2.920  -2.368  1.00  0.00    -0.273 OA
BRANCH   4   7
HETATM    7  C   UNL     1       2.903   1.152  -0.826  1.00  0.00     0.083 C 
HETATM    8  C   UNL     1       2.340   2.233   0.102  1.00  0.00     0.032 C 
BRANCH   7   9
HETATM    9  C   UNL     1       2.451  -0.274  -0.412  1.00  0.00    -0.000 C 
HETATM   10  C   UNL     1       0.929  -0.436  -0.452  1.00  0.00     0.011 C 
HETATM   11  C   UNL     1       3.084  -1.347  -1.307  1.00  0.00     0.011 C 
ENDBRANCH   7   9
ENDBRANCH   4   7
ENDBRANCH   1   3
BRANCH   1  12
HETATM   12  C   UNL     1       7.217   1.284  -2.511  1.00  0.00     0.002 A 
HETATM   13  C   UNL     1       7.607   1.723  -3.817  1.00  0.00     0.031 A 
HETATM   14  C   UNL     1       7.512   3.077  -4.424  1.00  0.00     0.070 C 
HETATM   15  N   UNL     1       8.123   0.728  -4.546  1.00  0.00    -0.304 N 
HETATM   16  N   UNL     1       8.055  -0.336  -3.743  1.00  0.00    -0.304 N 
ATOM     17  HN  UNL     1       8.486   0.772  -5.498  1.00  0.00     0.186 HD
HETATM   18  C   UNL     1       7.547  -0.066  -2.502  1.00  0.00     0.031 A 
HETATM   19  H   UNL     1       8.380  -1.225  -4.106  1.00  0.00     0.186 HD
HETATM   20  C   UNL     1       7.445  -1.131  -1.480  1.00  0.00     0.070 C 
ENDBRANCH   1  12
TORSDOF 4
