REMARK  4 active torsions:
REMARK  status: ('A' for Active; 'I' for Inactive)
REMARK       I    between atoms: C_2  and  N_3 
REMARK       I    between atoms: C_2  and  N_12 
REMARK    1  A    between atoms: N_3  and  C_4 
REMARK    2  A    between atoms: C_4  and  C_5 
REMARK    3  A    between atoms: N_12  and  C_13 
REMARK    4  A    between atoms: C_19  and  N_20 
ROOT
HETATM    1  O   UNL     1       3.001  -1.510  -0.607  1.00  0.00    -0.247 OA
HETATM    2  C   UNL     1       2.407  -0.441  -0.709  1.00  0.00     0.320 C 
HETATM    3  N   UNL     1       1.058  -0.373  -0.985  1.00  0.00    -0.342 N 
HETATM    4  N   UNL     1       2.974   0.798  -0.559  1.00  0.00    -0.306 N 
HETATM    5  H   UNL     1       0.717   0.509  -1.341  1.00  0.00     0.164 HD
HETATM    6  H   UNL     1       2.522   1.605  -0.968  1.00  0.00     0.171 HD
ENDROOT
BRANCH   4   7
HETATM    7  C   UNL     1       4.279   1.066  -0.066  1.00  0.00     0.075 A 
HETATM    8  C   UNL     1       4.899   0.220   0.852  1.00  0.00     0.034 A 
HETATM    9  C   UNL     1       6.027   0.669   1.526  1.00  0.00     0.019 A 
HETATM   10  C   UNL     1       6.501   1.938   1.240  1.00  0.00     0.089 A 
HETATM   11  N   UNL     1       5.976   2.745   0.291  1.00  0.00    -0.355 N 
HETATM   12  C   UNL     1       4.888   2.304  -0.385  1.00  0.00     0.109 A 
ATOM     13  HN  UNL     1       6.386   3.657   0.090  1.00  0.00     0.166 HD
BRANCH  12  14
HETATM   14  N   UNL     1       4.325   3.117  -1.360  1.00  0.00    -0.267 NA
HETATM   15  C   UNL     1       4.167   2.616  -2.729  1.00  0.00     0.097 C 
HETATM   16  C   UNL     1       3.534   3.825  -3.436  1.00  0.00     0.016 C 
HETATM   17  C   UNL     1       3.769   5.010  -2.487  1.00  0.00     0.016 C 
HETATM   18  C   UNL     1       4.809   4.488  -1.499  1.00  0.00     0.097 C 
ENDBRANCH  12  14
ENDBRANCH   4   7
BRANCH   3  19
HETATM   19  C   UNL     1       0.278  -1.560  -1.300  1.00  0.00     0.130 C 
BRANCH  19  20
HETATM   20  C   UNL     1      -0.263  -2.354  -0.098  1.00  0.00     0.018 C 
HETATM   21  C   UNL     1      -1.038  -1.488   0.910  1.00  0.00     0.022 C 
HETATM   22  C   UNL     1      -1.018  -2.134   2.296  1.00  0.00     0.141 C 
HETATM   23  S   UNL     1      -0.028  -3.597   2.197  1.00  0.00     0.144 S 
HETATM   24  O   UNL     1       0.939  -3.595   3.276  1.00  0.00    -0.228 OA
HETATM   25  O   UNL     1      -0.906  -4.726   1.955  1.00  0.00    -0.228 OA
HETATM   26  C   UNL     1       0.778  -3.169   0.671  1.00  0.00     0.146 C 
ENDBRANCH  19  20
ENDBRANCH   3  19
TORSDOF 4
