REMARK  5 active torsions:
REMARK  status: ('A' for Active; 'I' for Inactive)
REMARK    1  A    between atoms: C_2  and  N_3 
REMARK    2  A    between atoms: C_5  and  C_9 
REMARK       I    between atoms: C_9  and  N_11 
REMARK    3  A    between atoms: N_11  and  C_12 
REMARK    4  A    between atoms: C_12  and  C_13 
REMARK    5  A    between atoms: C_13  and  N_14 
ROOT
HETATM    1  C   UNL     1       1.938  -2.288  -4.231  1.00  0.00     0.223 C 
HETATM    2  O   UNL     1       1.245  -3.078  -3.598  1.00  0.00    -0.273 OA
HETATM    3  N   UNL     1       1.798  -2.151  -5.595  1.00  0.00    -0.359 N 
HETATM    4  H   UNL     1       2.281  -1.399  -6.074  1.00  0.00     0.162 HD
ENDROOT
BRANCH   1   5
HETATM    5  C   UNL     1       3.041  -1.455  -3.600  1.00  0.00     0.104 A 
HETATM    6  C   UNL     1       3.069  -1.645  -2.087  1.00  0.00     0.140 A 
HETATM    7  N   UNL     1       3.092  -0.322  -1.512  1.00  0.00    -0.352 N 
HETATM    8  C   UNL     1       2.954   0.672  -2.462  1.00  0.00     0.220 A 
HETATM    9  C   UNL     1       2.864   0.045  -3.825  1.00  0.00     0.118 A 
HETATM   10  O   UNL     1       2.871   1.872  -2.253  1.00  0.00    -0.273 OA
BRANCH   7  11
HETATM   11  C   UNL     1       2.726  -0.096  -0.121  1.00  0.00     0.121 C 
HETATM   12  C   UNL     1       3.535  -0.912   0.868  1.00  0.00     0.026 C 
ENDBRANCH   7  11
ENDBRANCH   1   5
BRANCH   3  13
HETATM   13  C   UNL     1       0.734  -2.876  -6.278  1.00  0.00     0.143 C 
BRANCH  13  14
HETATM   14  C   UNL     1       0.718  -2.673  -7.788  1.00  0.00     0.148 C 
BRANCH  14  15
HETATM   15  N   UNL     1      -0.357  -3.406  -8.425  1.00  0.00    -0.350 N 
HETATM   16  C   UNL     1      -1.628  -2.952  -8.645  1.00  0.00     0.108 A 
HETATM   17  C   UNL     1      -2.269  -3.990  -9.278  1.00  0.00     0.106 A 
HETATM   18  N   UNL     1      -1.423  -5.054  -9.451  1.00  0.00    -0.361 N 
HETATM   19  C   UNL     1      -0.277  -4.673  -8.926  1.00  0.00     0.182 A 
ATOM     20  HN  UNL     1      -1.635  -5.949  -9.892  1.00  0.00     0.166 HD
ENDBRANCH  14  15
ENDBRANCH  13  14
ENDBRANCH   3  13
TORSDOF 5
