REMARK  4 active torsions:
REMARK  status: ('A' for Active; 'I' for Inactive)
REMARK       I    between atoms: C_2  and  N_3 
REMARK       I    between atoms: C_2  and  N_14 
REMARK    1  A    between atoms: N_3  and  C_4 
REMARK    2  A    between atoms: C_4  and  C_5 
REMARK    3  A    between atoms: C_5  and  N_6 
REMARK    4  A    between atoms: N_14  and  C_15 
ROOT
HETATM    1  O   UNL     1       3.920   2.039  -1.646  1.00  0.00    -0.247 OA
HETATM    2  C   UNL     1       3.712   1.087  -0.898  1.00  0.00     0.321 C 
HETATM    3  N   UNL     1       2.922   0.035  -1.233  1.00  0.00    -0.341 N 
HETATM    4  N   UNL     1       4.311   1.048   0.326  1.00  0.00    -0.295 N 
HETATM    5  H   UNL     1       2.814  -0.682  -0.518  1.00  0.00     0.164 HD
HETATM    6  H   UNL     1       4.881   1.862   0.507  1.00  0.00     0.172 HD
ENDROOT
BRANCH   3   7
HETATM    7  C   UNL     1       2.277  -0.135  -2.520  1.00  0.00     0.144 C 
BRANCH   7   8
HETATM    8  C   UNL     1       3.284  -0.265  -3.665  1.00  0.00     0.145 C 
BRANCH   8   9
HETATM    9  N   UNL     1       2.687  -0.452  -4.986  1.00  0.00    -0.351 N 
HETATM   10  C   UNL     1       2.218   0.734  -5.696  1.00  0.00     0.126 C 
HETATM   11  C   UNL     1       3.074   1.051  -6.910  1.00  0.00     0.020 C 
HETATM   12  C   UNL     1       2.652   0.287  -8.164  1.00  0.00     0.002 C 
HETATM   13  C   UNL     1       2.090  -1.115  -7.935  1.00  0.00     0.009 C 
HETATM   14  C   UNL     1       2.888  -1.948  -6.951  1.00  0.00     0.103 C 
HETATM   15  C   UNL     1       2.596  -1.741  -5.473  1.00  0.00     0.219 C 
HETATM   16  O   UNL     1       2.490  -2.714  -4.724  1.00  0.00    -0.273 OA
ENDBRANCH   8   9
ENDBRANCH   7   8
ENDBRANCH   3   7
BRANCH   4  17
HETATM   17  C   UNL     1       4.277   0.036   1.293  1.00  0.00     0.108 A 
HETATM   18  C   UNL     1       5.018   0.222   2.454  1.00  0.00     0.049 A 
HETATM   19  C   UNL     1       5.028  -0.786   3.417  1.00  0.00     0.005 A 
HETATM   20  C   UNL     1       4.307  -1.951   3.190  1.00  0.00     0.017 A 
HETATM   21  C   UNL     1       3.590  -2.054   2.014  1.00  0.00     0.089 A 
HETATM   22  N   UNL     1       3.556  -1.086   1.070  1.00  0.00    -0.352 N 
ATOM     23  HN  UNL     1       3.005  -1.199   0.219  1.00  0.00     0.166 HD
ENDBRANCH   4  17
TORSDOF 4
