REMARK  4 active torsions:
REMARK  status: ('A' for Active; 'I' for Inactive)
REMARK    1  A    between atoms: C_2  and  C_3 
REMARK    2  A    between atoms: C_3  and  C_4 
REMARK       I    between atoms: N_10  and  C_11 
REMARK       I    between atoms: C_11  and  N_13 
REMARK    3  A    between atoms: N_13  and  C_14 
REMARK    4  A    between atoms: C_14  and  C_16 
ROOT
HETATM    1  C   UNL     1       8.398   1.534   3.805  1.00  0.00     0.069 A 
HETATM    2  N   UNL     1       9.669   1.311   3.539  1.00  0.00    -0.296 N 
ATOM      3  HN  UNL     1      10.402   1.271   4.247  1.00  0.00     0.187 HD
HETATM    4  N   UNL     1       9.890   1.138   2.194  1.00  0.00    -0.279 N 
ATOM      5  HN  UNL     1      10.809   0.977   1.783  1.00  0.00     0.189 HD
HETATM    6  C   UNL     1       8.777   1.205   1.502  1.00  0.00     0.169 A 
HETATM    7  N   UNL     1       8.626   1.116   0.148  1.00  0.00    -0.288 N 
HETATM    8  C   UNL     1       9.652   1.047  -0.747  1.00  0.00     0.322 C 
HETATM    9  O   UNL     1       9.405   0.916  -1.944  1.00  0.00    -0.247 OA
HETATM   10  N   UNL     1      10.917   1.134  -0.253  1.00  0.00    -0.336 N 
HETATM   11  S   UNL     1       7.369   1.464   2.420  1.00  0.00    -0.038 SA
HETATM   12  H   UNL     1       7.695   1.116  -0.241  1.00  0.00     0.172 HD
HETATM   13  H   UNL     1      11.035   1.396   0.723  1.00  0.00     0.164 HD
ENDROOT
BRANCH  10  14
HETATM   14  C   UNL     1      12.118   1.196  -1.074  1.00  0.00     0.111 C 
HETATM   15  C   UNL     1      12.375   2.646  -1.491  1.00  0.00     0.035 C 
BRANCH  14  16
HETATM   16  C   UNL     1      13.335   0.622  -0.321  1.00  0.00     0.143 C 
HETATM   17  C   UNL     1      13.186  -0.823   0.144  1.00  0.00     0.036 C 
HETATM   18  C   UNL     1      13.949  -0.882   1.454  1.00  0.00     0.029 C 
HETATM   19  C   UNL     1      14.469   0.524   1.665  1.00  0.00     0.168 C 
HETATM   20  O   UNL     1      13.630   1.371   0.873  1.00  0.00    -0.384 OA
ENDBRANCH  14  16
ENDBRANCH  10  14
BRANCH   1  21
HETATM   21  C   UNL     1       7.874   1.846   5.166  1.00  0.00     0.066 C 
BRANCH  21  22
HETATM   22  C   UNL     1       8.662   2.978   5.838  1.00  0.00     0.002 C 
HETATM   23  C   UNL     1       8.515   4.318   5.130  1.00  0.00     0.005 C 
ENDBRANCH  21  22
ENDBRANCH   1  21
TORSDOF 4
