REMARK  6 active torsions:
REMARK  status: ('A' for Active; 'I' for Inactive)
REMARK    1  A    between atoms: C_2  and  C_5 
REMARK    2  A    between atoms: C_5  and  C_6 
REMARK       I    between atoms: C_6  and  N_8 
REMARK    3  A    between atoms: C_12  and  C_13 
REMARK       I    between atoms: C_13  and  N_15 
REMARK    4  A    between atoms: N_15  and  C_16 
REMARK    5  A    between atoms: C_16  and  C_17 
REMARK    6  A    between atoms: C_17  and  C_18 
ROOT
HETATM    1  C   UNL     1       4.192   2.091   4.550  1.00  0.00     0.241 C 
HETATM    2  O   UNL     1       3.975   3.106   5.208  1.00  0.00    -0.271 OA
HETATM    3  N   UNL     1       3.606   0.878   4.845  1.00  0.00    -0.359 N 
HETATM    4  H   UNL     1       3.788   0.090   4.234  1.00  0.00     0.162 HD
ENDROOT
BRANCH   1   5
HETATM    5  C   UNL     1       5.114   2.112   3.308  1.00  0.00     0.189 C 
HETATM    6  N   UNL     1       5.337   0.802   2.676  1.00  0.00    -0.329 N 
HETATM    7  C   UNL     1       4.685   0.285   1.576  1.00  0.00     0.222 C 
HETATM    8  C   UNL     1       6.443   0.054   3.246  1.00  0.00     0.200 C 
HETATM    9  O   UNL     1       5.088  -0.753   1.053  1.00  0.00    -0.273 OA
HETATM   10  S   UNL     1       7.426   1.205   4.229  1.00  0.00    -0.147 SA
HETATM   11  C   UNL     1       6.484   2.660   3.693  1.00  0.00     0.110 C 
BRANCH   7  12
HETATM   12  C   UNL     1       3.472   1.047   1.046  1.00  0.00     0.111 C 
BRANCH  12  13
HETATM   13  C   UNL     1       2.470   0.206   0.210  1.00  0.00    -0.043 C 
HETATM   14  C   UNL     1       1.983  -1.010   1.013  1.00  0.00     0.015 C 
HETATM   15  C   UNL     1       3.069  -0.250  -1.134  1.00  0.00     0.015 C 
HETATM   16  C   UNL     1       1.245   1.093  -0.109  1.00  0.00     0.015 C 
ENDBRANCH  12  13
ENDBRANCH   7  12
ENDBRANCH   1   5
BRANCH   3  17
HETATM   17  C   UNL     1       2.750   0.720   6.008  1.00  0.00     0.127 C 
BRANCH  17  18
HETATM   18  C   UNL     1       2.330  -0.733   6.220  1.00  0.00     0.059 C 
BRANCH  18  19
HETATM   19  C   UNL     1       1.416  -0.897   7.403  1.00  0.00    -0.041 A 
HETATM   20  C   UNL     1       1.912  -1.170   8.680  1.00  0.00     0.010 A 
HETATM   21  C   UNL     1       1.031  -1.305   9.747  1.00  0.00     0.018 A 
HETATM   22  C   UNL     1      -0.324  -1.153   9.505  1.00  0.00     0.087 A 
HETATM   23  N   UNL     1      -0.842  -0.880   8.289  1.00  0.00    -0.375 N 
HETATM   24  C   UNL     1       0.037  -0.758   7.268  1.00  0.00     0.094 A 
ATOM     25  HN  UNL     1      -1.846  -0.771   8.147  1.00  0.00     0.164 HD
ENDBRANCH  18  19
ENDBRANCH  17  18
ENDBRANCH   3  17
TORSDOF 6
