REMARK  5 active torsions:
REMARK  status: ('A' for Active; 'I' for Inactive)
REMARK    1  A    between atoms: O_1  and  C_2 
REMARK    2  A    between atoms: C_2  and  C_3 
REMARK    3  A    between atoms: C_3  and  O_4 
REMARK    4  A    between atoms: O_4  and  C_5 
REMARK    5  A    between atoms: N_9  and  C_11 
ROOT
HETATM    1  C   UNL     1       4.872  -0.315   2.757  1.00  0.00     0.139 C 
HETATM    2  C   UNL     1       6.257   0.332   2.861  1.00  0.00     0.035 C 
HETATM    3  C   UNL     1       7.270  -0.392   1.971  1.00  0.00     0.022 C 
HETATM    4  C   UNL     1       7.326  -1.885   2.296  1.00  0.00     0.123 C 
HETATM    5  N   UNL     1       5.990  -2.488   2.227  1.00  0.00    -0.377 N 
HETATM    6  C   UNL     1       4.974  -1.829   3.067  1.00  0.00     0.155 C 
ENDROOT
BRANCH   5   7
HETATM    7  C   UNL     1       5.658  -3.448   1.272  1.00  0.00     0.054 A 
HETATM    8  C   UNL     1       6.309  -3.456   0.024  1.00  0.00     0.048 A 
HETATM    9  C   UNL     1       6.004  -4.416  -0.935  1.00  0.00     0.090 A 
HETATM   10  N   UNL     1       5.077  -5.374  -0.774  1.00  0.00    -0.373 N 
HETATM   11  C   UNL     1       4.453  -5.376   0.423  1.00  0.00     0.113 A 
ATOM     12  HN  UNL     1       4.860  -6.052  -1.504  1.00  0.00     0.164 HD
HETATM   13  C   UNL     1       4.708  -4.477   1.460  1.00  0.00     0.075 A 
HETATM   14 CL   UNL     1       3.909  -4.813   2.961  1.00  0.00    -0.080 Cl
ENDBRANCH   5   7
BRANCH   1  15
HETATM   15  O   UNL     1       4.357  -0.030   1.444  1.00  0.00    -0.382 OA
BRANCH  15  16
HETATM   16  C   UNL     1       3.011  -0.462   1.251  1.00  0.00     0.194 C 
BRANCH  16  17
HETATM   17  C   UNL     1       2.518  -0.014  -0.118  1.00  0.00     0.190 C 
BRANCH  17  18
HETATM   18  O   UNL     1       1.191  -0.481  -0.328  1.00  0.00    -0.399 OA
HETATM   19  H   UNL     1       0.958  -0.264  -1.246  1.00  0.00     0.209 HD
ENDBRANCH  17  18
ENDBRANCH  16  17
ENDBRANCH  15  16
ENDBRANCH   1  15
TORSDOF 5
