REMARK  5 active torsions:
REMARK  status: ('A' for Active; 'I' for Inactive)
REMARK    1  A    between atoms: C_2  and  N_3 
REMARK    2  A    between atoms: C_2  and  C_14 
REMARK    3  A    between atoms: N_3  and  C_4 
REMARK    4  A    between atoms: C_4  and  C_6 
REMARK       I    between atoms: C_6  and  N_8 
REMARK    5  A    between atoms: C_14  and  N_16 
ROOT
HETATM    1  N   UNL     1       2.714   0.102  -1.391  1.00  0.00     0.103 N 
HETATM    2  H   UNL     1       3.705   0.332  -1.494  1.00  0.00     0.317 HD
ENDROOT
BRANCH   1   3
HETATM    3  C   UNL     1       2.390  -0.184   0.022  1.00  0.00     0.241 C 
HETATM    4  C   UNL     1       3.108  -1.460   0.487  1.00  0.00     0.045 C 
BRANCH   3   5
HETATM    5  C   UNL     1       0.867  -0.132   0.392  1.00  0.00     0.136 C 
HETATM    6  C   UNL     1       0.602  -0.346   1.889  1.00  0.00     0.036 C 
BRANCH   5   7
HETATM    7  N   UNL     1       0.168   1.077  -0.064  1.00  0.00    -0.297 N 
HETATM    8  C   UNL     1       0.679   2.242  -0.572  1.00  0.00     0.112 A 
HETATM    9  C   UNL     1      -0.389   2.982  -1.008  1.00  0.00     0.037 A 
HETATM   10  C   UNL     1      -1.513   2.217  -0.671  1.00  0.00     0.108 A 
HETATM   11  N   UNL     1      -1.188   1.061  -0.091  1.00  0.00    -0.310 N 
ATOM     12  HN  UNL     1      -1.814   0.333   0.253  1.00  0.00     0.186 HD
ENDBRANCH   5   7
ENDBRANCH   3   5
ENDBRANCH   1   3
BRANCH   1  13
HETATM   13  C   UNL     1       2.344  -0.869  -2.441  1.00  0.00     0.308 C 
HETATM   14  C   UNL     1       0.844  -1.102  -2.630  1.00  0.00     0.053 C 
BRANCH  13  15
HETATM   15  C   UNL     1       2.903  -0.390  -3.811  1.00  0.00     0.253 C 
HETATM   16  O   UNL     1       3.171   0.797  -4.018  1.00  0.00    -0.271 OA
HETATM   17  N   UNL     1       3.072  -1.349  -4.804  1.00  0.00    -0.346 N 
HETATM   18  C   UNL     1       2.957  -2.804  -4.654  1.00  0.00     0.152 C 
HETATM   19  C   UNL     1       3.578  -0.949  -6.118  1.00  0.00     0.152 C 
HETATM   20  C   UNL     1       4.300  -3.466  -4.985  1.00  0.00     0.187 C 
HETATM   21  O   UNL     1       4.745  -3.097  -6.300  1.00  0.00    -0.388 OA
HETATM   22  C   UNL     1       4.898  -1.670  -6.412  1.00  0.00     0.187 C 
ENDBRANCH  13  15
ENDBRANCH   1  13
TORSDOF 5
