REMARK  4 active torsions:
REMARK  status: ('A' for Active; 'I' for Inactive)
REMARK    1  A    between atoms: C_2  and  N_3 
REMARK    2  A    between atoms: C_2  and  C_15 
REMARK       I    between atoms: N_3  and  C_4 
REMARK    3  A    between atoms: C_4  and  C_6 
REMARK    4  A    between atoms: C_6  and  C_7 
ROOT
HETATM    1  N   UNL     1       2.773  -1.503  -0.336  1.00  0.00    -0.356 N 
HETATM    2  C   UNL     1       2.143  -2.620   0.174  1.00  0.00     0.222 C 
HETATM    3  O   UNL     1       0.960  -2.636   0.505  1.00  0.00    -0.273 OA
HETATM    4  H   UNL     1       3.777  -1.504  -0.446  1.00  0.00     0.162 HD
ENDROOT
BRANCH   2   5
HETATM    5  C   UNL     1       3.025  -3.852   0.299  1.00  0.00     0.146 C 
BRANCH   5   6
HETATM    6  C   UNL     1       2.915  -4.755  -0.881  1.00  0.00     0.006 A 
HETATM    7  C   UNL     1       1.770  -5.435  -1.391  1.00  0.00     0.038 A 
HETATM    8  C   UNL     1       0.370  -5.433  -0.900  1.00  0.00     0.071 C 
HETATM    9  N   UNL     1       2.077  -6.167  -2.468  1.00  0.00    -0.265 N 
HETATM   10  O   UNL     1       3.429  -6.002  -2.667  1.00  0.00    -0.242 OA
ATOM     11  HN  UNL     1       1.439  -6.732  -3.028  1.00  0.00     0.194 HD
HETATM   12  C   UNL     1       3.931  -5.172  -1.718  1.00  0.00     0.081 A 
HETATM   13  C   UNL     1       5.384  -4.926  -1.779  1.00  0.00     0.079 C 
ENDBRANCH   5   6
ENDBRANCH   2   5
BRANCH   1  14
HETATM   14  C   UNL     1       2.082  -0.229  -0.440  1.00  0.00     0.084 C 
HETATM   15  C   UNL     1       2.553   0.537  -1.674  1.00  0.00     0.032 C 
BRANCH  14  16
HETATM   16  C   UNL     1       2.234   0.611   0.806  1.00  0.00     0.008 A 
HETATM   17  C   UNL     1       3.575   1.152   1.252  1.00  0.00     0.007 A 
HETATM   18  C   UNL     1       2.871   0.124   2.092  1.00  0.00     0.007 A 
ENDBRANCH  14  16
ENDBRANCH   1  14
TORSDOF 4
