REMARK  4 active torsions:
REMARK  status: ('A' for Active; 'I' for Inactive)
REMARK    1  A    between atoms: C_8  and  C_9 
REMARK    2  A    between atoms: C_9  and  C_10 
REMARK       I    between atoms: C_10  and  N_12 
REMARK    3  A    between atoms: N_12  and  C_13 
REMARK    4  A    between atoms: C_13  and  C_14 
ROOT
HETATM    1  C   UNL     1       1.679   3.126  -0.141  1.00  0.00     0.222 C 
HETATM    2  O   UNL     1       0.808   2.286  -0.343  1.00  0.00    -0.273 OA
HETATM    3  N   UNL     1       1.399   4.460   0.083  1.00  0.00    -0.360 N 
HETATM    4  H   UNL     1       2.161   5.107   0.256  1.00  0.00     0.162 HD
ENDROOT
BRANCH   1   5
HETATM    5  C   UNL     1       3.154   2.762  -0.091  1.00  0.00     0.146 C 
BRANCH   5   6
HETATM    6  C   UNL     1       3.892   2.917  -1.377  1.00  0.00     0.006 A 
HETATM    7  C   UNL     1       3.450   2.773  -2.727  1.00  0.00     0.038 A 
HETATM    8  C   UNL     1       2.106   2.440  -3.256  1.00  0.00     0.071 C 
HETATM    9  N   UNL     1       4.454   2.970  -3.592  1.00  0.00    -0.265 N 
HETATM   10  O   UNL     1       5.572   3.215  -2.830  1.00  0.00    -0.242 OA
ATOM     11  HN  UNL     1       4.400   2.944  -4.610  1.00  0.00     0.194 HD
HETATM   12  C   UNL     1       5.243   3.175  -1.516  1.00  0.00     0.081 A 
HETATM   13  C   UNL     1       6.357   3.383  -0.568  1.00  0.00     0.079 C 
ENDBRANCH   5   6
ENDBRANCH   1   5
BRANCH   3  14
HETATM   14  C   UNL     1       0.036   4.954   0.216  1.00  0.00     0.127 C 
BRANCH  14  15
HETATM   15  C   UNL     1      -0.517   4.744   1.635  1.00  0.00     0.003 C 
HETATM   16  C   UNL     1       0.232   5.579   2.685  1.00  0.00     0.006 C 
HETATM   17  C   UNL     1      -0.269   5.242   4.089  1.00  0.00     0.000 C 
HETATM   18  C   UNL     1      -1.779   5.422   4.226  1.00  0.00     0.000 C 
HETATM   19  C   UNL     1      -2.563   4.741   3.104  1.00  0.00     0.000 C 
HETATM   20  C   UNL     1      -2.014   5.082   1.718  1.00  0.00     0.006 C 
ENDBRANCH  14  15
ENDBRANCH   3  14
TORSDOF 4
