REMARK  4 active torsions:
REMARK  status: ('A' for Active; 'I' for Inactive)
REMARK       I    between atoms: C_2  and  N_4 
REMARK    1  A    between atoms: N_4  and  C_5 
REMARK    2  A    between atoms: N_9  and  C_10 
REMARK    3  A    between atoms: C_10  and  C_11 
REMARK       I    between atoms: C_11  and  N_13 
REMARK    4  A    between atoms: N_13  and  C_14 
ROOT
HETATM    1  C   UNL     1       4.586  -1.043  -0.646  1.00  0.00     0.069 A 
HETATM    2  C   UNL     1       5.648  -0.820  -1.550  1.00  0.00     0.138 A 
HETATM    3  N   UNL     1       6.844  -1.053  -1.001  1.00  0.00    -0.307 N 
ATOM      4  HN  UNL     1       7.764  -0.970  -1.434  1.00  0.00     0.186 HD
HETATM    5  N   UNL     1       6.546  -1.423   0.259  1.00  0.00    -0.293 N 
HETATM    6  C   UNL     1       5.200  -1.497   0.499  1.00  0.00     0.141 A 
ENDROOT
BRANCH   5   7
HETATM    7  C   UNL     1       7.625  -1.680   1.188  1.00  0.00     0.250 C 
BRANCH   7   8
HETATM    8  C   UNL     1       7.561  -0.752   2.375  1.00  0.00     0.237 C 
HETATM    9  O   UNL     1       7.038  -1.095   3.434  1.00  0.00    -0.272 OA
HETATM   10  N   UNL     1       8.142   0.490   2.179  1.00  0.00    -0.355 N 
HETATM   11  H   UNL     1       8.435   0.757   1.244  1.00  0.00     0.162 HD
BRANCH  10  12
HETATM   12  C   UNL     1       8.188   1.469   3.220  1.00  0.00     0.084 A 
HETATM   13  C   UNL     1       7.120   2.521   3.326  1.00  0.00     0.027 A 
HETATM   14  C   UNL     1       8.514   2.909   2.934  1.00  0.00     0.027 A 
ENDBRANCH  10  12
ENDBRANCH   7   8
ENDBRANCH   5   7
BRANCH   1  15
HETATM   15  N   UNL     1       3.223  -0.867  -0.792  1.00  0.00    -0.325 N 
HETATM   16  C   UNL     1       2.655  -0.238  -1.887  1.00  0.00     0.218 C 
HETATM   17  C   UNL     1       1.154  -0.196  -1.824  1.00  0.00     0.117 C 
HETATM   18  O   UNL     1       3.267   0.257  -2.828  1.00  0.00    -0.274 OA
HETATM   19  H   UNL     1       2.637  -1.137  -0.012  1.00  0.00     0.169 HD
ENDBRANCH   1  15
TORSDOF 4
