REMARK  7 active torsions:
REMARK  status: ('A' for Active; 'I' for Inactive)
REMARK    1  A    between atoms: N_1  and  C_10 
REMARK    2  A    between atoms: N_2  and  C_9 
REMARK    3  A    between atoms: C_7  and  C_14 
REMARK       I    between atoms: C_7  and  N_8 
REMARK    4  A    between atoms: N_8  and  C_13 
REMARK    5  A    between atoms: C_10  and  C_11 
REMARK       I    between atoms: C_11  and  N_16 
REMARK    6  A    between atoms: N_16  and  C_24 
REMARK    7  A    between atoms: C_21  and  O_27 
ROOT
HETATM    1  C   UNL     1      -2.672   2.251   0.078  1.00  0.00     0.240 C 
HETATM    2  N   UNL     1      -3.170   1.129  -0.582  1.00  0.00    -0.326 N 
HETATM    3  O   UNL     1      -1.482   2.414   0.350  1.00  0.00    -0.271 OA
HETATM    4  H   UNL     1      -4.179   0.993  -0.530  1.00  0.00     0.169 HD
ENDROOT
BRANCH   2   5
HETATM    5  C   UNL     1      -2.387  -0.011  -0.884  1.00  0.00     0.034 A 
HETATM    6  C   UNL     1      -2.897  -1.275  -0.577  1.00  0.00     0.030 A 
HETATM    7  C   UNL     1      -2.095  -2.426  -0.695  1.00  0.00     0.019 A 
HETATM    8  C   UNL     1      -0.789  -2.337  -1.198  1.00  0.00     0.032 A 
HETATM    9  C   UNL     1      -0.327  -1.081  -1.618  1.00  0.00     0.019 A 
HETATM   10  C   UNL     1      -1.112   0.075  -1.446  1.00  0.00     0.030 A 
BRANCH   8  11
HETATM   11  C   UNL     1       0.168  -3.506  -1.187  1.00  0.00     0.256 C 
HETATM   12  N   UNL     1      -0.403  -4.763  -1.092  1.00  0.00    -0.321 N 
HETATM   13  H   UNL     1      -1.351  -4.878  -1.428  1.00  0.00     0.169 HD
HETATM   14  O   UNL     1       1.370  -3.305  -1.300  1.00  0.00    -0.267 OA
BRANCH  12  15
HETATM   15  C   UNL     1       0.277  -5.983  -0.847  1.00  0.00     0.068 C 
HETATM   16  C   UNL     1      -0.243  -7.151  -1.430  1.00  0.00     0.095 C 
HETATM   17  C   UNL     1       0.144  -8.414  -0.978  1.00  0.00     0.039 C 
HETATM   18  C   UNL     1       1.122  -8.521   0.007  1.00  0.00     0.003 C 
HETATM   19  C   UNL     1       1.741  -7.367   0.495  1.00  0.00     0.002 C 
HETATM   20  C   UNL     1       1.329  -6.096   0.063  1.00  0.00     0.032 C 
BRANCH  16  21
HETATM   21  O   UNL     1      -1.150  -7.085  -2.464  1.00  0.00    -0.354 OA
HETATM   22  C   UNL     1      -0.526  -6.531  -3.635  1.00  0.00     0.210 C 
ENDBRANCH  16  21
ENDBRANCH  12  15
ENDBRANCH   8  11
ENDBRANCH   2   5
BRANCH   1  23
HETATM   23  C   UNL     1      -3.723   3.326   0.466  1.00  0.00     0.240 C 
BRANCH  23  24
HETATM   24  N   UNL     1      -4.715   2.909   1.469  1.00  0.00    -0.255 N 
HETATM   25  C   UNL     1      -5.685   2.007   1.073  1.00  0.00     0.334 C 
HETATM   26  N   UNL     1      -6.549   1.540   2.048  1.00  0.00    -0.279 N 
HETATM   27  O   UNL     1      -5.733   1.604  -0.096  1.00  0.00    -0.246 OA
HETATM   28  C   UNL     1      -6.604   2.105   3.302  1.00  0.00     0.146 C 
HETATM   29  C   UNL     1      -5.797   3.107   3.636  1.00  0.00     0.200 C 
HETATM   30  C   UNL     1      -4.773   3.594   2.681  1.00  0.00     0.292 C 
HETATM   31  F   UNL     1      -5.869   3.712   4.836  1.00  0.00    -0.199 F 
HETATM   32  O   UNL     1      -4.077   4.565   2.967  1.00  0.00    -0.264 OA
BRANCH  26  33
HETATM   33  C   UNL     1      -7.372   0.407   1.658  1.00  0.00     0.232 C 
HETATM   34  O   UNL     1      -8.268  -0.029   2.688  1.00  0.00    -0.366 OA
HETATM   35  C   UNL     1      -8.627  -1.384   2.362  1.00  0.00     0.170 C 
HETATM   36  C   UNL     1      -7.543  -1.946   1.459  1.00  0.00     0.031 C 
HETATM   37  C   UNL     1      -6.536  -0.833   1.370  1.00  0.00     0.056 C 
ENDBRANCH  26  33
ENDBRANCH  23  24
ENDBRANCH   1  23
TORSDOF 7
