REMARK  7 active torsions:
REMARK  status: ('A' for Active; 'I' for Inactive)
REMARK    1  A    between atoms: O_2  and  C_3 
REMARK    2  A    between atoms: C_3  and  C_4 
REMARK    3  A    between atoms: C_4  and  N_5 
REMARK    4  A    between atoms: C_7  and  C_12 
REMARK       I    between atoms: C_12  and  N_14 
REMARK    5  A    between atoms: N_14  and  C_15 
REMARK    6  A    between atoms: N_18  and  C_19 
REMARK    7  A    between atoms: C_19  and  C_20 
ROOT
HETATM    1  C   UNL     1       8.151  -2.373  -1.992  1.00  0.00     0.253 C 
HETATM    2  O   UNL     1       8.904  -1.420  -2.170  1.00  0.00    -0.268 OA
HETATM    3  N   UNL     1       8.230  -3.536  -2.722  1.00  0.00    -0.352 N 
HETATM    4  H   UNL     1       7.598  -4.297  -2.527  1.00  0.00     0.163 HD
ENDROOT
BRANCH   1   5
HETATM    5  C   UNL     1       7.109  -2.334  -0.906  1.00  0.00     0.047 A 
HETATM    6  C   UNL     1       5.955  -3.020  -0.977  1.00  0.00     0.111 A 
HETATM    7  N   UNL     1       4.989  -2.941   0.024  1.00  0.00    -0.322 N 
HETATM    8  C   UNL     1       5.121  -2.071   1.109  1.00  0.00     0.247 A 
HETATM    9  C   UNL     1       6.404  -1.327   1.191  1.00  0.00     0.075 A 
HETATM   10  O   UNL     1       4.267  -1.871   1.968  1.00  0.00    -0.268 OA
HETATM   11  C   UNL     1       7.330  -1.469   0.236  1.00  0.00     0.024 A 
BRANCH   7  12
HETATM   12  C   UNL     1       3.767  -3.751  -0.071  1.00  0.00     0.158 C 
BRANCH  12  13
HETATM   13  C   UNL     1       4.010  -5.266  -0.113  1.00  0.00     0.187 C 
BRANCH  13  14
HETATM   14  O   UNL     1       4.689  -5.703   1.065  1.00  0.00    -0.394 OA
HETATM   15  C   UNL     1       4.911  -7.107   1.057  1.00  0.00     0.201 C 
ENDBRANCH  13  14
ENDBRANCH  12  13
ENDBRANCH   7  12
ENDBRANCH   1   5
BRANCH   3  16
HETATM   16  C   UNL     1       9.160  -3.680  -3.844  1.00  0.00     0.088 C 
HETATM   17  C   UNL     1       8.575  -3.088  -5.132  1.00  0.00     0.055 C 
HETATM   18  C   UNL     1       7.495  -3.994  -5.735  1.00  0.00     0.274 C 
HETATM   19  N   UNL     1       7.928  -5.389  -5.949  1.00  0.00     0.088 N 
HETATM   20  C   UNL     1       8.428  -5.957  -4.691  1.00  0.00     0.274 C 
HETATM   21  C   UNL     1       9.554  -5.145  -4.048  1.00  0.00     0.055 C 
BRANCH  19  22
HETATM   22  C   UNL     1       8.877  -5.483  -7.075  1.00  0.00     0.276 C 
BRANCH  22  23
HETATM   23  C   UNL     1       9.337  -6.905  -7.469  1.00  0.00     0.006 C 
HETATM   24  C   UNL     1       8.171  -7.811  -7.865  1.00  0.00     0.011 C 
HETATM   25  C   UNL     1      10.343  -6.808  -8.621  1.00  0.00     0.011 C 
ENDBRANCH  22  23
ENDBRANCH  19  22
ENDBRANCH   3  16
TORSDOF 7
