REMARK  6 active torsions:
REMARK  status: ('A' for Active; 'I' for Inactive)
REMARK    1  A    between atoms: C_2  and  C_5 
REMARK    2  A    between atoms: N_11  and  C_12 
REMARK    3  A    between atoms: C_12  and  C_13 
REMARK       I    between atoms: C_13  and  N_15 
REMARK    4  A    between atoms: N_15  and  C_16 
REMARK    5  A    between atoms: C_16  and  C_17 
REMARK    6  A    between atoms: C_16  and  C_20 
ROOT
HETATM    1  C   UNL     1      -1.646   5.207   1.232  1.00  0.00     0.065 C 
HETATM    2  C   UNL     1      -1.603   5.921  -0.032  1.00  0.00     0.047 C 
HETATM    3  C   UNL     1      -0.437   6.283  -0.586  1.00  0.00     0.102 C 
HETATM    4 CL   UNL     1      -0.378   7.105  -2.095  1.00  0.00    -0.078 Cl
HETATM    5  C   UNL     1       0.857   5.949   0.100  1.00  0.00     0.269 C 
HETATM    6  O   UNL     1       1.935   6.387  -0.299  1.00  0.00    -0.266 OA
HETATM    7  N   UNL     1       0.740   5.116   1.214  1.00  0.00    -0.314 N 
HETATM    8  C   UNL     1      -0.487   4.802   1.781  1.00  0.00     0.111 C 
ENDROOT
BRANCH   7   9
HETATM    9  C   UNL     1       1.965   4.616   1.841  1.00  0.00     0.234 C 
BRANCH   9  10
HETATM   10  C   UNL     1       2.327   5.398   3.097  1.00  0.00     0.236 C 
HETATM   11  O   UNL     1       2.309   4.863   4.204  1.00  0.00    -0.272 OA
HETATM   12  N   UNL     1       2.690   6.707   2.889  1.00  0.00    -0.354 N 
HETATM   13  H   UNL     1       2.672   7.082   1.946  1.00  0.00     0.162 HD
BRANCH  12  14
HETATM   14  C   UNL     1       2.995   7.597   3.991  1.00  0.00     0.092 C 
BRANCH  14  15
HETATM   15  C   UNL     1       4.246   8.367   3.663  1.00  0.00     0.009 A 
HETATM   16  C   UNL     1       5.557   7.638   3.463  1.00  0.00     0.007 A 
HETATM   17  C   UNL     1       5.349   8.470   4.694  1.00  0.00     0.007 A 
ENDBRANCH  14  15
BRANCH  14  18
HETATM   18  C   UNL     1       1.794   8.481   4.231  1.00  0.00     0.009 A 
HETATM   19  C   UNL     1       1.772   9.575   5.275  1.00  0.00     0.007 A 
HETATM   20  C   UNL     1       1.014   8.303   5.514  1.00  0.00     0.007 A 
ENDBRANCH  14  18
ENDBRANCH  12  14
ENDBRANCH   9  10
ENDBRANCH   7   9
BRANCH   1  21
HETATM   21  C   UNL     1      -2.975   4.934   1.882  1.00  0.00     0.418 C 
HETATM   22  F   UNL     1      -4.021   5.425   1.170  1.00  0.00    -0.166 F 
HETATM   23  F   UNL     1      -3.046   5.493   3.116  1.00  0.00    -0.166 F 
HETATM   24  F   UNL     1      -3.194   3.604   2.036  1.00  0.00    -0.166 F 
ENDBRANCH   1  21
TORSDOF 6
