REMARK  7 active torsions:
REMARK  status: ('A' for Active; 'I' for Inactive)
REMARK    1  A    between atoms: C_2  and  N_3 
REMARK       I    between atoms: N_3  and  C_4 
REMARK    2  A    between atoms: C_4  and  C_6 
REMARK    3  A    between atoms: C_6  and  C_7 
REMARK    4  A    between atoms: C_7  and  N_8 
REMARK    5  A    between atoms: N_8  and  C_9 
REMARK    6  A    between atoms: C_9  and  C_11 
REMARK    7  A    between atoms: C_11  and  N_13 
ROOT
HETATM    1  N   UNL     1       6.988  -2.244  -3.781  1.00  0.00     0.090 N 
HETATM    2  H   UNL     1       6.605  -1.859  -4.658  1.00  0.00     0.316 HD
ENDROOT
BRANCH   1   3
HETATM    3  C   UNL     1       6.484  -1.477  -2.638  1.00  0.00     0.279 C 
BRANCH   3   4
HETATM    4  C   UNL     1       4.958  -1.434  -2.605  1.00  0.00     0.132 C 
BRANCH   4   5
HETATM    5  C   UNL     1       4.497  -0.713  -1.352  1.00  0.00     0.219 C 
HETATM    6  N   UNL     1       3.129  -0.653  -1.215  1.00  0.00    -0.361 N 
HETATM    7  H   UNL     1       2.543  -1.163  -1.863  1.00  0.00     0.162 HD
HETATM    8  O   UNL     1       5.271  -0.218  -0.538  1.00  0.00    -0.274 OA
BRANCH   6   9
HETATM    9  C   UNL     1       2.517  -0.024  -0.062  1.00  0.00     0.118 C 
HETATM   10  C   UNL     1       2.341  -0.999   1.088  1.00  0.00     0.026 C 
ENDBRANCH   6   9
ENDBRANCH   4   5
ENDBRANCH   3   4
ENDBRANCH   1   3
BRANCH   1  11
HETATM   11  C   UNL     1       8.464  -2.194  -3.892  1.00  0.00     0.240 C 
HETATM   12  C   UNL     1       9.116  -2.915  -2.702  1.00  0.00     0.045 C 
BRANCH  11  13
HETATM   13  C   UNL     1       8.986  -2.798  -5.235  1.00  0.00     0.136 C 
HETATM   14  C   UNL     1       8.585  -4.258  -5.466  1.00  0.00     0.036 C 
BRANCH  13  15
HETATM   15  N   UNL     1       8.627  -1.975  -6.393  1.00  0.00    -0.297 N 
HETATM   16  C   UNL     1       9.493  -1.396  -7.281  1.00  0.00     0.112 A 
HETATM   17  C   UNL     1       8.713  -0.806  -8.248  1.00  0.00     0.037 A 
HETATM   18  C   UNL     1       7.391  -1.073  -7.853  1.00  0.00     0.108 A 
HETATM   19  N   UNL     1       7.330  -1.766  -6.714  1.00  0.00    -0.310 N 
ATOM     20  HN  UNL     1       6.499  -2.068  -6.205  1.00  0.00     0.186 HD
ENDBRANCH  13  15
ENDBRANCH  11  13
ENDBRANCH   1  11
TORSDOF 7
