REMARK  5 active torsions:
REMARK  status: ('A' for Active; 'I' for Inactive)
REMARK    1  A    between atoms: O_2  and  C_3 
REMARK    2  A    between atoms: C_7  and  C_9 
REMARK    3  A    between atoms: C_9  and  O_10 
REMARK    4  A    between atoms: C_9  and  C_11 
REMARK    5  A    between atoms: C_11  and  N_12 
ROOT
HETATM    1  N   UNL     1       7.147   0.145  -0.610  1.00  0.00    -0.284 N 
HETATM    2  N   UNL     1       7.423   0.655   0.622  1.00  0.00    -0.308 N 
ATOM      3  HN  UNL     1       7.578   1.630   0.878  1.00  0.00     0.186 HD
HETATM    4  C   UNL     1       7.444  -0.420   1.420  1.00  0.00     0.122 A 
HETATM    5  C   UNL     1       7.247  -1.604   0.703  1.00  0.00     0.032 A 
HETATM    6  C   UNL     1       7.208  -2.993   1.042  1.00  0.00     0.122 A 
HETATM    7  N   UNL     1       7.032  -3.894   0.118  1.00  0.00    -0.306 N 
ATOM      8  HN  UNL     1       7.006  -4.884   0.363  1.00  0.00     0.186 HD
HETATM    9  N   UNL     1       6.879  -3.492  -1.219  1.00  0.00    -0.261 N 
HETATM   10  C   UNL     1       6.704  -4.546  -2.197  1.00  0.00     0.181 C 
HETATM   11  C   UNL     1       6.890  -2.155  -1.666  1.00  0.00     0.290 A 
HETATM   12  O   UNL     1       6.761  -1.831  -2.843  1.00  0.00    -0.264 OA
HETATM   13  C   UNL     1       7.082  -1.217  -0.602  1.00  0.00     0.133 A 
ENDROOT
BRANCH   1  14
HETATM   14  C   UNL     1       7.026   1.032  -1.756  1.00  0.00     0.186 C 
BRANCH  14  15
HETATM   15  C   UNL     1       6.406   2.407  -1.449  1.00  0.00     0.171 C 
BRANCH  15  16
HETATM   16  C   UNL     1       5.008   2.437  -0.850  1.00  0.00    -0.025 A 
HETATM   17  C   UNL     1       4.592   3.555  -0.107  1.00  0.00     0.010 A 
HETATM   18  C   UNL     1       3.308   3.624   0.435  1.00  0.00     0.003 A 
HETATM   19  C   UNL     1       2.402   2.586   0.222  1.00  0.00     0.037 A 
HETATM   20  C   UNL     1       2.779   1.485  -0.543  1.00  0.00     0.068 A 
HETATM   21  C   UNL     1       4.075   1.409  -1.065  1.00  0.00     0.046 A 
BRANCH  20  22
HETATM   22  O   UNL     1       1.978   0.409  -0.820  1.00  0.00    -0.356 OA
HETATM   23  C   UNL     1       0.584   0.689  -0.876  1.00  0.00     0.210 C 
ENDBRANCH  20  22
ENDBRANCH  15  16
BRANCH  15  24
HETATM   24  O   UNL     1       7.311   3.163  -0.628  1.00  0.00    -0.389 OA
HETATM   25  H   UNL     1       7.439   2.608   0.174  1.00  0.00     0.210 HD
ENDBRANCH  15  24
ENDBRANCH  14  15
ENDBRANCH   1  14
TORSDOF 5
