REMARK  8 active torsions:
REMARK  status: ('A' for Active; 'I' for Inactive)
REMARK    1  A    between atoms: N_4  and  C_5 
REMARK    2  A    between atoms: C_5  and  C_6 
REMARK    3  A    between atoms: C_6  and  O_7 
REMARK    4  A    between atoms: C_6  and  C_8 
REMARK    5  A    between atoms: C_8  and  N_9 
REMARK    6  A    between atoms: N_9  and  C_10 
REMARK    7  A    between atoms: C_10  and  C_11 
REMARK    8  A    between atoms: C_11  and  N_12 
ROOT
HETATM    1  C   UNL     1       2.616   3.101  -2.952  1.00  0.00     0.174 C 
ENDROOT
BRANCH   1   2
HETATM    2  C   UNL     1       3.062   1.643  -3.226  1.00  0.00     0.305 C 
BRANCH   2   3
HETATM    3  N   UNL     1       2.519   0.661  -2.272  1.00  0.00     0.096 N 
HETATM    4  C   UNL     1       3.043  -0.692  -2.562  1.00  0.00     0.303 C 
HETATM    5  C   UNL     1       2.471  -1.750  -1.594  1.00  0.00     0.146 C 
HETATM    6  C   UNL     1       2.999  -1.591  -0.169  1.00  0.00     0.041 C 
HETATM    7  O   UNL     1       1.033  -1.757  -1.628  1.00  0.00    -0.378 OA
HETATM    8  C   UNL     1       0.471  -0.461  -1.371  1.00  0.00     0.146 C 
HETATM    9  C   UNL     1       1.041   0.599  -2.334  1.00  0.00     0.303 C 
HETATM   10  C   UNL     1      -1.040  -0.562  -1.535  1.00  0.00     0.041 C 
ENDBRANCH   2   3
ENDBRANCH   1   2
BRANCH   1  11
HETATM   11  O   UNL     1       2.987   3.538  -1.636  1.00  0.00    -0.392 OA
HETATM   12  H   UNL     1       3.783   3.043  -1.380  1.00  0.00     0.210 HD
ENDBRANCH   1  11
BRANCH   1  13
HETATM   13  C   UNL     1       3.261   4.039  -3.981  1.00  0.00     0.302 C 
BRANCH  13  14
HETATM   14  N   UNL     1       2.732   5.400  -3.816  1.00  0.00     0.087 N 
HETATM   15  H   UNL     1       2.906   5.681  -2.845  1.00  0.00     0.316 HD
BRANCH  14  16
HETATM   16  C   UNL     1       3.350   6.349  -4.746  1.00  0.00     0.291 C 
BRANCH  16  17
HETATM   17  C   UNL     1       2.963   6.057  -6.196  1.00  0.00     0.178 C 
BRANCH  17  18
HETATM   18  N   UNL     1       3.528   7.015  -7.119  1.00  0.00    -0.302 N 
HETATM   19  C   UNL     1       2.922   8.137  -7.603  1.00  0.00     0.111 A 
HETATM   20  C   UNL     1       3.790   8.654  -8.535  1.00  0.00     0.037 A 
HETATM   21  C   UNL     1       4.896   7.784  -8.520  1.00  0.00     0.108 A 
HETATM   22  N   UNL     1       4.744   6.785  -7.650  1.00  0.00    -0.310 N 
ATOM     23  HN  UNL     1       5.393   6.028  -7.438  1.00  0.00     0.186 HD
ENDBRANCH  17  18
ENDBRANCH  16  17
ENDBRANCH  14  16
ENDBRANCH  13  14
ENDBRANCH   1  13
TORSDOF 8
