REMARK  5 active torsions:
REMARK  status: ('A' for Active; 'I' for Inactive)
REMARK    1  A    between atoms: C_2  and  C_3 
REMARK    2  A    between atoms: C_2  and  N_16 
REMARK    3  A    between atoms: C_3  and  N_4 
REMARK       I    between atoms: N_4  and  C_5 
REMARK    4  A    between atoms: C_5  and  C_7 
REMARK    5  A    between atoms: C_7  and  N_9 
ROOT
HETATM    1  N   UNL     1       4.078   1.023  -1.809  1.00  0.00    -0.357 N 
HETATM    2  C   UNL     1       4.373   1.866  -2.863  1.00  0.00     0.242 C 
HETATM    3  O   UNL     1       3.506   2.501  -3.461  1.00  0.00    -0.271 OA
HETATM    4  H   UNL     1       4.822   0.569  -1.296  1.00  0.00     0.162 HD
ENDROOT
BRANCH   1   5
HETATM    5  C   UNL     1       2.720   0.981  -1.297  1.00  0.00     0.158 C 
BRANCH   5   6
HETATM    6  C   UNL     1       2.427   0.046  -0.084  1.00  0.00     0.236 C 
HETATM    7  C   UNL     1       0.882  -0.044  -0.026  1.00  0.00     0.044 C 
BRANCH   6   8
HETATM    8  N   UNL     1       2.972   0.504   1.229  1.00  0.00     0.094 N 
HETATM    9  C   UNL     1       4.438   0.585   1.329  1.00  0.00     0.273 C 
HETATM   10  C   UNL     1       5.133  -0.782   1.323  1.00  0.00     0.031 C 
HETATM   11  C   UNL     1       4.566  -1.718   2.392  1.00  0.00     0.007 C 
HETATM   12  C   UNL     1       3.032  -1.729   2.386  1.00  0.00     0.010 C 
HETATM   13  C   UNL     1       2.484  -2.509   3.580  1.00  0.00     0.011 C 
HETATM   14  C   UNL     1       2.497  -0.286   2.387  1.00  0.00     0.277 C 
ENDBRANCH   6   8
ENDBRANCH   5   6
ENDBRANCH   1   5
BRANCH   2  15
HETATM   15  C   UNL     1       5.847   1.995  -3.213  1.00  0.00     0.196 C 
HETATM   16  C   UNL     1       6.030   2.197  -4.716  1.00  0.00     0.044 C 
BRANCH  15  17
HETATM   17  N   UNL     1       6.437   3.090  -2.463  1.00  0.00    -0.273 N 
HETATM   18  C   UNL     1       6.063   4.399  -2.441  1.00  0.00     0.202 A 
HETATM   19  N   UNL     1       6.903   5.084  -1.698  1.00  0.00    -0.346 N 
HETATM   20  C   UNL     1       7.786   4.132  -1.276  1.00  0.00     0.198 A 
ATOM     21  HN  UNL     1       6.897   6.082  -1.488  1.00  0.00     0.167 HD
HETATM   22  N   UNL     1       7.540   2.893  -1.708  1.00  0.00    -0.292 N 
ATOM     23  HN  UNL     1       8.048   2.029  -1.519  1.00  0.00     0.188 HD
ENDBRANCH  15  17
ENDBRANCH   2  15
TORSDOF 5
