REMARK  4 active torsions:
REMARK  status: ('A' for Active; 'I' for Inactive)
REMARK       I    between atoms: C_2  and  N_3 
REMARK    1  A    between atoms: C_2  and  C_13 
REMARK    2  A    between atoms: N_3  and  C_4 
REMARK    3  A    between atoms: C_4  and  C_5 
REMARK    4  A    between atoms: C_5  and  C_6 
ROOT
HETATM    1  O   UNL     1       2.237   0.396   1.132  1.00  0.00    -0.273 OA
HETATM    2  C   UNL     1       2.153  -0.065  -0.005  1.00  0.00     0.226 C 
HETATM    3  N   UNL     1       1.375  -1.170  -0.287  1.00  0.00    -0.360 N 
HETATM    4  H   UNL     1       1.449  -1.612  -1.192  1.00  0.00     0.162 HD
ENDROOT
BRANCH   2   5
HETATM    5  C   UNL     1       2.869   0.571  -1.209  1.00  0.00     0.042 C 
HETATM    6  C   UNL     1       3.705   1.794  -0.741  1.00  0.00     0.024 C 
HETATM    7  C   UNL     1       4.403   2.471  -1.932  1.00  0.00    -0.013 C 
HETATM    8  C   UNL     1       3.340   2.939  -2.939  1.00  0.00     0.009 C 
HETATM    9  C   UNL     1       5.337   1.459  -2.612  1.00  0.00     0.009 C 
HETATM   10  C   UNL     1       2.522   1.737  -3.436  1.00  0.00    -0.013 C 
HETATM   11  C   UNL     1       3.465   0.721  -4.105  1.00  0.00     0.009 C 
HETATM   12  C   UNL     1       1.826   1.065  -2.241  1.00  0.00     0.024 C 
HETATM   13  C   UNL     1       4.529   0.246  -3.101  1.00  0.00    -0.013 C 
HETATM   14  C   UNL     1       3.832  -0.424  -1.900  1.00  0.00     0.024 C 
ENDBRANCH   2   5
BRANCH   3  15
HETATM   15  C   UNL     1       0.660  -1.858   0.778  1.00  0.00     0.128 C 
BRANCH  15  16
HETATM   16  C   UNL     1      -0.169  -3.033   0.270  1.00  0.00     0.076 C 
BRANCH  16  17
HETATM   17  C   UNL     1      -0.918  -3.697   1.395  1.00  0.00     0.010 A 
HETATM   18  C   UNL     1      -2.202  -3.280   1.738  1.00  0.00     0.025 A 
HETATM   19  C   UNL     1      -2.849  -3.900   2.804  1.00  0.00     0.003 A 
HETATM   20  C   UNL     1      -2.200  -4.912   3.499  1.00  0.00     0.017 A 
HETATM   21  C   UNL     1      -0.924  -5.265   3.095  1.00  0.00     0.088 A 
HETATM   22  N   UNL     1      -0.273  -4.683   2.063  1.00  0.00    -0.369 N 
ATOM     23  HN  UNL     1       0.668  -4.975   1.798  1.00  0.00     0.165 HD
ENDBRANCH  16  17
ENDBRANCH  15  16
ENDBRANCH   3  15
TORSDOF 4
