REMARK  3 active torsions:
REMARK  status: ('A' for Active; 'I' for Inactive)
REMARK    1  A    between atoms: C_8  and  N_9 
REMARK       I    between atoms: N_9  and  C_10 
REMARK       I    between atoms: C_10  and  N_12 
REMARK    2  A    between atoms: N_12  and  C_13 
REMARK    3  A    between atoms: N_16  and  C_19 
ROOT
HETATM    1  N   UNL     1       2.526  -3.751   0.971  1.00  0.00    -0.308 N 
HETATM    2  C   UNL     1       1.157  -3.909   1.039  1.00  0.00     0.321 C 
HETATM    3  O   UNL     1       0.513  -4.200   2.038  1.00  0.00    -0.247 OA
HETATM    4  N   UNL     1       0.532  -3.655  -0.164  1.00  0.00    -0.338 N 
HETATM    5  H   UNL     1       2.948  -3.797   0.058  1.00  0.00     0.170 HD
HETATM    6  H   UNL     1       1.078  -3.720  -1.007  1.00  0.00     0.164 HD
ENDROOT
BRANCH   4   7
HETATM    7  C   UNL     1      -0.930  -3.740  -0.267  1.00  0.00     0.089 C 
HETATM    8  C   UNL     1      -1.402  -5.179  -0.511  1.00  0.00     0.055 C 
HETATM    9  C   UNL     1      -1.170  -5.613  -1.959  1.00  0.00     0.275 C 
HETATM   10  N   UNL     1      -1.749  -4.693  -2.957  1.00  0.00     0.093 N 
HETATM   11  C   UNL     1      -1.186  -3.348  -2.745  1.00  0.00     0.275 C 
HETATM   12  C   UNL     1      -1.455  -2.795  -1.347  1.00  0.00     0.055 C 
BRANCH  10  13
HETATM   13  C   UNL     1      -3.236  -4.727  -3.030  1.00  0.00     0.223 C 
HETATM   14  C   UNL     1      -3.789  -6.129  -3.386  1.00  0.00     0.036 C 
HETATM   15  C   UNL     1      -3.369  -6.580  -4.786  1.00  0.00     0.002 C 
HETATM   16  C   UNL     1      -3.798  -5.571  -5.851  1.00  0.00     0.000 C 
HETATM   17  C   UNL     1      -3.358  -4.149  -5.511  1.00  0.00     0.002 C 
HETATM   18  C   UNL     1      -3.803  -3.760  -4.101  1.00  0.00     0.036 C 
ENDBRANCH  10  13
ENDBRANCH   4   7
BRANCH   1  19
HETATM   19  C   UNL     1       3.392  -3.712   2.096  1.00  0.00     0.044 A 
HETATM   20  C   UNL     1       4.775  -3.906   1.948  1.00  0.00    -0.020 A 
HETATM   21  C   UNL     1       5.455  -4.188   0.643  1.00  0.00     0.052 C 
HETATM   22  C   UNL     1       5.558  -3.818   3.101  1.00  0.00     0.096 A 
HETATM   23  N   UNL     1       5.086  -3.575   4.342  1.00  0.00    -0.375 N 
HETATM   24  C   UNL     1       3.759  -3.395   4.449  1.00  0.00     0.090 A 
ATOM     25  HN  UNL     1       5.703  -3.531   5.153  1.00  0.00     0.164 HD
HETATM   26  C   UNL     1       2.892  -3.442   3.374  1.00  0.00     0.047 A 
ENDBRANCH   1  19
TORSDOF 3
