REMARK  8 active torsions:
REMARK  status: ('A' for Active; 'I' for Inactive)
REMARK    1  A    between atoms: C_2  and  C_3 
REMARK    2  A    between atoms: C_3  and  C_4 
REMARK    3  A    between atoms: C_4  and  N_5 
REMARK    4  A    between atoms: C_6  and  N_7 
REMARK    5  A    between atoms: C_8  and  N_9 
REMARK    6  A    between atoms: N_9  and  C_10 
REMARK    7  A    between atoms: C_10  and  C_11 
REMARK    8  A    between atoms: C_11  and  O_12 
ROOT
HETATM    1  N   UNL     1       4.944  -1.990  -1.884  1.00  0.00    -0.288 N 
HETATM    2  C   UNL     1       4.674  -3.300  -1.489  1.00  0.00     0.111 C 
HETATM    3  C   UNL     1       4.906  -4.333  -2.334  1.00  0.00     0.116 C 
HETATM    4  C   UNL     1       5.525  -4.032  -3.664  1.00  0.00     0.274 C 
HETATM    5  O   UNL     1       5.667  -4.911  -4.514  1.00  0.00    -0.266 OA
HETATM    6  N   UNL     1       5.914  -2.752  -3.874  1.00  0.00    -0.274 N 
HETATM    7  C   UNL     1       5.632  -1.698  -3.057  1.00  0.00     0.330 C 
HETATM    8  O   UNL     1       5.965  -0.567  -3.414  1.00  0.00    -0.246 OA
HETATM    9  H   UNL     1       6.346  -2.532  -4.757  1.00  0.00     0.173 HD
ENDROOT
BRANCH   3  10
HETATM   10  N   UNL     1       4.650  -5.683  -2.043  1.00  0.00    -0.284 NA
HETATM   11  H   UNL     1       5.404  -6.225  -2.480  1.00  0.00     0.128 HD
BRANCH  10  12
HETATM   12  C   UNL     1       3.379  -6.293  -2.483  1.00  0.00     0.118 C 
BRANCH  12  13
HETATM   13  C   UNL     1       3.576  -7.765  -2.888  1.00  0.00     0.181 C 
BRANCH  13  14
HETATM   14  O   UNL     1       4.125  -8.500  -1.792  1.00  0.00    -0.395 OA
HETATM   15  C   UNL     1       4.301  -9.874  -2.104  1.00  0.00     0.201 C 
ENDBRANCH  13  14
ENDBRANCH  12  13
ENDBRANCH  10  12
ENDBRANCH   3  10
BRANCH   2  16
HETATM   16  N   UNL     1       4.196  -3.613  -0.221  1.00  0.00    -0.287 NA
HETATM   17  H   UNL     1       3.552  -2.961   0.199  1.00  0.00     0.125 HD
HETATM   18  H   UNL     1       3.891  -4.588  -0.180  1.00  0.00     0.125 HD
ENDBRANCH   2  16
BRANCH   1  19
HETATM   19  C   UNL     1       4.533  -0.838  -1.077  1.00  0.00     0.135 C 
BRANCH  19  20
HETATM   20  C   UNL     1       3.476   0.043  -1.770  1.00  0.00     0.020 C 
BRANCH  20  21
HETATM   21  C   UNL     1       2.243  -0.728  -2.246  1.00  0.00    -0.003 C 
HETATM   22  C   UNL     1       1.285   0.178  -3.004  1.00  0.00     0.005 C 
ENDBRANCH  20  21
ENDBRANCH  19  20
ENDBRANCH   1  19
TORSDOF 8
