REMARK  7 active torsions:
REMARK  status: ('A' for Active; 'I' for Inactive)
REMARK    1  A    between atoms: C_2  and  C_3 
REMARK    2  A    between atoms: C_3  and  N_4 
REMARK    3  A    between atoms: C_5  and  N_6 
REMARK    4  A    between atoms: C_7  and  N_8 
REMARK    5  A    between atoms: N_8  and  C_10 
REMARK    6  A    between atoms: C_10  and  C_11 
REMARK    7  A    between atoms: C_11  and  O_12 
ROOT
HETATM    1  N   UNL     1       4.418   0.530  -1.514  1.00  0.00    -0.288 N 
HETATM    2  C   UNL     1       5.112  -0.678  -1.561  1.00  0.00     0.116 C 
HETATM    3  C   UNL     1       6.468  -0.712  -1.433  1.00  0.00     0.137 C 
HETATM    4  C   UNL     1       7.186   0.604  -1.307  1.00  0.00     0.279 C 
HETATM    5  O   UNL     1       8.398   0.694  -1.117  1.00  0.00    -0.265 OA
HETATM    6  N   UNL     1       6.421   1.723  -1.399  1.00  0.00    -0.273 N 
HETATM    7  C   UNL     1       5.061   1.752  -1.388  1.00  0.00     0.330 C 
HETATM    8  O   UNL     1       4.485   2.830  -1.246  1.00  0.00    -0.246 OA
HETATM    9  H   UNL     1       6.888   2.606  -1.273  1.00  0.00     0.173 HD
ENDROOT
BRANCH   3  10
HETATM   10  N   UNL     1       7.199  -1.921  -1.342  1.00  0.00    -0.376 N 
HETATM   11  C   UNL     1       7.360  -2.773  -2.528  1.00  0.00     0.150 C 
BRANCH  10  12
HETATM   12  C   UNL     1       8.271  -2.127  -0.337  1.00  0.00     0.149 C 
BRANCH  12  13
HETATM   13  C   UNL     1       7.872  -1.688   1.081  1.00  0.00     0.186 C 
BRANCH  13  14
HETATM   14  O   UNL     1       6.685  -2.373   1.499  1.00  0.00    -0.394 OA
HETATM   15  C   UNL     1       6.257  -1.935   2.780  1.00  0.00     0.201 C 
ENDBRANCH  13  14
ENDBRANCH  12  13
ENDBRANCH  10  12
ENDBRANCH   3  10
BRANCH   2  16
HETATM   16  N   UNL     1       4.438  -1.896  -1.672  1.00  0.00    -0.286 NA
HETATM   17  H   UNL     1       3.536  -1.895  -1.217  1.00  0.00     0.125 HD
HETATM   18  H   UNL     1       5.038  -2.628  -1.281  1.00  0.00     0.125 HD
ENDBRANCH   2  16
BRANCH   1  19
HETATM   19  C   UNL     1       2.953   0.556  -1.466  1.00  0.00     0.135 C 
BRANCH  19  20
HETATM   20  C   UNL     1       2.433   0.456  -0.024  1.00  0.00     0.016 C 
HETATM   21  C   UNL     1       0.915   0.481   0.033  1.00  0.00     0.006 C 
ENDBRANCH  19  20
ENDBRANCH   1  19
TORSDOF 7
