REMARK  5 active torsions:
REMARK  status: ('A' for Active; 'I' for Inactive)
REMARK    1  A    between atoms: C_2  and  C_3 
REMARK    2  A    between atoms: C_2  and  N_11 
REMARK    3  A    between atoms: C_3  and  N_4 
REMARK    4  A    between atoms: N_11  and  C_12 
REMARK    5  A    between atoms: C_12  and  C_13 
ROOT
HETATM    1  C   UNL     1       0.913   0.052   0.046  1.00  0.00     0.044 C 
HETATM    2  C   UNL     1       2.447   0.054   0.123  1.00  0.00     0.236 C 
ENDROOT
BRANCH   2   3
HETATM    3  C   UNL     1       3.004  -1.389   0.070  1.00  0.00     0.183 C 
BRANCH   3   4
HETATM    4  N   UNL     1       2.479  -2.253   1.115  1.00  0.00    -0.301 N 
HETATM    5  C   UNL     1       2.680  -2.137   2.462  1.00  0.00     0.118 A 
HETATM    6  C   UNL     1       1.909  -3.112   3.059  1.00  0.00    -0.028 A 
HETATM    7  C   UNL     1       1.731  -3.392   4.501  1.00  0.00     0.051 C 
HETATM    8  C   UNL     1       1.314  -3.790   1.972  1.00  0.00     0.115 A 
HETATM    9  N   UNL     1       1.656  -3.271   0.792  1.00  0.00    -0.310 N 
ATOM     10  HN  UNL     1       1.363  -3.573  -0.137  1.00  0.00     0.186 HD
ENDBRANCH   3   4
ENDBRANCH   2   3
BRANCH   2  11
HETATM   11  N   UNL     1       3.069   0.867  -0.949  1.00  0.00     0.091 N 
HETATM   12  H   UNL     1       2.831   0.500  -1.874  1.00  0.00     0.316 HD
BRANCH  11  13
HETATM   13  C   UNL     1       2.687   2.286  -0.903  1.00  0.00     0.301 C 
BRANCH  13  14
HETATM   14  C   UNL     1       3.320   3.127  -2.042  1.00  0.00     0.149 C 
HETATM   15  C   UNL     1       2.898   4.601  -1.955  1.00  0.00     0.034 C 
HETATM   16  C   UNL     1       1.441   4.800  -2.359  1.00  0.00     0.004 C 
HETATM   17  C   UNL     1       1.186   4.177  -3.724  1.00  0.00     0.026 C 
HETATM   18  C   UNL     1       1.685   2.739  -3.784  1.00  0.00     0.168 C 
HETATM   19  O   UNL     1       3.036   2.609  -3.351  1.00  0.00    -0.384 OA
ENDBRANCH  13  14
ENDBRANCH  11  13
ENDBRANCH   2  11
TORSDOF 5
