REMARK  6 active torsions:
REMARK  status: ('A' for Active; 'I' for Inactive)
REMARK    1  A    between atoms: C_2  and  C_3 
REMARK    2  A    between atoms: C_2  and  N_10 
REMARK    3  A    between atoms: C_3  and  N_4 
REMARK       I    between atoms: N_10  and  C_11 
REMARK    4  A    between atoms: C_11  and  C_13 
REMARK    5  A    between atoms: C_13  and  C_14 
REMARK    6  A    between atoms: C_14  and  N_15 
ROOT
HETATM    1  N   UNL     1       3.234  -1.295  -0.516  1.00  0.00    -0.355 N 
HETATM    2  C   UNL     1       4.596  -1.498  -0.532  1.00  0.00     0.219 C 
HETATM    3  O   UNL     1       5.395  -0.654  -0.139  1.00  0.00    -0.274 OA
HETATM    4  H   UNL     1       2.620  -2.066  -0.754  1.00  0.00     0.162 HD
ENDROOT
BRANCH   1   5
HETATM    5  C   UNL     1       2.637  -0.086   0.073  1.00  0.00     0.100 C 
HETATM    6  C   UNL     1       1.239   0.107  -0.514  1.00  0.00     0.034 C 
BRANCH   5   7
HETATM    7  C   UNL     1       2.631  -0.153   1.613  1.00  0.00     0.172 C 
BRANCH   7   8
HETATM    8  N   UNL     1       2.148   1.066   2.234  1.00  0.00    -0.302 N 
HETATM    9  C   UNL     1       2.891   2.147   2.612  1.00  0.00     0.111 A 
HETATM   10  C   UNL     1       1.997   3.071   3.105  1.00  0.00     0.037 A 
HETATM   11  C   UNL     1       0.744   2.443   3.000  1.00  0.00     0.108 A 
HETATM   12  N   UNL     1       0.831   1.214   2.486  1.00  0.00    -0.310 N 
ATOM     13  HN  UNL     1       0.079   0.545   2.322  1.00  0.00     0.186 HD
ENDBRANCH   7   8
ENDBRANCH   5   7
ENDBRANCH   1   5
BRANCH   2  14
HETATM   14  C   UNL     1       5.018  -2.830  -1.120  1.00  0.00     0.122 C 
BRANCH  14  15
HETATM   15  C   UNL     1       6.435  -3.175  -0.660  1.00  0.00     0.136 C 
BRANCH  15  16
HETATM   16  N   UNL     1       6.903  -4.472  -1.140  1.00  0.00    -0.342 N 
HETATM   17  C   UNL     1       7.494  -4.608  -2.455  1.00  0.00     0.137 C 
HETATM   18  C   UNL     1       8.084  -6.001  -2.584  1.00  0.00     0.104 C 
HETATM   19  S   UNL     1       7.133  -7.016  -1.429  1.00  0.00    -0.068 SA
HETATM   20  C   UNL     1       6.531  -5.643  -0.522  1.00  0.00     0.281 C 
HETATM   21  O   UNL     1       5.861  -5.752   0.492  1.00  0.00    -0.260 OA
ENDBRANCH  15  16
ENDBRANCH  14  15
ENDBRANCH   2  14
TORSDOF 6
