REMARK  2 active torsions:
REMARK  status: ('A' for Active; 'I' for Inactive)
REMARK    1  A    between atoms: C_6  and  N_7 
REMARK       I    between atoms: N_7  and  C_8 
REMARK       I    between atoms: C_8  and  N_10 
REMARK    2  A    between atoms: N_10  and  C_11 
ROOT
HETATM    1  N   UNL     1       5.989  -3.238  -2.009  1.00  0.00    -0.304 N 
HETATM    2  C   UNL     1       5.156  -4.322  -1.866  1.00  0.00     0.321 C 
HETATM    3  O   UNL     1       4.359  -4.691  -2.720  1.00  0.00    -0.247 OA
HETATM    4  N   UNL     1       5.270  -4.957  -0.637  1.00  0.00    -0.338 N 
HETATM    5  H   UNL     1       6.888  -3.273  -1.543  1.00  0.00     0.171 HD
HETATM    6  H   UNL     1       5.574  -4.354   0.116  1.00  0.00     0.164 HD
ENDROOT
BRANCH   1   7
HETATM    7  C   UNL     1       5.888  -2.301  -3.032  1.00  0.00     0.105 A 
HETATM    8  C   UNL     1       4.772  -2.049  -3.732  1.00  0.00     0.037 A 
HETATM    9  C   UNL     1       4.731  -1.048  -4.766  1.00  0.00     0.020 A 
HETATM   10  C   UNL     1       5.805  -0.296  -5.017  1.00  0.00     0.094 A 
HETATM   11  N   UNL     1       6.980  -0.479  -4.311  1.00  0.00    -0.327 N 
HETATM   12  C   UNL     1       8.125   0.361  -4.608  1.00  0.00     0.159 C 
HETATM   13  C   UNL     1       7.128  -1.486  -3.350  1.00  0.00     0.274 A 
HETATM   14  O   UNL     1       8.182  -1.733  -2.762  1.00  0.00    -0.266 OA
ENDBRANCH   1   7
BRANCH   4  15
HETATM   15  C   UNL     1       4.253  -5.972  -0.336  1.00  0.00     0.086 C 
HETATM   16  C   UNL     1       3.972  -6.121   1.166  1.00  0.00     0.026 C 
HETATM   17  C   UNL     1       4.661  -7.297   1.848  1.00  0.00     0.011 C 
HETATM   18  C   UNL     1       4.479  -8.622   1.083  1.00  0.00    -0.048 C 
HETATM   19  C   UNL     1       5.203  -9.750   1.840  1.00  0.00     0.015 C 
HETATM   20  C   UNL     1       2.992  -9.018   0.967  1.00  0.00     0.015 C 
HETATM   21  C   UNL     1       5.116  -8.441  -0.303  1.00  0.00     0.011 C 
HETATM   22  C   UNL     1       4.522  -7.284  -1.107  1.00  0.00     0.026 C 
ENDBRANCH   4  15
TORSDOF 2
