REMARK  4 active torsions:
REMARK  status: ('A' for Active; 'I' for Inactive)
REMARK    1  A    between atoms: N_5  and  C_12 
REMARK    2  A    between atoms: C_12  and  C_14 
REMARK    3  A    between atoms: C_14  and  C_15 
REMARK    4  A    between atoms: C_14  and  O_17 
ROOT
HETATM    1  C   UNL     1       0.372  -0.649  -0.262  1.00  0.00     0.146 A 
HETATM    2  C   UNL     1       0.360   0.594   0.314  1.00  0.00     0.141 A 
HETATM    3  N   UNL     1      -0.655   1.224   0.934  1.00  0.00    -0.336 N 
ATOM      4  HN  UNL     1      -0.566   2.129   1.396  1.00  0.00     0.168 HD
HETATM    5  N   UNL     1      -1.968  -0.670   0.220  1.00  0.00    -0.306 N 
HETATM    6  C   UNL     1      -0.876  -1.393  -0.313  1.00  0.00     0.279 C 
HETATM    7  N   UNL     1       1.631  -0.971  -0.716  1.00  0.00    -0.345 N 
ATOM      8  HN  UNL     1       1.934  -1.842  -1.152  1.00  0.00     0.167 HD
HETATM    9  N   UNL     1       1.611   1.099   0.111  1.00  0.00    -0.332 N 
HETATM   10  C   UNL     1      -1.762   0.544   0.875  1.00  0.00     0.187 C 
HETATM   11  C   UNL     1       2.358   0.100  -0.460  1.00  0.00     0.184 A 
HETATM   12  O   UNL     1      -0.971  -2.532  -0.762  1.00  0.00    -0.265 OA
HETATM   13  C   UNL     1       2.043   2.450   0.348  1.00  0.00     0.158 C 
ENDROOT
BRANCH   5  14
HETATM   14  C   UNL     1      -3.292  -1.317   0.183  1.00  0.00     0.165 C 
BRANCH  14  15
HETATM   15  C   UNL     1      -4.500  -0.370  -0.009  1.00  0.00     0.140 C 
BRANCH  15  16
HETATM   16  C   UNL     1      -5.806  -1.136  -0.193  1.00  0.00     0.016 C 
HETATM   17  C   UNL     1      -6.057  -2.050  -1.423  1.00  0.00     0.007 C 
HETATM   18  C   UNL     1      -7.517  -1.539  -1.401  1.00  0.00     0.001 C 
HETATM   19  C   UNL     1      -6.974  -0.260  -0.737  1.00  0.00     0.007 C 
ENDBRANCH  15  16
BRANCH  15  20
HETATM   20  O   UNL     1      -4.696   0.457   1.140  1.00  0.00    -0.394 OA
HETATM   21  H   UNL     1      -4.880  -0.116   1.906  1.00  0.00     0.210 HD
ENDBRANCH  15  20
ENDBRANCH  14  15
ENDBRANCH   5  14
TORSDOF 4
