REMARK  5 active torsions:
REMARK  status: ('A' for Active; 'I' for Inactive)
REMARK    1  A    between atoms: C_4  and  C_8 
REMARK    2  A    between atoms: C_8  and  O_10 
REMARK    3  A    between atoms: C_8  and  C_11 
REMARK    4  A    between atoms: C_11  and  N_12 
REMARK    5  A    between atoms: N_12  and  C_13 
ROOT
HETATM    1  C   UNL     1       5.704   1.402  -0.013  1.00  0.00     0.110 C 
HETATM    2  C   UNL     1       6.607   1.061   1.185  1.00  0.00     0.053 C 
ENDROOT
BRANCH   1   3
HETATM    3  C   UNL     1       4.431   0.594   0.042  1.00  0.00     0.011 A 
HETATM    4  C   UNL     1       3.946  -0.342  -0.857  1.00  0.00     0.121 A 
HETATM    5  N   UNL     1       2.773  -0.811  -0.338  1.00  0.00    -0.307 N 
HETATM    6  C   UNL     1       1.913  -1.825  -0.897  1.00  0.00     0.177 C 
HETATM    7  N   UNL     1       2.446  -0.243   0.836  1.00  0.00    -0.310 N 
HETATM    8  C   UNL     1       3.448   0.609   1.063  1.00  0.00     0.119 A 
ATOM      9  HN  UNL     1       1.626  -0.421   1.416  1.00  0.00     0.186 HD
ENDBRANCH   1   3
BRANCH   1  10
HETATM   10  O   UNL     1       6.452   1.085  -1.206  1.00  0.00    -0.383 OA
HETATM   11  H   UNL     1       6.659   0.137  -1.153  1.00  0.00     0.211 HD
ENDBRANCH   1  10
BRANCH   1  12
HETATM   12  C   UNL     1       5.398   2.936  -0.063  1.00  0.00     0.312 C 
BRANCH  12  13
HETATM   13  N   UNL     1       6.633   3.753  -0.088  1.00  0.00     0.092 N 
HETATM   14  H   UNL     1       7.207   3.364  -0.845  1.00  0.00     0.316 HD
BRANCH  13  15
HETATM   15  C   UNL     1       6.386   5.183  -0.352  1.00  0.00     0.229 C 
HETATM   16  C   UNL     1       5.699   5.869   0.842  1.00  0.00     0.037 C 
HETATM   17  C   UNL     1       5.343   7.327   0.550  1.00  0.00     0.012 C 
HETATM   18  C   UNL     1       6.544   8.208   0.232  1.00  0.00     0.074 C 
HETATM   19  S   UNL     1       7.504   7.599  -1.183  1.00  0.00    -0.167 SA
HETATM   20  C   UNL     1       7.733   5.875  -0.643  1.00  0.00     0.109 C 
ENDBRANCH  13  15
ENDBRANCH  12  13
ENDBRANCH   1  12
TORSDOF 5
