REMARK  5 active torsions:
REMARK  status: ('A' for Active; 'I' for Inactive)
REMARK    1  A    between atoms: C_2  and  N_3 
REMARK    2  A    between atoms: C_2  and  C_17 
REMARK       I    between atoms: N_3  and  C_4 
REMARK       I    between atoms: C_4  and  N_6 
REMARK    3  A    between atoms: N_6  and  C_7 
REMARK    4  A    between atoms: N_11  and  C_12 
REMARK    5  A    between atoms: C_12  and  C_13 
REMARK       I    between atoms: C_13  and  N_15 
ROOT
HETATM    1  N   UNL     1       2.789   1.459  -0.012  1.00  0.00    -0.336 N 
HETATM    2  C   UNL     1       2.657   2.270  -1.120  1.00  0.00     0.321 C 
HETATM    3  O   UNL     1       2.135   1.882  -2.159  1.00  0.00    -0.247 OA
HETATM    4  N   UNL     1       3.125   3.544  -0.878  1.00  0.00    -0.306 N 
HETATM    5  H   UNL     1       3.544   1.670   0.625  1.00  0.00     0.164 HD
HETATM    6  H   UNL     1       3.515   3.750   0.028  1.00  0.00     0.171 HD
ENDROOT
BRANCH   4   7
HETATM    7  C   UNL     1       3.019   4.597  -1.771  1.00  0.00     0.070 A 
HETATM    8  C   UNL     1       2.468   4.666  -3.067  1.00  0.00     0.138 A 
HETATM    9  N   UNL     1       2.547   5.895  -3.593  1.00  0.00    -0.307 N 
HETATM   10  N   UNL     1       3.159   6.619  -2.630  1.00  0.00    -0.293 N 
ATOM     11  HN  UNL     1       2.221   6.211  -4.507  1.00  0.00     0.186 HD
HETATM   12  C   UNL     1       3.469   5.874  -1.523  1.00  0.00     0.141 A 
BRANCH  10  13
HETATM   13  C   UNL     1       3.477   8.007  -2.921  1.00  0.00     0.250 C 
BRANCH  13  14
HETATM   14  C   UNL     1       3.424   8.922  -1.721  1.00  0.00     0.235 C 
HETATM   15  O   UNL     1       4.164   8.821  -0.748  1.00  0.00    -0.272 OA
HETATM   16  N   UNL     1       2.519   9.944  -1.778  1.00  0.00    -0.369 N 
HETATM   17  H   UNL     1       1.807  10.022  -2.494  1.00  0.00     0.159 HD
HETATM   18  H   UNL     1       2.456  10.561  -0.976  1.00  0.00     0.159 HD
ENDBRANCH  13  14
ENDBRANCH  10  13
ENDBRANCH   4   7
BRANCH   1  19
HETATM   19  C   UNL     1       2.340   0.061  -0.029  1.00  0.00     0.111 C 
HETATM   20  C   UNL     1       2.002  -0.356   1.404  1.00  0.00     0.035 C 
BRANCH  19  21
HETATM   21  C   UNL     1       3.384  -0.870  -0.690  1.00  0.00     0.143 C 
HETATM   22  C   UNL     1       2.884  -2.292  -0.944  1.00  0.00     0.036 C 
HETATM   23  C   UNL     1       4.011  -3.197  -0.496  1.00  0.00     0.029 C 
HETATM   24  C   UNL     1       5.152  -2.261  -0.172  1.00  0.00     0.168 C 
HETATM   25  O   UNL     1       4.553  -1.001   0.144  1.00  0.00    -0.384 OA
ENDBRANCH  19  21
ENDBRANCH   1  19
TORSDOF 5
