REMARK  8 active torsions:
REMARK  status: ('A' for Active; 'I' for Inactive)
REMARK    1  A    between atoms: N_2  and  C_13 
REMARK    2  A    between atoms: C_6  and  N_8 
REMARK    3  A    between atoms: C_13  and  C_15 
REMARK    4  A    between atoms: N_14  and  C_20 
REMARK    5  A    between atoms: C_15  and  C_26 
REMARK    6  A    between atoms: C_17  and  C_20 
REMARK       I    between atoms: C_17  and  N_25 
REMARK    7  A    between atoms: N_25  and  C_32 
REMARK    8  A    between atoms: C_26  and  O_27 
ROOT
HETATM    1  C   UNL     1       0.413  -0.710   0.012  1.00  0.00     0.122 A 
HETATM    2  N   UNL     1       1.514   1.202   0.062  1.00  0.00    -0.326 N 
HETATM    3  C   UNL     1       0.245   0.666   0.047  1.00  0.00     0.140 A 
HETATM    4  N   UNL     1       1.767  -1.015   0.055  1.00  0.00    -0.346 N 
ATOM      5  HN  UNL     1       2.192  -1.942   0.046  1.00  0.00     0.167 HD
HETATM    6  C   UNL     1      -0.756  -1.522  -0.047  1.00  0.00     0.135 A 
HETATM    7  C   UNL     1       2.384   0.144   0.109  1.00  0.00     0.185 A 
HETATM    8  N   UNL     1      -0.917   1.345   0.020  1.00  0.00    -0.336 N 
ATOM      9  HN  UNL     1      -0.995   2.362   0.031  1.00  0.00     0.168 HD
HETATM   10  N   UNL     1      -1.948  -0.853  -0.049  1.00  0.00    -0.337 N 
ATOM     11  HN  UNL     1      -2.825  -1.373  -0.070  1.00  0.00     0.168 HD
HETATM   12  C   UNL     1      -1.964   0.497  -0.023  1.00  0.00     0.183 A 
ENDROOT
BRANCH   6  13
HETATM   13  N   UNL     1      -0.752  -2.925  -0.033  1.00  0.00    -0.362 N 
HETATM   14  C   UNL     1      -2.071  -3.570   0.075  1.00  0.00     0.154 C 
HETATM   15  C   UNL     1      -1.895  -5.083   0.370  1.00  0.00     0.293 C 
HETATM   16  N   UNL     1      -1.026  -5.835  -0.578  1.00  0.00     0.100 N 
HETATM   17  C   UNL     1       0.257  -5.093  -0.700  1.00  0.00     0.293 C 
HETATM   18  C   UNL     1       0.147  -3.572  -1.002  1.00  0.00     0.154 C 
BRANCH  16  19
HETATM   19  C   UNL     1      -1.656  -5.986  -1.907  1.00  0.00     0.374 C 
BRANCH  19  20
HETATM   20  C   UNL     1      -2.941  -6.815  -1.836  1.00  0.00     0.246 C 
HETATM   21  O   UNL     1      -4.017  -6.376  -2.224  1.00  0.00    -0.272 OA
HETATM   22  N   UNL     1      -2.770  -8.089  -1.335  1.00  0.00    -0.360 N 
HETATM   23  H   UNL     1      -1.898  -8.264  -0.845  1.00  0.00     0.162 HD
BRANCH  22  24
HETATM   24  C   UNL     1      -3.885  -8.991  -1.155  1.00  0.00     0.118 C 
HETATM   25  C   UNL     1      -4.553  -8.801   0.195  1.00  0.00     0.026 C 
ENDBRANCH  22  24
ENDBRANCH  19  20
ENDBRANCH  16  19
ENDBRANCH   6  13
BRANCH   2  26
HETATM   26  C   UNL     1       1.875   2.620   0.024  1.00  0.00     0.143 C 
BRANCH  26  27
HETATM   27  C   UNL     1       2.068   3.212  -1.418  1.00  0.00     0.001 C 
HETATM   28  C   UNL     1       3.321   2.596  -2.086  1.00  0.00     0.039 C 
HETATM   29  C   UNL     1       4.608   3.179  -1.506  1.00  0.00     0.168 C 
HETATM   30  O   UNL     1       4.658   4.573  -1.784  1.00  0.00    -0.391 OA
HETATM   31  C   UNL     1       3.641   5.293  -1.103  1.00  0.00     0.168 C 
HETATM   32  C   UNL     1       2.247   4.764  -1.425  1.00  0.00     0.039 C 
BRANCH  27  33
HETATM   33  C   UNL     1       0.792   2.937  -2.254  1.00  0.00     0.175 C 
BRANCH  33  34
HETATM   34  O   UNL     1      -0.340   3.547  -1.638  1.00  0.00    -0.400 OA
HETATM   35  H   UNL     1      -0.689   2.920  -0.970  1.00  0.00     0.209 HD
ENDBRANCH  33  34
ENDBRANCH  27  33
ENDBRANCH  26  27
ENDBRANCH   2  26
TORSDOF 8
