REMARK  6 active torsions:
REMARK  status: ('A' for Active; 'I' for Inactive)
REMARK    1  A    between atoms: C_2  and  N_4 
REMARK    2  A    between atoms: C_7  and  N_10 
REMARK    3  A    between atoms: N_10  and  C_11 
REMARK    4  A    between atoms: C_11  and  C_12 
REMARK    5  A    between atoms: C_12  and  C_13 
REMARK    6  A    between atoms: C_16  and  C_20 
ROOT
HETATM    1  C   UNL     1       2.888   5.777  -0.556  1.00  0.00     0.278 C 
ENDROOT
BRANCH   1   2
HETATM    2  N   UNL     1       2.303   4.656  -1.307  1.00  0.00     0.088 N 
HETATM    3  H   UNL     1       1.613   5.019  -1.968  1.00  0.00     0.316 HD
BRANCH   2   4
HETATM    4  C   UNL     1       1.650   3.653  -0.438  1.00  0.00     0.223 C 
HETATM    5  C   UNL     1       2.617   2.994   0.555  1.00  0.00     0.066 C 
HETATM    6  C   UNL     1       3.637   2.124  -0.181  1.00  0.00     0.275 C 
HETATM    7  N   UNL     1       3.005   1.008  -0.914  1.00  0.00     0.092 N 
HETATM    8  C   UNL     1       2.051   1.573  -1.888  1.00  0.00     0.275 C 
HETATM    9  C   UNL     1       1.013   2.539  -1.295  1.00  0.00     0.066 C 
BRANCH   7  10
HETATM   10  C   UNL     1       2.483  -0.057  -0.029  1.00  0.00     0.215 C 
HETATM   11  C   UNL     1       1.789  -1.199  -0.790  1.00  0.00     0.042 C 
HETATM   12  C   UNL     1       3.622  -0.692   0.794  1.00  0.00     0.042 C 
ENDBRANCH   7  10
ENDBRANCH   2   4
ENDBRANCH   1   2
BRANCH   1  13
HETATM   13  C   UNL     1       3.560   6.788  -1.489  1.00  0.00     0.117 C 
BRANCH  13  14
HETATM   14  C   UNL     1       4.126   7.908  -0.705  1.00  0.00     0.149 A 
HETATM   15  N   UNL     1       3.551   9.016  -0.298  1.00  0.00    -0.327 N 
HETATM   16  C   UNL     1       4.569   9.636   0.381  1.00  0.00     0.107 A 
ATOM     17  HN  UNL     1       2.594   9.334  -0.448  1.00  0.00     0.169 HD
HETATM   18  N   UNL     1       5.722   8.954   0.419  1.00  0.00    -0.247 N 
HETATM   19  O   UNL     1       5.429   7.796  -0.307  1.00  0.00    -0.223 OA
ATOM     20  HN  UNL     1       6.599   9.216   0.868  1.00  0.00     0.196 HD
BRANCH  16  21
HETATM   21  C   UNL     1       4.405  10.982   1.005  1.00  0.00     0.047 C 
HETATM   22  C   UNL     1       3.972  12.015  -0.037  1.00  0.00     0.017 C 
HETATM   23  C   UNL     1       3.405  10.940   2.162  1.00  0.00     0.017 C 
ENDBRANCH  16  21
ENDBRANCH  13  14
ENDBRANCH   1  13
TORSDOF 6
