REMARK  6 active torsions:
REMARK  status: ('A' for Active; 'I' for Inactive)
REMARK    1  A    between atoms: C_2  and  C_3 
REMARK    2  A    between atoms: N_9  and  C_10 
REMARK    3  A    between atoms: C_10  and  C_11 
REMARK    4  A    between atoms: C_11  and  N_12 
REMARK    5  A    between atoms: N_12  and  C_13 
REMARK    6  A    between atoms: C_13  and  C_14 
ROOT
HETATM    1  C   UNL     1       3.465  -3.877   2.252  1.00  0.00     0.289 C 
ENDROOT
BRANCH   1   2
HETATM    2  C   UNL     1       4.966  -3.949   2.552  1.00  0.00     0.161 C 
BRANCH   2   3
HETATM    3  N   UNL     1       5.472  -2.745   3.160  1.00  0.00    -0.329 N 
HETATM    4  C   UNL     1       5.537  -2.444   4.498  1.00  0.00     0.098 A 
HETATM    5  N   UNL     1       6.111  -1.265   4.627  1.00  0.00    -0.288 N 
HETATM    6  N   UNL     1       6.431  -0.801   3.372  1.00  0.00    -0.295 N 
ATOM      7  HN  UNL     1       6.288  -0.780   5.506  1.00  0.00     0.188 HD
HETATM    8  C   UNL     1       6.045  -1.703   2.503  1.00  0.00     0.201 A 
ATOM      9  HN  UNL     1       6.887   0.086   3.157  1.00  0.00     0.187 HD
BRANCH   4  10
HETATM   10  C   UNL     1       5.031  -3.302   5.605  1.00  0.00     0.073 C 
HETATM   11  C   UNL     1       6.088  -4.280   6.091  1.00  0.00     0.013 C 
ENDBRANCH   4  10
ENDBRANCH   2   3
ENDBRANCH   1   2
BRANCH   1  12
HETATM   12  N   UNL     1       2.911  -5.123   1.714  1.00  0.00     0.085 N 
HETATM   13  H   UNL     1       3.358  -5.370   0.832  1.00  0.00     0.315 HD
BRANCH  12  14
HETATM   14  C   UNL     1       3.008  -6.236   2.660  1.00  0.00     0.274 C 
BRANCH  14  15
HETATM   15  C   UNL     1       2.392  -7.524   2.086  1.00  0.00     0.014 C 
HETATM   16  C   UNL     1       0.894  -7.376   1.772  1.00  0.00     0.007 C 
HETATM   17  C   UNL     1       0.039  -7.303   3.034  1.00  0.00     0.005 C 
HETATM   18  C   UNL     1       0.269  -8.499   3.969  1.00  0.00    -0.019 C 
HETATM   19  C   UNL     1      -0.312  -9.787   3.379  1.00  0.00     0.010 C 
HETATM   20  C   UNL     1       1.760  -8.655   4.297  1.00  0.00     0.005 C 
HETATM   21  C   UNL     1       2.641  -8.701   3.047  1.00  0.00     0.007 C 
ENDBRANCH  14  15
ENDBRANCH  12  14
ENDBRANCH   1  12
TORSDOF 6
