REMARK  4 active torsions:
REMARK  status: ('A' for Active; 'I' for Inactive)
REMARK       I    between atoms: N_5  and  C_13 
REMARK    1  A    between atoms: C_8  and  C_9 
REMARK       I    between atoms: C_13  and  N_15 
REMARK    2  A    between atoms: N_15  and  C_16 
REMARK    3  A    between atoms: C_16  and  C_17 
REMARK    4  A    between atoms: C_17  and  C_18 
ROOT
HETATM    1  C   UNL     1       0.821   0.158   0.162  1.00  0.00     0.017 C 
HETATM    2  C   UNL     1       2.359   0.056   0.098  1.00  0.00    -0.019 C 
HETATM    3  C   UNL     1       2.942   0.457   1.470  1.00  0.00     0.017 C 
HETATM    4  C   UNL     1       2.891   1.081  -0.944  1.00  0.00     0.137 C 
HETATM    5  N   UNL     1       2.503   0.708  -2.303  1.00  0.00    -0.334 N 
HETATM    6  C   UNL     1       2.993  -0.595  -2.734  1.00  0.00     0.128 C 
HETATM    7  C   UNL     1       2.525  -1.693  -1.787  1.00  0.00     0.034 C 
HETATM    8  C   UNL     1       2.853  -1.373  -0.312  1.00  0.00     0.104 C 
HETATM    9  C   UNL     1       1.815   1.483  -3.221  1.00  0.00     0.318 C 
HETATM   10  O   UNL     1       1.563   1.097  -4.361  1.00  0.00    -0.247 OA
HETATM   11  N   UNL     1       1.422   2.726  -2.791  1.00  0.00    -0.343 N 
HETATM   12  H   UNL     1       1.238   2.815  -1.806  1.00  0.00     0.164 HD
ENDROOT
BRANCH  11  13
HETATM   13  C   UNL     1       0.572   3.525  -3.660  1.00  0.00     0.129 C 
BRANCH  13  14
HETATM   14  C   UNL     1       0.205   4.885  -3.064  1.00  0.00     0.060 C 
BRANCH  14  15
HETATM   15  C   UNL     1      -0.631   4.806  -1.810  1.00  0.00    -0.041 A 
HETATM   16  C   UNL     1      -1.893   4.203  -1.796  1.00  0.00     0.010 A 
HETATM   17  C   UNL     1      -2.637   4.183  -0.619  1.00  0.00     0.018 A 
HETATM   18  C   UNL     1      -2.088   4.772   0.510  1.00  0.00     0.087 A 
HETATM   19  N   UNL     1      -0.877   5.361   0.539  1.00  0.00    -0.375 N 
HETATM   20  C   UNL     1      -0.182   5.374  -0.621  1.00  0.00     0.094 A 
ATOM     21  HN  UNL     1      -0.503   5.776   1.392  1.00  0.00     0.164 HD
ENDBRANCH  14  15
ENDBRANCH  13  14
ENDBRANCH  11  13
BRANCH   8  22
HETATM   22  C   UNL     1       2.417  -2.542   0.582  1.00  0.00     0.392 C 
HETATM   23  F   UNL     1       1.795  -2.159   1.712  1.00  0.00    -0.171 F 
HETATM   24  F   UNL     1       1.591  -3.399  -0.057  1.00  0.00    -0.171 F 
HETATM   25  F   UNL     1       3.508  -3.255   0.958  1.00  0.00    -0.171 F 
ENDBRANCH   8  22
TORSDOF 4
