REMARK  7 active torsions:
REMARK  status: ('A' for Active; 'I' for Inactive)
REMARK    1  A    between atoms: C_2  and  N_4 
REMARK    2  A    between atoms: N_4  and  C_5 
REMARK    3  A    between atoms: N_4  and  C_23 
REMARK    4  A    between atoms: C_5  and  C_6 
REMARK    5  A    between atoms: C_6  and  N_7 
REMARK       I    between atoms: N_7  and  C_8 
REMARK    6  A    between atoms: C_8  and  C_10 
REMARK    7  A    between atoms: C_16  and  N_17 
ROOT
HETATM    1  C   UNL     1      -0.080  -6.049   1.449  1.00  0.00     0.075 A 
HETATM    2  C   UNL     1       0.290  -6.925   2.484  1.00  0.00     0.022 A 
HETATM    3  C   UNL     1      -0.106  -8.254   2.456  1.00  0.00     0.018 A 
HETATM    4  C   UNL     1      -0.891  -8.659   1.402  1.00  0.00     0.089 A 
HETATM    5  N   UNL     1      -1.269  -7.846   0.390  1.00  0.00    -0.352 N 
ATOM      6  HN  UNL     1      -1.851  -8.205  -0.367  1.00  0.00     0.166 HD
HETATM    7  C   UNL     1      -0.867  -6.543   0.388  1.00  0.00     0.119 A 
ENDROOT
BRANCH   1   8
HETATM    8  C   UNL     1       0.444  -4.660   1.589  1.00  0.00     0.255 C 
HETATM    9  N   UNL     1       0.779  -3.981   0.438  1.00  0.00    -0.355 N 
HETATM   10  H   UNL     1       0.645  -4.454  -0.452  1.00  0.00     0.162 HD
HETATM   11  O   UNL     1       0.592  -4.174   2.708  1.00  0.00    -0.268 OA
BRANCH   9  12
HETATM   12  C   UNL     1       1.129  -2.569   0.471  1.00  0.00     0.153 C 
BRANCH  12  13
HETATM   13  C   UNL     1       2.649  -2.316   0.615  1.00  0.00     0.293 C 
BRANCH  13  14
HETATM   14  N   UNL     1       3.070  -0.892   0.730  1.00  0.00     0.097 N 
BRANCH  14  15
HETATM   15  C   UNL     1       2.645  -0.308   2.042  1.00  0.00     0.215 C 
HETATM   16  C   UNL     1       3.098  -1.190   3.232  1.00  0.00     0.042 C 
HETATM   17  C   UNL     1       3.162   1.104   2.363  1.00  0.00     0.042 C 
ENDBRANCH  14  15
BRANCH  14  18
HETATM   18  C   UNL     1       2.728  -0.111  -0.505  1.00  0.00     0.215 C 
HETATM   19  C   UNL     1       3.321   1.307  -0.601  1.00  0.00     0.042 C 
HETATM   20  C   UNL     1       3.211  -0.823  -1.795  1.00  0.00     0.042 C 
ENDBRANCH  14  18
ENDBRANCH  13  14
ENDBRANCH  12  13
ENDBRANCH   9  12
ENDBRANCH   1   8
BRANCH   7  21
HETATM   21  N   UNL     1      -1.159  -5.810  -0.761  1.00  0.00    -0.362 N 
HETATM   22  C   UNL     1      -1.558  -6.605  -1.946  1.00  0.00     0.150 C 
HETATM   23  C   UNL     1      -1.282  -5.733  -3.182  1.00  0.00     0.187 C 
HETATM   24  O   UNL     1      -2.012  -4.492  -3.130  1.00  0.00    -0.388 OA
HETATM   25  C   UNL     1      -1.719  -3.762  -1.922  1.00  0.00     0.187 C 
HETATM   26  C   UNL     1      -2.015  -4.609  -0.662  1.00  0.00     0.150 C 
ENDBRANCH   7  21
TORSDOF 7
