REMARK  5 active torsions:
REMARK  status: ('A' for Active; 'I' for Inactive)
REMARK    1  A    between atoms: C_1  and  C_12 
REMARK    2  A    between atoms: C_2  and  C_4 
REMARK       I    between atoms: C_4  and  N_11 
REMARK    3  A    between atoms: N_5  and  C_23 
REMARK    4  A    between atoms: C_12  and  O_22 
REMARK    5  A    between atoms: O_22  and  C_25 
ROOT
HETATM    1  C   UNL     1      -1.085  -0.826  -0.552  1.00  0.00     0.085 C 
HETATM    2  C   UNL     1      -0.302   0.222   0.300  1.00  0.00     0.082 C 
HETATM    3  C   UNL     1       4.021  -0.048   0.614  1.00  0.00     0.273 C 
HETATM    4  C   UNL     1      -2.519   0.513  -0.088  1.00  0.00     0.061 C 
HETATM    5  O   UNL     1      -1.416   1.066   0.678  1.00  0.00    -0.368 OA
HETATM    6  N   UNL     1       2.621  -0.048   0.511  1.00  0.00    -0.346 N 
HETATM    7  C   UNL     1      -2.007   0.016  -1.491  1.00  0.00     0.060 C 
HETATM    8  C   UNL     1      -2.484  -1.037   0.230  1.00  0.00     0.060 C 
HETATM    9  C   UNL     1       0.653   1.187  -0.386  1.00  0.00     0.059 C 
HETATM   10  C   UNL     1       0.355  -0.405   1.520  1.00  0.00     0.059 C 
HETATM   11  C   UNL     1       1.730  -0.982   1.198  1.00  0.00     0.129 C 
HETATM   12  C   UNL     1       2.054   0.671  -0.628  1.00  0.00     0.129 C 
HETATM   13  O   UNL     1       4.701   0.700  -0.098  1.00  0.00    -0.266 OA
HETATM   14  C   UNL     1      -3.635   1.504  -0.221  1.00  0.00     0.046 C 
ENDROOT
BRANCH   1  15
HETATM   15  C   UNL     1      -0.330  -1.995  -1.191  1.00  0.00     0.270 C 
HETATM   16  O   UNL     1       0.515  -1.870  -2.075  1.00  0.00    -0.264 OA
BRANCH  15  17
HETATM   17  O   UNL     1      -0.705  -3.214  -0.695  1.00  0.00    -0.321 OA
BRANCH  17  18
HETATM   18  C   UNL     1      -0.122  -4.361  -1.345  1.00  0.00     0.174 C 
HETATM   19  C   UNL     1       1.208  -4.724  -0.712  1.00  0.00     0.034 C 
ENDBRANCH  17  18
ENDBRANCH  15  17
ENDBRANCH   1  15
BRANCH   3  20
HETATM   20  C   UNL     1       4.666  -0.893   1.591  1.00  0.00     0.133 A 
HETATM   21  N   UNL     1       5.808  -0.556   2.283  1.00  0.00    -0.269 N 
HETATM   22  N   UNL     1       6.147  -1.504   3.177  1.00  0.00    -0.020 NA
HETATM   23  N   UNL     1       5.312  -2.518   3.019  1.00  0.00    -0.293 N 
HETATM   24  C   UNL     1       4.436  -2.182   2.029  1.00  0.00     0.141 A 
ATOM     25  HN  UNL     1       5.322  -3.393   3.543  1.00  0.00     0.183 HD
BRANCH  21  26
HETATM   26  C   UNL     1       6.650   0.614   2.143  1.00  0.00     0.142 C 
HETATM   27  C   UNL     1       7.754   0.383   1.125  1.00  0.00     0.028 C 
ENDBRANCH  21  26
ENDBRANCH   3  20
TORSDOF 5
