REMARK  5 active torsions:
REMARK  status: ('A' for Active; 'I' for Inactive)
REMARK    1  A    between atoms: N_2  and  C_4 
REMARK    2  A    between atoms: N_9  and  C_10 
REMARK    3  A    between atoms: C_10  and  C_11 
REMARK       I    between atoms: C_11  and  N_13 
REMARK    4  A    between atoms: N_13  and  C_14 
REMARK    5  A    between atoms: C_14  and  C_15 
ROOT
HETATM    1  C   UNL     1       2.884  -4.678   1.148  1.00  0.00     0.234 C 
ENDROOT
BRANCH   1   2
HETATM    2  N   UNL     1       4.115  -5.442   0.936  1.00  0.00    -0.314 N 
HETATM    3  C   UNL     1       4.234  -6.691   1.542  1.00  0.00     0.247 A 
HETATM    4  C   UNL     1       5.533  -7.391   1.341  1.00  0.00     0.077 A 
HETATM    5  O   UNL     1       3.344  -7.231   2.191  1.00  0.00    -0.268 OA
HETATM    6  C   UNL     1       6.486  -6.853   0.562  1.00  0.00     0.043 A 
HETATM    7  C   UNL     1       6.268  -5.570  -0.069  1.00  0.00     0.118 A 
HETATM    8  C   UNL     1       5.118  -4.904   0.134  1.00  0.00     0.130 A 
BRANCH   7   9
HETATM    9  N   UNL     1       7.283  -4.960  -0.925  1.00  0.00    -0.114 N 
HETATM   10  O   UNL     1       7.065  -3.833  -1.389  1.00  0.00    -0.532 OA
HETATM   11  O   UNL     1       8.315  -5.617  -1.134  1.00  0.00    -0.532 OA
ENDBRANCH   7   9
ENDBRANCH   1   2
BRANCH   1  12
HETATM   12  C   UNL     1       1.847  -4.856   0.037  1.00  0.00     0.235 C 
HETATM   13  O   UNL     1       1.329  -3.877  -0.502  1.00  0.00    -0.272 OA
HETATM   14  N   UNL     1       1.449  -6.152  -0.242  1.00  0.00    -0.359 N 
HETATM   15  H   UNL     1       1.785  -6.904   0.354  1.00  0.00     0.162 HD
BRANCH  14  16
HETATM   16  C   UNL     1       0.316  -6.361  -1.128  1.00  0.00     0.127 C 
BRANCH  16  17
HETATM   17  C   UNL     1      -0.058  -7.832  -1.390  1.00  0.00     0.003 C 
HETATM   18  C   UNL     1      -1.118  -7.919  -2.510  1.00  0.00     0.006 C 
HETATM   19  C   UNL     1      -2.524  -7.534  -2.048  1.00  0.00     0.000 C 
HETATM   20  C   UNL     1      -2.958  -8.377  -0.856  1.00  0.00     0.000 C 
HETATM   21  C   UNL     1      -1.965  -8.254   0.294  1.00  0.00     0.000 C 
HETATM   22  C   UNL     1      -0.537  -8.590  -0.138  1.00  0.00     0.006 C 
ENDBRANCH  16  17
ENDBRANCH  14  16
ENDBRANCH   1  12
TORSDOF 5
