REMARK  3 active torsions:
REMARK  status: ('A' for Active; 'I' for Inactive)
REMARK    1  A    between atoms: O_1  and  C_2 
REMARK    2  A    between atoms: C_2  and  C_4 
REMARK    3  A    between atoms: C_7  and  N_11 
ROOT
HETATM    1  C   UNL     1       3.104   1.190  -0.952  1.00  0.00     0.053 A 
HETATM    2  C   UNL     1       4.362   1.771  -0.862  1.00  0.00     0.023 A 
HETATM    3  C   UNL     1       4.880   2.444  -1.973  1.00  0.00     0.049 A 
HETATM    4  C   UNL     1       4.144   2.542  -3.158  1.00  0.00     0.103 A 
HETATM    5  N   UNL     1       2.930   1.951  -3.240  1.00  0.00    -0.351 N 
ATOM      6  HN  UNL     1       2.386   2.008  -4.101  1.00  0.00     0.166 HD
HETATM    7  C   UNL     1       2.442   1.281  -2.163  1.00  0.00     0.108 A 
ENDROOT
BRANCH   4   8
HETATM    8  N   UNL     1       4.672   3.152  -4.282  1.00  0.00    -0.363 N 
HETATM    9  C   UNL     1       5.484   4.375  -4.186  1.00  0.00     0.150 C 
HETATM   10  C   UNL     1       4.674   5.618  -4.595  1.00  0.00     0.187 C 
HETATM   11  O   UNL     1       4.057   5.460  -5.881  1.00  0.00    -0.388 OA
HETATM   12  C   UNL     1       3.168   4.329  -5.864  1.00  0.00     0.187 C 
HETATM   13  C   UNL     1       3.933   3.035  -5.554  1.00  0.00     0.150 C 
ENDBRANCH   4   8
BRANCH   1  14
HETATM   14  C   UNL     1       2.470   0.452   0.154  1.00  0.00     0.177 C 
HETATM   15  O   UNL     1       1.755  -0.517  -0.018  1.00  0.00    -0.646 OA
BRANCH  14  16
HETATM   16  O   UNL     1       2.725   0.988   1.368  1.00  0.00    -0.773 OA
HETATM   17  H   UNL     1       3.158   1.862   1.360  1.00  0.00     0.167 HD
ENDBRANCH  14  16
ENDBRANCH   1  14
TORSDOF 3
