REMARK  4 active torsions:
REMARK  status: ('A' for Active; 'I' for Inactive)
REMARK    1  A    between atoms: C_2  and  N_3 
REMARK       I    between atoms: N_3  and  C_4 
REMARK    2  A    between atoms: C_4  and  C_6 
REMARK    3  A    between atoms: C_6  and  N_7 
REMARK    4  A    between atoms: C_10  and  N_11 
ROOT
HETATM    1  N   UNL     1       6.375   1.313   2.737  1.00  0.00    -0.293 N 
HETATM    2  C   UNL     1       7.238   1.951   1.892  1.00  0.00     0.114 A 
HETATM    3  C   UNL     1       8.497   1.697   2.382  1.00  0.00     0.068 A 
HETATM    4  C   UNL     1       8.286   0.913   3.533  1.00  0.00     0.114 A 
HETATM    5  N   UNL     1       6.997   0.683   3.754  1.00  0.00    -0.284 N 
ATOM      6  HN  UNL     1       6.575   0.153   4.516  1.00  0.00     0.188 HD
ENDROOT
BRANCH   1   7
HETATM    7  C   UNL     1       4.928   1.311   2.669  1.00  0.00     0.250 C 
BRANCH   7   8
HETATM    8  C   UNL     1       4.442   0.659   1.397  1.00  0.00     0.237 C 
HETATM    9  N   UNL     1       4.219  -0.700   1.485  1.00  0.00    -0.360 N 
HETATM   10  H   UNL     1       4.416  -1.183   2.354  1.00  0.00     0.162 HD
HETATM   11  O   UNL     1       4.267   1.300   0.364  1.00  0.00    -0.272 OA
BRANCH   9  12
HETATM   12  C   UNL     1       3.806  -1.483   0.339  1.00  0.00     0.118 C 
HETATM   13  C   UNL     1       2.295  -1.534   0.208  1.00  0.00     0.026 C 
ENDBRANCH   9  12
ENDBRANCH   7   8
ENDBRANCH   1   7
BRANCH   4  14
HETATM   14  N   UNL     1       9.268   0.466   4.322  1.00  0.00    -0.384 N 
HETATM   15  H   UNL     1      10.179   0.907   4.312  1.00  0.00     0.157 HD
HETATM   16  H   UNL     1       8.992   0.112   5.231  1.00  0.00     0.157 HD
ENDBRANCH   4  14
TORSDOF 4
