REMARK  6 active torsions:
REMARK  status: ('A' for Active; 'I' for Inactive)
REMARK    1  A    between atoms: C_7  and  N_8 
REMARK       I    between atoms: N_8  and  C_9 
REMARK    2  A    between atoms: C_9  and  C_11 
REMARK    3  A    between atoms: C_11  and  N_12 
REMARK    4  A    between atoms: N_12  and  C_13 
REMARK    5  A    between atoms: N_16  and  C_17 
REMARK    6  A    between atoms: C_17  and  C_18 
REMARK       I    between atoms: C_18  and  N_20 
ROOT
HETATM    1  N   UNL     1       1.317  -4.194   2.144  1.00  0.00    -0.366 N 
HETATM    2  H   UNL     1       1.484  -5.187   2.287  1.00  0.00     0.161 HD
ENDROOT
BRANCH   1   3
HETATM    3  C   UNL     1       2.277  -3.337   2.850  1.00  0.00     0.224 C 
BRANCH   3   4
HETATM    4  C   UNL     1       2.907  -2.260   1.955  1.00  0.00     0.235 C 
HETATM    5  N   UNL     1       2.482  -2.271   0.645  1.00  0.00    -0.355 N 
HETATM    6  H   UNL     1       1.915  -3.075   0.381  1.00  0.00     0.162 HD
HETATM    7  O   UNL     1       3.719  -1.449   2.395  1.00  0.00    -0.272 OA
BRANCH   5   8
HETATM    8  C   UNL     1       2.950  -1.332  -0.356  1.00  0.00     0.088 C 
HETATM    9  C   UNL     1       1.844  -0.958  -1.368  1.00  0.00     0.004 C 
HETATM   10  C   UNL     1       1.256  -2.157  -2.124  1.00  0.00     0.012 C 
HETATM   11  C   UNL     1       2.390   0.091  -2.353  1.00  0.00     0.006 C 
HETATM   12  C   UNL     1       3.673  -0.364  -3.051  1.00  0.00     0.001 C 
HETATM   13  C   UNL     1       4.743  -0.807  -2.056  1.00  0.00     0.002 C 
HETATM   14  C   UNL     1       4.222  -1.834  -1.051  1.00  0.00     0.025 C 
ENDBRANCH   5   8
ENDBRANCH   3   4
ENDBRANCH   1   3
BRANCH   1  15
HETATM   15  C   UNL     1       0.010  -3.878   2.038  1.00  0.00     0.117 A 
HETATM   16  C   UNL     1      -0.540  -2.577   2.030  1.00  0.00     0.068 A 
HETATM   17  C   UNL     1      -1.885  -2.756   1.810  1.00  0.00     0.114 A 
HETATM   18  N   UNL     1      -2.070  -4.104   1.722  1.00  0.00    -0.293 N 
HETATM   19  N   UNL     1      -0.929  -4.806   1.873  1.00  0.00    -0.283 N 
ATOM     20  HN  UNL     1      -0.812  -5.819   1.863  1.00  0.00     0.188 HD
BRANCH  18  21
HETATM   21  C   UNL     1      -3.305  -4.797   1.410  1.00  0.00     0.250 C 
BRANCH  21  22
HETATM   22  C   UNL     1      -4.379  -4.534   2.436  1.00  0.00     0.235 C 
HETATM   23  O   UNL     1      -5.416  -3.930   2.176  1.00  0.00    -0.272 OA
HETATM   24  N   UNL     1      -4.174  -5.051   3.683  1.00  0.00    -0.369 N 
HETATM   25  H   UNL     1      -3.286  -5.442   3.974  1.00  0.00     0.159 HD
HETATM   26  H   UNL     1      -4.869  -4.853   4.393  1.00  0.00     0.159 HD
ENDBRANCH  21  22
ENDBRANCH  18  21
ENDBRANCH   1  15
TORSDOF 6
