REMARK  4 active torsions:
REMARK  status: ('A' for Active; 'I' for Inactive)
REMARK       I    between atoms: C_6  and  N_7 
REMARK    1  A    between atoms: C_6  and  C_17 
REMARK    2  A    between atoms: N_7  and  C_8 
REMARK    3  A    between atoms: C_8  and  C_9 
REMARK    4  A    between atoms: C_9  and  C_10 
ROOT
HETATM    1  O   UNL     3       1.499   0.155  -0.129  1.00  0.00    -0.273 OA
HETATM    2  C   UNL     3       2.709   0.163   0.035  1.00  0.00     0.221 C 
HETATM    3  N   UNL     3       3.293   1.184   0.737  1.00  0.00    -0.360 N 
HETATM    4  H   UNL     3       4.320   1.184   0.854  1.00  0.00     0.162 HD
ENDROOT
BRANCH   3   5
HETATM    5  C   UNL     3       2.534   2.285   1.316  1.00  0.00     0.128 C 
BRANCH   5   6
HETATM    6  C   UNL     3       3.452   3.264   2.075  1.00  0.00     0.076 C 
BRANCH   6   7
HETATM    7  C   UNL     3       2.670   4.401   2.682  1.00  0.00     0.010 A 
HETATM    8  C   UNL     3       2.947   5.736   2.347  1.00  0.00     0.025 A 
HETATM    9  C   UNL     3       2.204   6.762   2.938  1.00  0.00     0.003 A 
HETATM   10  C   UNL     3       1.202   6.454   3.857  1.00  0.00     0.017 A 
HETATM   11  C   UNL     3       0.954   5.116   4.174  1.00  0.00     0.088 A 
HETATM   12  N   UNL     3       1.686   4.129   3.589  1.00  0.00    -0.369 N 
ATOM     13  HN  UNL     3       1.494   3.158   3.835  1.00  0.00     0.165 HD
ENDBRANCH   6   7
ENDBRANCH   5   6
ENDBRANCH   3   5
BRANCH   2  14
HETATM   14  C   UNL     3       3.578  -0.944  -0.558  1.00  0.00     0.081 C 
HETATM   15  C   UNL     3       2.831  -2.011  -1.402  1.00  0.00     0.044 C 
HETATM   16  C   UNL     3       2.001  -2.986  -0.540  1.00  0.00     0.270 C 
HETATM   17  N   UNL     3       2.813  -3.594   0.526  1.00  0.00     0.083 N 
HETATM   18  C   UNL     3       3.436  -2.568   1.375  1.00  0.00     0.270 C 
HETATM   19  H   UNL     3       3.559  -4.196   0.104  1.00  0.00     0.315 HD
HETATM   20  C   UNL     3       4.372  -1.679   0.540  1.00  0.00     0.044 C 
ENDBRANCH   2  14
TORSDOF 4
