REMARK  4 active torsions:
REMARK  status: ('A' for Active; 'I' for Inactive)
REMARK    1  A    between atoms: N_4  and  C_5 
REMARK    2  A    between atoms: C_5  and  C_6 
REMARK    3  A    between atoms: C_6  and  N_7 
REMARK       I    between atoms: N_7  and  C_8 
REMARK       I    between atoms: C_8  and  N_10 
REMARK    4  A    between atoms: N_10  and  C_11 
ROOT
HETATM    1  N   UNL     1       3.241   4.037  -4.031  1.00  0.00    -0.341 N 
HETATM    2  C   UNL     1       3.345   5.342  -3.567  1.00  0.00     0.322 C 
HETATM    3  O   UNL     1       2.963   5.662  -2.449  1.00  0.00    -0.247 OA
HETATM    4  N   UNL     1       3.972   6.146  -4.482  1.00  0.00    -0.289 N 
HETATM    5  H   UNL     1       3.018   3.950  -5.012  1.00  0.00     0.164 HD
HETATM    6  H   UNL     1       4.469   5.726  -5.247  1.00  0.00     0.172 HD
ENDROOT
BRANCH   1   7
HETATM    7  C   UNL     1       2.650   3.050  -3.141  1.00  0.00     0.154 C 
BRANCH   7   8
HETATM    8  C   UNL     1       3.141   1.617  -3.411  1.00  0.00     0.292 C 
BRANCH   8   9
HETATM    9  N   UNL     1       2.578   0.620  -2.479  1.00  0.00     0.095 N 
HETATM   10  C   UNL     1       2.971   0.884  -1.075  1.00  0.00     0.303 C 
HETATM   11  C   UNL     1       2.417  -0.175  -0.100  1.00  0.00     0.146 C 
HETATM   12  C   UNL     1       0.901  -0.081   0.069  1.00  0.00     0.041 C 
HETATM   13  O   UNL     1       2.827  -1.495  -0.487  1.00  0.00    -0.378 OA
HETATM   14  C   UNL     1       2.486  -1.803  -1.848  1.00  0.00     0.146 C 
HETATM   15  C   UNL     1       3.043  -0.743  -2.827  1.00  0.00     0.303 C 
HETATM   16  C   UNL     1       3.061  -3.181  -2.150  1.00  0.00     0.041 C 
ENDBRANCH   8   9
ENDBRANCH   7   8
ENDBRANCH   1   7
BRANCH   4  17
HETATM   17  C   UNL     1       4.275   7.447  -4.180  1.00  0.00     0.152 A 
HETATM   18  N   UNL     1       3.833   8.195  -3.204  1.00  0.00    -0.346 N 
HETATM   19  C   UNL     1       4.474   9.415  -3.232  1.00  0.00     0.097 A 
ATOM     20  HN  UNL     1       3.123   7.919  -2.526  1.00  0.00     0.167 HD
HETATM   21  C   UNL     1       5.384   9.581  -4.254  1.00  0.00     0.070 A 
HETATM   22  S   UNL     1       5.415   8.167  -5.231  1.00  0.00    -0.064 SA
ENDBRANCH   4  17
TORSDOF 4
