REMARK  5 active torsions:
REMARK  status: ('A' for Active; 'I' for Inactive)
REMARK    1  A    between atoms: C_2  and  N_3 
REMARK    2  A    between atoms: C_5  and  N_6 
REMARK       I    between atoms: N_6  and  C_7 
REMARK       I    between atoms: C_7  and  N_9 
REMARK    3  A    between atoms: N_9  and  C_10 
REMARK    4  A    between atoms: C_10  and  C_11 
REMARK    5  A    between atoms: C_11  and  N_13 
ROOT
HETATM    1  N   UNL     1       4.633  -2.524   3.691  1.00  0.00    -0.306 N 
HETATM    2  C   UNL     1       5.172  -1.596   4.555  1.00  0.00     0.320 C 
HETATM    3  O   UNL     1       5.284  -0.393   4.344  1.00  0.00    -0.247 OA
HETATM    4  N   UNL     1       5.606  -2.166   5.741  1.00  0.00    -0.341 N 
HETATM    5  H   UNL     1       4.724  -3.500   3.916  1.00  0.00     0.171 HD
HETATM    6  H   UNL     1       5.058  -2.947   6.069  1.00  0.00     0.164 HD
ENDROOT
BRANCH   1   7
HETATM    7  C   UNL     1       4.092  -2.199   2.454  1.00  0.00     0.070 A 
HETATM    8  C   UNL     1       3.932  -0.951   1.905  1.00  0.00     0.141 A 
HETATM    9  N   UNL     1       3.350  -1.127   0.686  1.00  0.00    -0.302 N 
HETATM   10  N   UNL     1       3.115  -2.421   0.391  1.00  0.00    -0.308 N 
HETATM   11  C   UNL     1       3.571  -3.069   1.468  1.00  0.00     0.138 A 
ATOM     12  HN  UNL     1       2.692  -2.812  -0.451  1.00  0.00     0.186 HD
BRANCH   9  13
HETATM   13  C   UNL     1       2.978  -0.073  -0.238  1.00  0.00     0.143 C 
HETATM   14  C   UNL     1       1.562   0.419   0.006  1.00  0.00     0.028 C 
ENDBRANCH   9  13
ENDBRANCH   1   7
BRANCH   4  15
HETATM   15  C   UNL     1       6.122  -1.245   6.748  1.00  0.00     0.159 C 
BRANCH  15  16
HETATM   16  C   UNL     1       6.672  -1.900   8.041  1.00  0.00     0.236 C 
HETATM   17  C   UNL     1       7.804  -2.876   7.682  1.00  0.00     0.044 C 
BRANCH  16  18
HETATM   18  N   UNL     1       7.163  -0.884   9.001  1.00  0.00     0.094 N 
HETATM   19  C   UNL     1       7.647  -1.441  10.271  1.00  0.00     0.273 C 
HETATM   20  C   UNL     1       7.385  -0.376  11.332  1.00  0.00     0.032 C 
HETATM   21  C   UNL     1       6.811   0.802  10.572  1.00  0.00     0.032 C 
HETATM   22  C   UNL     1       6.191   0.158   9.347  1.00  0.00     0.273 C 
ENDBRANCH  16  18
ENDBRANCH  15  16
ENDBRANCH   4  15
TORSDOF 5
