REMARK  5 active torsions:
REMARK  status: ('A' for Active; 'I' for Inactive)
REMARK    1  A    between atoms: C_9  and  C_10 
REMARK    2  A    between atoms: C_10  and  C_11 
REMARK       I    between atoms: C_11  and  N_13 
REMARK    3  A    between atoms: N_13  and  C_14 
REMARK    4  A    between atoms: C_14  and  C_20 
REMARK    5  A    between atoms: C_20  and  O_22 
ROOT
HETATM    1  C   UNL     1       2.103   3.206   0.617  1.00  0.00     0.223 C 
HETATM    2  O   UNL     1       1.465   2.534   1.426  1.00  0.00    -0.273 OA
HETATM    3  N   UNL     1       1.581   4.358   0.071  1.00  0.00    -0.342 N 
HETATM    4  H   UNL     1       2.246   5.027  -0.303  1.00  0.00     0.163 HD
ENDROOT
BRANCH   1   5
HETATM    5  C   UNL     1       3.489   2.807   0.145  1.00  0.00     0.145 C 
BRANCH   5   6
HETATM    6  C   UNL     1       4.600   3.431   0.922  1.00  0.00    -0.002 A 
HETATM    7  C   UNL     1       4.906   3.293   2.309  1.00  0.00     0.030 A 
HETATM    8  C   UNL     1       4.193   2.519   3.358  1.00  0.00     0.070 C 
HETATM    9  N   UNL     1       6.014   3.963   2.638  1.00  0.00    -0.303 N 
HETATM   10  N   UNL     1       6.434   4.512   1.491  1.00  0.00    -0.300 N 
ATOM     11  HN  UNL     1       6.445   4.039   3.559  1.00  0.00     0.186 HD
HETATM   12  C   UNL     1       7.634   5.317   1.502  1.00  0.00     0.177 C 
HETATM   13  C   UNL     1       5.635   4.211   0.419  1.00  0.00     0.033 A 
HETATM   14  C   UNL     1       5.921   4.647  -0.974  1.00  0.00     0.070 C 
ENDBRANCH   5   6
ENDBRANCH   1   5
BRANCH   3  15
HETATM   15  C   UNL     1       0.184   4.830   0.277  1.00  0.00     0.118 C 
HETATM   16  C   UNL     1      -0.862   3.745  -0.086  1.00  0.00     0.042 C 
HETATM   17  C   UNL     1      -0.815   3.363  -1.567  1.00  0.00     0.003 C 
HETATM   18  C   UNL     1      -1.059   4.572  -2.461  1.00  0.00     0.000 C 
HETATM   19  C   UNL     1      -0.111   5.721  -2.135  1.00  0.00     0.003 C 
HETATM   20  C   UNL     1      -0.088   6.054  -0.643  1.00  0.00     0.042 C 
BRANCH  15  21
HETATM   21  C   UNL     1      -0.023   5.293   1.750  1.00  0.00     0.169 C 
HETATM   22  O   UNL     1      -0.355   6.427   2.074  1.00  0.00    -0.648 OA
BRANCH  21  23
HETATM   23  O   UNL     1       0.163   4.331   2.683  1.00  0.00    -0.775 OA
HETATM   24  H   UNL     1       0.493   3.478   2.307  1.00  0.00     0.167 HD
ENDBRANCH  21  23
ENDBRANCH  15  21
ENDBRANCH   3  15
TORSDOF 5
