REMARK  4 active torsions:
REMARK  status: ('A' for Active; 'I' for Inactive)
REMARK    1  A    between atoms: S_2  and  C_3 
REMARK    2  A    between atoms: C_3  and  C_4 
REMARK    3  A    between atoms: C_7  and  N_8 
REMARK       I    between atoms: N_8  and  C_9 
REMARK    4  A    between atoms: C_9  and  C_11 
ROOT
HETATM    1  C   UNL     1       6.532  -0.187   1.126  1.00  0.00     0.042 A 
HETATM    2  N   UNL     1       7.193   0.968   1.437  1.00  0.00    -0.344 N 
ATOM      3  HN  UNL     1       8.187   1.072   1.235  1.00  0.00     0.167 HD
HETATM    4  C   UNL     1       6.497   1.965   2.017  1.00  0.00     0.107 A 
HETATM    5  C   UNL     1       5.178   1.825   2.416  1.00  0.00     0.050 A 
HETATM    6  C   UNL     1       4.527   0.621   2.161  1.00  0.00     0.029 A 
HETATM    7  C   UNL     1       5.196  -0.391   1.477  1.00  0.00     0.057 A 
HETATM    8 CL   UNL     1       4.329  -1.831   1.098  1.00  0.00    -0.082 Cl
ENDROOT
BRANCH   4   9
HETATM    9  N   UNL     1       7.216   3.140   2.194  1.00  0.00    -0.311 N 
HETATM   10  C   UNL     1       6.700   4.425   2.178  1.00  0.00     0.254 C 
HETATM   11  O   UNL     1       5.526   4.719   2.004  1.00  0.00    -0.270 OA
HETATM   12  H   UNL     1       8.212   3.054   2.023  1.00  0.00     0.170 HD
BRANCH  10  13
HETATM   13  C   UNL     1       7.806   5.453   2.480  1.00  0.00     0.237 C 
HETATM   14  C   UNL     1       7.422   6.909   2.171  1.00  0.00     0.209 C 
HETATM   15  O   UNL     1       7.593   7.258   0.790  1.00  0.00    -0.386 OA
HETATM   16  C   UNL     1       8.909   6.920   0.338  1.00  0.00     0.193 C 
HETATM   17  C   UNL     1       9.120   5.422   0.506  1.00  0.00     0.195 C 
HETATM   18  O   UNL     1       9.066   5.077   1.900  1.00  0.00    -0.372 OA
ENDBRANCH  10  13
ENDBRANCH   4   9
BRANCH   1  19
HETATM   19  C   UNL     1       7.317  -1.181   0.307  1.00  0.00     0.132 C 
BRANCH  19  20
HETATM   20  S   UNL     1       7.064  -0.991  -1.495  1.00  0.00    -0.167 SA
HETATM   21  C   UNL     1       7.812   0.641  -1.738  1.00  0.00     0.090 C 
ENDBRANCH  19  20
ENDBRANCH   1  19
TORSDOF 4
