REMARK  4 active torsions:
REMARK  status: ('A' for Active; 'I' for Inactive)
REMARK    1  A    between atoms: C_7  and  C_8 
REMARK    2  A    between atoms: C_8  and  C_9 
REMARK       I    between atoms: C_9  and  N_11 
REMARK    3  A    between atoms: N_11  and  C_12 
REMARK    4  A    between atoms: C_12  and  C_13 
ROOT
HETATM    1  C   UNL     1       1.054  -0.500  -0.739  1.00  0.00     0.089 C 
HETATM    2  C   UNL     1       2.533  -0.443  -0.488  1.00  0.00     0.080 A 
HETATM    3  N   UNL     1       2.991  -0.406   0.718  1.00  0.00    -0.349 N 
ATOM      4  HN  UNL     1       2.362  -0.444   1.520  1.00  0.00     0.167 HD
HETATM    5  C   UNL     1       4.356  -0.314   0.889  1.00  0.00     0.018 A 
HETATM    6  C   UNL     1       4.769  -0.190   2.336  1.00  0.00     0.069 C 
HETATM    7  C   UNL     1       5.240  -0.319  -0.126  1.00  0.00     0.041 A 
HETATM    8  C   UNL     1       4.686  -0.435  -1.496  1.00  0.00     0.255 A 
HETATM    9  O   UNL     1       5.411  -0.521  -2.484  1.00  0.00    -0.268 OA
HETATM   10  N   UNL     1       3.327  -0.434  -1.590  1.00  0.00    -0.313 N 
HETATM   11  H   UNL     1       2.939  -0.487  -2.519  1.00  0.00     0.170 HD
ENDROOT
BRANCH   7  12
HETATM   12  C   UNL     1       6.722  -0.110  -0.049  1.00  0.00     0.149 C 
BRANCH  12  13
HETATM   13  C   UNL     1       7.504  -1.399   0.136  1.00  0.00     0.222 C 
HETATM   14  O   UNL     1       8.065  -1.635   1.207  1.00  0.00    -0.273 OA
HETATM   15  N   UNL     1       7.595  -2.257  -0.948  1.00  0.00    -0.360 N 
HETATM   16  H   UNL     1       7.295  -1.916  -1.860  1.00  0.00     0.162 HD
BRANCH  15  17
HETATM   17  C   UNL     1       8.522  -3.371  -0.841  1.00  0.00     0.129 C 
BRANCH  17  18
HETATM   18  C   UNL     1       8.472  -4.424  -1.942  1.00  0.00     0.029 C 
HETATM   19  C   UNL     1       7.146  -5.142  -2.111  1.00  0.00     0.034 C 
HETATM   20  C   UNL     1       7.523  -6.572  -2.473  1.00  0.00     0.168 C 
HETATM   21  O   UNL     1       8.948  -6.684  -2.389  1.00  0.00    -0.391 OA
HETATM   22  C   UNL     1       9.416  -5.575  -1.620  1.00  0.00     0.173 C 
ENDBRANCH  17  18
ENDBRANCH  15  17
ENDBRANCH  12  13
ENDBRANCH   7  12
TORSDOF 4
