REMARK  6 active torsions:
REMARK  status: ('A' for Active; 'I' for Inactive)
REMARK    1  A    between atoms: O_1  and  C_2 
REMARK    2  A    between atoms: C_7  and  C_8 
REMARK    3  A    between atoms: C_8  and  N_9 
REMARK       I    between atoms: N_9  and  C_10 
REMARK    4  A    between atoms: C_10  and  C_12 
REMARK    5  A    between atoms: C_12  and  N_13 
REMARK    6  A    between atoms: C_15  and  N_20 
ROOT
HETATM    1  N   UNL     1       2.870  -2.287   1.947  1.00  0.00    -0.359 N 
HETATM    2  C   UNL     1       2.433  -3.106   2.949  1.00  0.00     0.235 C 
HETATM    3  O   UNL     1       2.866  -2.930   4.090  1.00  0.00    -0.272 OA
HETATM    4  H   UNL     1       3.500  -1.554   2.253  1.00  0.00     0.162 HD
ENDROOT
BRANCH   2   5
HETATM    5  C   UNL     1       1.477  -4.260   2.609  1.00  0.00     0.234 C 
BRANCH   5   6
HETATM    6  N   UNL     1       2.136  -5.555   2.780  1.00  0.00    -0.314 N 
HETATM    7  C   UNL     1       2.446  -5.978   4.069  1.00  0.00     0.130 A 
HETATM    8  C   UNL     1       3.106  -7.127   4.277  1.00  0.00     0.118 A 
HETATM    9  C   UNL     1       3.477  -7.962   3.154  1.00  0.00     0.043 A 
HETATM   10  C   UNL     1       3.193  -7.578   1.901  1.00  0.00     0.077 A 
HETATM   11  C   UNL     1       2.500  -6.282   1.646  1.00  0.00     0.247 A 
HETATM   12  O   UNL     1       2.288  -5.937   0.487  1.00  0.00    -0.268 OA
BRANCH   8  13
HETATM   13  N   UNL     1       3.436  -7.488   5.653  1.00  0.00    -0.114 N 
HETATM   14  O   UNL     1       4.047  -8.555   5.823  1.00  0.00    -0.532 OA
HETATM   15  O   UNL     1       3.089  -6.726   6.565  1.00  0.00    -0.532 OA
ENDBRANCH   8  13
ENDBRANCH   5   6
ENDBRANCH   2   5
BRANCH   1  16
HETATM   16  C   UNL     1       2.453  -2.377   0.571  1.00  0.00     0.129 C 
BRANCH  16  17
HETATM   17  C   UNL     1       3.026  -1.310  -0.356  1.00  0.00     0.032 C 
HETATM   18  C   UNL     1       2.655   0.119   0.076  1.00  0.00     0.123 C 
HETATM   19  C   UNL     1       3.136   1.145  -0.953  1.00  0.00     0.032 C 
HETATM   20  C   UNL     1       2.614   0.835  -2.355  1.00  0.00     0.002 C 
HETATM   21  C   UNL     1       2.973  -0.582  -2.788  1.00  0.00     0.001 C 
HETATM   22  C   UNL     1       2.502  -1.611  -1.773  1.00  0.00     0.009 C 
BRANCH  18  23
HETATM   23  O   UNL     1       1.241   0.225   0.229  1.00  0.00    -0.395 OA
HETATM   24  H   UNL     1       1.042   1.135   0.512  1.00  0.00     0.210 HD
ENDBRANCH  18  23
ENDBRANCH  16  17
ENDBRANCH   1  16
TORSDOF 6
