REMARK  7 active torsions:
REMARK  status: ('A' for Active; 'I' for Inactive)
REMARK    1  A    between atoms: N_1  and  C_8 
REMARK    2  A    between atoms: N_2  and  C_7 
REMARK    3  A    between atoms: C_8  and  C_9 
REMARK       I    between atoms: C_9  and  N_12 
REMARK    4  A    between atoms: N_12  and  C_16 
REMARK    5  A    between atoms: O_17  and  C_18 
REMARK    6  A    between atoms: O_17  and  C_19 
REMARK    7  A    between atoms: C_19  and  C_24 
ROOT
HETATM    1  C   UNL     1      -2.970   1.980  -0.146  1.00  0.00     0.240 C 
HETATM    2  N   UNL     1      -3.280   0.714  -0.654  1.00  0.00    -0.326 N 
HETATM    3  O   UNL     1      -3.743   2.936  -0.101  1.00  0.00    -0.271 OA
HETATM    4  H   UNL     1      -2.483   0.108  -0.844  1.00  0.00     0.169 HD
ENDROOT
BRANCH   1   5
HETATM    5  C   UNL     1      -1.483   2.160   0.265  1.00  0.00     0.240 C 
BRANCH   5   6
HETATM    6  N   UNL     1      -0.778   2.910  -0.769  1.00  0.00    -0.255 N 
HETATM    7  C   UNL     1      -0.656   2.278  -1.992  1.00  0.00     0.334 C 
HETATM    8  N   UNL     1      -0.335   3.104  -3.065  1.00  0.00    -0.279 N 
HETATM    9  O   UNL     1      -0.906   1.077  -2.129  1.00  0.00    -0.246 OA
HETATM   10  C   UNL     1       0.191   4.364  -2.881  1.00  0.00     0.146 C 
HETATM   11  C   UNL     1       0.359   4.859  -1.655  1.00  0.00     0.200 C 
HETATM   12  C   UNL     1      -0.154   4.114  -0.477  1.00  0.00     0.292 C 
HETATM   13  F   UNL     1       0.920   6.063  -1.435  1.00  0.00    -0.199 F 
HETATM   14  O   UNL     1       0.007   4.549   0.660  1.00  0.00    -0.264 OA
BRANCH   8  15
HETATM   15  C   UNL     1      -0.829   2.627  -4.338  1.00  0.00     0.232 C 
HETATM   16  O   UNL     1      -0.469   3.457  -5.451  1.00  0.00    -0.366 OA
HETATM   17  C   UNL     1      -1.495   3.276  -6.451  1.00  0.00     0.170 C 
HETATM   18  C   UNL     1      -2.645   2.514  -5.816  1.00  0.00     0.031 C 
HETATM   19  C   UNL     1      -2.354   2.636  -4.351  1.00  0.00     0.056 C 
ENDBRANCH   8  15
ENDBRANCH   5   6
ENDBRANCH   1   5
BRANCH   2  20
HETATM   20  C   UNL     1      -4.527   0.263  -1.184  1.00  0.00     0.034 A 
HETATM   21  C   UNL     1      -5.698   1.019  -1.151  1.00  0.00     0.032 A 
HETATM   22  C   UNL     1      -6.873   0.555  -1.776  1.00  0.00     0.039 A 
HETATM   23  C   UNL     1      -6.928  -0.683  -2.421  1.00  0.00     0.069 A 
HETATM   24  C   UNL     1      -5.784  -1.474  -2.404  1.00  0.00     0.039 A 
HETATM   25  C   UNL     1      -4.594  -0.998  -1.792  1.00  0.00     0.032 A 
BRANCH  23  26
HETATM   26  O   UNL     1      -8.121  -0.943  -3.046  1.00  0.00    -0.347 OA
BRANCH  26  27
HETATM   27  C   UNL     1      -8.431  -2.286  -3.433  1.00  0.00     0.214 C 
BRANCH  27  28
HETATM   28  C   UNL     1      -9.763  -2.356  -4.176  1.00  0.00    -0.034 A 
HETATM   29  C   UNL     1     -10.183  -1.342  -5.053  1.00  0.00     0.009 A 
HETATM   30  C   UNL     1     -11.387  -1.453  -5.761  1.00  0.00     0.001 A 
HETATM   31  C   UNL     1     -12.186  -2.585  -5.617  1.00  0.00     0.000 A 
HETATM   32  C   UNL     1     -11.778  -3.611  -4.768  1.00  0.00     0.001 A 
HETATM   33  C   UNL     1     -10.575  -3.500  -4.058  1.00  0.00     0.009 A 
ENDBRANCH  27  28
ENDBRANCH  26  27
ENDBRANCH  23  26
ENDBRANCH   2  20
TORSDOF 7
