REMARK  2 active torsions:
REMARK  status: ('A' for Active; 'I' for Inactive)
REMARK       I    between atoms: C_2  and  N_3 
REMARK       I    between atoms: C_2  and  N_12 
REMARK    1  A    between atoms: N_3  and  C_4 
REMARK    2  A    between atoms: N_12  and  C_13 
ROOT
HETATM    1  O   UNL     1       1.418  -0.745  -1.145  1.00  0.00    -0.247 OA
HETATM    2  C   UNL     1       2.433  -0.280  -0.631  1.00  0.00     0.322 C 
HETATM    3  N   UNL     1       2.850   0.996  -0.845  1.00  0.00    -0.330 N 
HETATM    4  N   UNL     1       3.230  -1.097   0.104  1.00  0.00    -0.288 N 
HETATM    5  H   UNL     1       3.507   1.406  -0.188  1.00  0.00     0.165 HD
HETATM    6  H   UNL     1       2.953  -2.062   0.131  1.00  0.00     0.172 HD
ENDROOT
BRANCH   3   7
HETATM    7  C   UNL     1       2.142   1.905  -1.745  1.00  0.00     0.172 C 
HETATM    8  C   UNL     1       2.566   1.627  -3.189  1.00  0.00     0.034 C 
HETATM    9  C   UNL     1       1.638   2.295  -4.196  1.00  0.00     0.004 C 
HETATM   10  C   UNL     1       1.976   3.748  -4.498  1.00  0.00     0.015 C 
HETATM   11  C   UNL     1       2.620   4.544  -3.373  1.00  0.00     0.095 C 
HETATM   12  N   UNL     1       2.013   4.398  -2.069  1.00  0.00    -0.261 NA
HETATM   13  C   UNL     1       2.361   3.349  -1.250  1.00  0.00     0.220 C 
HETATM   14  H   UNL     1       2.071   5.247  -1.518  1.00  0.00     0.130 HD
HETATM   15  O   UNL     1       2.708   3.608  -0.094  1.00  0.00    -0.278 OA
ENDBRANCH   3   7
BRANCH   4  16
HETATM   16  C   UNL     1       4.424  -0.748   0.661  1.00  0.00     0.168 A 
HETATM   17  N   UNL     1       4.964   0.441   0.796  1.00  0.00    -0.279 N 
HETATM   18  N   UNL     1       6.219   0.371   1.372  1.00  0.00    -0.303 N 
ATOM     19  HN  UNL     1       4.513   1.310   0.511  1.00  0.00     0.189 HD
HETATM   20  C   UNL     1       6.565  -0.873   1.627  1.00  0.00     0.160 A 
ATOM     21  HN  UNL     1       6.804   1.182   1.574  1.00  0.00     0.186 HD
HETATM   22  S   UNL     1       5.373  -2.045   1.235  1.00  0.00    -0.046 SA
ENDBRANCH   4  16
TORSDOF 2
