REMARK  6 active torsions:
REMARK  status: ('A' for Active; 'I' for Inactive)
REMARK    1  A    between atoms: C_2  and  C_4 
REMARK    2  A    between atoms: C_4  and  N_5 
REMARK    3  A    between atoms: C_4  and  C_13 
REMARK       I    between atoms: C_13  and  N_15 
REMARK    4  A    between atoms: N_15  and  C_16 
REMARK    5  A    between atoms: C_16  and  C_17 
REMARK    6  A    between atoms: C_17  and  C_18 
ROOT
HETATM    1  C   UNL     1       4.611   0.076  -1.270  1.00  0.00     0.251 C 
HETATM    2  O   UNL     1       5.211   0.566  -0.315  1.00  0.00    -0.271 OA
HETATM    3  N   UNL     1       5.284  -0.367  -2.398  1.00  0.00    -0.359 N 
HETATM    4  H   UNL     1       4.767  -0.654  -3.212  1.00  0.00     0.162 HD
ENDROOT
BRANCH   1   5
HETATM    5  C   UNL     1       3.041  -0.066  -1.332  1.00  0.00     0.317 C 
BRANCH   5   6
HETATM    6  C   UNL     1       2.587  -0.479   0.127  1.00  0.00     0.020 C 
HETATM    7  C   UNL     1       1.096  -0.781   0.325  1.00  0.00     0.012 C 
HETATM    8  C   UNL     1       3.321  -1.759   0.600  1.00  0.00     0.012 C 
ENDBRANCH   5   6
BRANCH   5   9
HETATM    9  N   UNL     1       2.497   1.220  -1.904  1.00  0.00     0.107 N 
HETATM   10  C   UNL     1       1.040   1.278  -2.160  1.00  0.00     0.305 C 
HETATM   11  C   UNL     1       0.554   0.413  -3.348  1.00  0.00     0.146 C 
HETATM   12  C   UNL     1      -0.927   0.652  -3.617  1.00  0.00     0.041 C 
HETATM   13  O   UNL     1       1.265   0.737  -4.558  1.00  0.00    -0.378 OA
HETATM   14  C   UNL     1       2.681   0.637  -4.353  1.00  0.00     0.146 C 
HETATM   15  C   UNL     1       3.399   0.945  -5.657  1.00  0.00     0.041 C 
HETATM   16  C   UNL     1       3.111   1.593  -3.215  1.00  0.00     0.305 C 
ENDBRANCH   5   9
ENDBRANCH   1   5
BRANCH   3  17
HETATM   17  C   UNL     1       6.716  -0.160  -2.554  1.00  0.00     0.128 C 
BRANCH  17  18
HETATM   18  C   UNL     1       7.522  -1.190  -1.773  1.00  0.00     0.076 C 
BRANCH  18  19
HETATM   19  C   UNL     1       9.000  -0.964  -1.919  1.00  0.00     0.010 A 
HETATM   20  C   UNL     1       9.779  -0.665  -0.804  1.00  0.00     0.025 A 
HETATM   21  C   UNL     1      11.150  -0.495  -0.968  1.00  0.00     0.003 A 
HETATM   22  C   UNL     1      11.707  -0.625  -2.234  1.00  0.00     0.017 A 
HETATM   23  C   UNL     1      10.861  -0.924  -3.292  1.00  0.00     0.088 A 
HETATM   24  N   UNL     1       9.528  -1.093  -3.164  1.00  0.00    -0.369 N 
ATOM     25  HN  UNL     1       8.941  -1.309  -3.970  1.00  0.00     0.165 HD
ENDBRANCH  18  19
ENDBRANCH  17  18
ENDBRANCH   3  17
TORSDOF 6
