REMARK  2 active torsions:
REMARK  status: ('A' for Active; 'I' for Inactive)
REMARK       I    between atoms: C_2  and  N_3 
REMARK       I    between atoms: C_2  and  N_11 
REMARK    1  A    between atoms: N_3  and  C_4 
REMARK    2  A    between atoms: N_11  and  C_12 
ROOT
HETATM    1  O   UNL     1       1.112   0.881  -0.148  1.00  0.00    -0.247 OA
HETATM    2  C   UNL     1       2.249   0.434  -0.090  1.00  0.00     0.321 C 
HETATM    3  N   UNL     1       2.866  -0.113  -1.195  1.00  0.00    -0.338 N 
HETATM    4  N   UNL     1       3.047   0.394   1.032  1.00  0.00    -0.308 N 
HETATM    5  H   UNL     1       3.854  -0.312  -1.169  1.00  0.00     0.164 HD
HETATM    6  H   UNL     1       4.032   0.227   0.889  1.00  0.00     0.170 HD
ENDROOT
BRANCH   3   7
HETATM    7  C   UNL     1       2.186  -0.098  -2.491  1.00  0.00     0.086 C 
HETATM    8  C   UNL     1       2.648  -1.289  -3.337  1.00  0.00     0.025 C 
HETATM    9  C   UNL     1       1.684  -1.595  -4.481  1.00  0.00     0.002 C 
HETATM   10  C   UNL     1       1.929  -0.814  -5.768  1.00  0.00     0.000 C 
HETATM   11  C   UNL     1       2.358   0.643  -5.632  1.00  0.00     0.000 C 
HETATM   12  C   UNL     1       1.671   1.421  -4.515  1.00  0.00     0.002 C 
HETATM   13  C   UNL     1       2.374   1.268  -3.166  1.00  0.00     0.025 C 
ENDBRANCH   3   7
BRANCH   4  14
HETATM   14  C   UNL     1       2.637   0.797   2.326  1.00  0.00     0.051 A 
HETATM   15  C   UNL     1       1.304   0.973   2.695  1.00  0.00     0.032 A 
HETATM   16  C   UNL     1       0.984   1.416   3.976  1.00  0.00     0.019 A 
HETATM   17  C   UNL     1       2.016   1.657   4.864  1.00  0.00     0.088 A 
HETATM   18  N   UNL     1       3.319   1.466   4.566  1.00  0.00    -0.373 N 
HETATM   19  C   UNL     1       3.595   1.036   3.309  1.00  0.00     0.117 A 
ATOM     20  HN  UNL     1       4.057   1.636   5.250  1.00  0.00     0.164 HD
ENDBRANCH   4  14
TORSDOF 2
