REMARK  5 active torsions:
REMARK  status: ('A' for Active; 'I' for Inactive)
REMARK    1  A    between atoms: C_5  and  N_6 
REMARK       I    between atoms: N_6  and  C_7 
REMARK       I    between atoms: C_7  and  N_9 
REMARK    2  A    between atoms: N_9  and  C_10 
REMARK    3  A    between atoms: C_10  and  C_12 
REMARK    4  A    between atoms: C_10  and  C_14 
REMARK    5  A    between atoms: C_12  and  O_13 
ROOT
HETATM    1  N   UNL     1       5.586  -1.705  -0.456  1.00  0.00    -0.294 N 
HETATM    2  C   UNL     1       5.467  -3.040  -0.772  1.00  0.00     0.322 C 
HETATM    3  O   UNL     1       4.970  -3.504  -1.788  1.00  0.00    -0.247 OA
HETATM    4  N   UNL     1       5.987  -3.850   0.213  1.00  0.00    -0.331 N 
HETATM    5  H   UNL     1       6.218  -1.426   0.273  1.00  0.00     0.172 HD
HETATM    6  H   UNL     1       6.060  -3.428   1.125  1.00  0.00     0.165 HD
ENDROOT
BRANCH   4   7
HETATM    7  C   UNL     1       6.132  -5.331   0.164  1.00  0.00     0.055 C 
HETATM    8  C   UNL     1       5.572  -5.860   1.512  1.00  0.00     0.041 C 
BRANCH   7   9
HETATM    9  C   UNL     1       5.280  -6.033  -0.949  1.00  0.00     0.195 C 
BRANCH   9  10
HETATM   10  O   UNL     1       3.883  -5.784  -0.774  1.00  0.00    -0.398 OA
HETATM   11  H   UNL     1       3.770  -4.848  -1.048  1.00  0.00     0.209 HD
ENDBRANCH   9  10
ENDBRANCH   7   9
BRANCH   7  12
HETATM   12  C   UNL     1       7.649  -5.767   0.016  1.00  0.00     0.015 C 
HETATM   13  C   UNL     1       8.591  -5.339   1.161  1.00  0.00     0.007 C 
HETATM   14  C   UNL     1       8.980  -3.867   1.120  1.00  0.00     0.000 C 
HETATM   15  C   UNL     1       9.592  -3.472  -0.219  1.00  0.00     0.000 C 
HETATM   16  C   UNL     1       8.820  -3.972  -1.437  1.00  0.00     0.000 C 
HETATM   17  C   UNL     1       8.340  -5.417  -1.319  1.00  0.00     0.007 C 
ENDBRANCH   7  12
ENDBRANCH   4   7
BRANCH   1  18
HETATM   18  C   UNL     1       5.052  -0.699  -1.242  1.00  0.00     0.125 A 
HETATM   19  C   UNL     1       5.270   0.691  -1.067  1.00  0.00     0.069 A 
HETATM   20  C   UNL     1       4.564   1.305  -2.076  1.00  0.00     0.113 A 
HETATM   21  N   UNL     1       3.981   0.293  -2.782  1.00  0.00    -0.306 N 
HETATM   22  C   UNL     1       3.168   0.376  -3.966  1.00  0.00     0.177 C 
HETATM   23  N   UNL     1       4.237  -0.913  -2.272  1.00  0.00    -0.284 N 
ATOM     24  HN  UNL     1       3.882  -1.811  -2.602  1.00  0.00     0.188 HD
ENDBRANCH   1  18
TORSDOF 5
