REMARK  6 active torsions:
REMARK  status: ('A' for Active; 'I' for Inactive)
REMARK    1  A    between atoms: O_1  and  C_2 
REMARK    2  A    between atoms: C_2  and  C_3 
REMARK    3  A    between atoms: N_12  and  C_13 
REMARK    4  A    between atoms: C_13  and  C_14 
REMARK    5  A    between atoms: C_14  and  O_15 
REMARK    6  A    between atoms: C_14  and  C_16 
ROOT
HETATM    1  C   UNL     1       2.858   1.552   0.095  1.00  0.00     0.108 A 
HETATM    2  N   UNL     1       2.074   2.608  -0.043  1.00  0.00    -0.342 N 
ATOM      3  HN  UNL     1       1.068   2.608  -0.214  1.00  0.00     0.167 HD
HETATM    4  C   UNL     1       2.888   3.701   0.090  1.00  0.00     0.060 A 
HETATM    5  C   UNL     1       2.555   5.064   0.048  1.00  0.00     0.032 A 
HETATM    6  C   UNL     1       3.566   6.015   0.229  1.00  0.00     0.002 A 
HETATM    7  C   UNL     1       4.884   5.615   0.449  1.00  0.00     0.002 A 
HETATM    8  C   UNL     1       5.234   4.260   0.502  1.00  0.00     0.032 A 
HETATM    9  C   UNL     1       4.207   3.323   0.315  1.00  0.00     0.062 A 
HETATM   10  N   UNL     1       4.167   1.943   0.305  1.00  0.00    -0.330 N 
ENDROOT
BRANCH  10  11
HETATM   11  C   UNL     1       5.284   1.061   0.613  1.00  0.00     0.167 C 
BRANCH  11  12
HETATM   12  C   UNL     1       6.065   0.576  -0.622  1.00  0.00     0.172 C 
BRANCH  12  13
HETATM   13  O   UNL     1       6.706   1.680  -1.275  1.00  0.00    -0.389 OA
HETATM   14  H   UNL     1       7.258   2.136  -0.622  1.00  0.00     0.210 HD
ENDBRANCH  12  13
BRANCH  12  15
HETATM   15  C   UNL     1       7.134  -0.478  -0.386  1.00  0.00     0.011 A 
HETATM   16  C   UNL     1       7.845  -0.968  -1.499  1.00  0.00     0.013 A 
HETATM   17  C   UNL     1       8.836  -1.944  -1.357  1.00  0.00     0.001 A 
HETATM   18  C   UNL     1       9.135  -2.454  -0.096  1.00  0.00     0.003 A 
HETATM   19  C   UNL     1       8.444  -1.987   1.017  1.00  0.00     0.043 A 
HETATM   20  C   UNL     1       7.458  -1.011   0.867  1.00  0.00     0.125 A 
HETATM   21  F   UNL     1       6.833  -0.594   1.977  1.00  0.00    -0.205 F 
ENDBRANCH  12  15
ENDBRANCH  11  12
ENDBRANCH  10  11
BRANCH   1  22
HETATM   22  C   UNL     1       2.386   0.140   0.092  1.00  0.00     0.240 C 
BRANCH  22  23
HETATM   23  O   UNL     1       3.154  -0.594  -0.853  1.00  0.00    -0.393 OA
HETATM   24  H   UNL     1       2.708  -1.451  -0.964  1.00  0.00     0.209 HD
ENDBRANCH  22  23
ENDBRANCH   1  22
TORSDOF 6
