REMARK  7 active torsions:
REMARK  status: ('A' for Active; 'I' for Inactive)
REMARK    1  A    between atoms: C_2  and  C_4 
REMARK    2  A    between atoms: C_4  and  C_5 
REMARK       I    between atoms: C_5  and  N_7 
REMARK    3  A    between atoms: N_7  and  CA_8 
REMARK    4  A    between atoms: CA_8  and  CB_9 
REMARK    5  A    between atoms: CA_8  and  C_16 
REMARK    6  A    between atoms: CB_9  and  CG_10 
REMARK    7  A    between atoms: C_16  and  OXT_18 
ROOT
ATOM      1  CA  HIS A   1       6.730   1.281  -2.289  1.00  0.00     0.188 C 
ENDROOT
BRANCH   1   2
ATOM      2  N   HIS A   1       5.263   1.259  -2.280  1.00  0.00    -0.346 N 
HETATM    3  C   UNK A   0       4.531   1.169  -1.127  1.00  0.00     0.218 C 
HETATM    4  O   UNK A   0       5.046   1.123  -0.014  1.00  0.00    -0.274 OA
ATOM      5  H   HIS A   1       4.804   1.420  -3.173  1.00  0.00     0.163 HD
BRANCH   3   6
HETATM    6  C   UNK A   0       3.031   1.096  -1.337  1.00  0.00     0.106 C 
BRANCH   6   7
HETATM    7  C   UNK A   0       2.603  -0.191  -2.059  1.00  0.00    -0.014 C 
HETATM    8  C   UNK A   0       2.951  -1.434  -1.236  1.00  0.00     0.010 C 
HETATM    9  C   UNK A   0       1.102  -0.172  -2.349  1.00  0.00     0.010 C 
ENDBRANCH   6   7
ENDBRANCH   3   6
ENDBRANCH   1   2
BRANCH   1  10
ATOM     10  CB  HIS A   1       7.336  -0.117  -2.130  1.00  0.00     0.094 C 
BRANCH  10  11
ATOM     11  CG  HIS A   1       7.076  -1.030  -3.277  1.00  0.00     0.028 A 
ATOM     12  CD2 HIS A   1       6.062  -1.945  -3.461  1.00  0.00     0.114 A 
ATOM     13  NE2 HIS A   1       6.312  -2.527  -4.672  1.00  0.00    -0.360 N 
ATOM     14  CE1 HIS A   1       7.453  -1.964  -5.165  1.00  0.00     0.180 A 
ATOM     15  HE2 HIS A   1       5.764  -3.252  -5.116  1.00  0.00     0.166 HD
ATOM     16  ND1 HIS A   1       7.937  -1.058  -4.346  1.00  0.00    -0.354 N 
ATOM     17  HD1 HIS A   1       8.777  -0.494  -4.477  1.00  0.00     0.166 HD
ENDBRANCH  10  11
ENDBRANCH   1  10
BRANCH   1  18
ATOM     18  C   HIS A   1       7.191   2.006  -3.560  1.00  0.00     0.163 C 
ATOM     19  O   HIS A   1       6.410   2.444  -4.401  1.00  0.00    -0.648 OA
BRANCH  18  20
ATOM     20  OXT HIS A   1       8.521   2.235  -3.643  1.00  0.00    -0.775 OA
ATOM     21  HXT HIS A   1       9.059   1.801  -2.956  1.00  0.00     0.167 HD
ENDBRANCH  18  20
ENDBRANCH   1  18
TORSDOF 7
