REMARK  5 active torsions:
REMARK  status: ('A' for Active; 'I' for Inactive)
REMARK    1  A    between atoms: C_5  and  C_6 
REMARK    2  A    between atoms: C_6  and  N_7 
REMARK    3  A    between atoms: N_7  and  C_8 
REMARK    4  A    between atoms: C_8  and  C_9 
REMARK    5  A    between atoms: C_9  and  C_10 
ROOT
HETATM    1  N   UNL     1       5.146   0.173  -3.832  1.00  0.00     0.084 N 
HETATM    2  H   UNL     1       4.872   1.122  -3.577  1.00  0.00     0.315 HD
ENDROOT
BRANCH   1   3
HETATM    3  C   UNL     1       4.582  -0.767  -2.864  1.00  0.00     0.274 C 
BRANCH   3   4
HETATM    4  C   UNL     1       3.042  -0.742  -2.851  1.00  0.00     0.014 C 
HETATM    5  C   UNL     1       2.519  -1.769  -1.829  1.00  0.00     0.007 C 
HETATM    6  C   UNL     1       2.716  -3.219  -2.286  1.00  0.00     0.005 C 
HETATM    7  C   UNL     1       2.137  -3.490  -3.682  1.00  0.00    -0.019 C 
HETATM    8  C   UNL     1       0.607  -3.545  -3.640  1.00  0.00     0.010 C 
HETATM    9  C   UNL     1       2.631  -2.456  -4.703  1.00  0.00     0.005 C 
HETATM   10  C   UNL     1       2.427  -1.014  -4.236  1.00  0.00     0.007 C 
ENDBRANCH   3   4
ENDBRANCH   1   3
BRANCH   1  11
HETATM   11  C   UNL     1       6.611   0.092  -3.884  1.00  0.00     0.274 C 
BRANCH  11  12
HETATM   12  C   UNL     1       7.133  -1.274  -4.363  1.00  0.00     0.072 C 
BRANCH  12  13
HETATM   13  C   UNL     1       8.617  -1.335  -4.386  1.00  0.00    -0.016 A 
HETATM   14  C   UNL     1       9.469  -1.690  -3.320  1.00  0.00     0.116 A 
HETATM   15  N   UNL     1      10.755  -1.667  -3.665  1.00  0.00    -0.309 N 
HETATM   16  N   UNL     1      10.732  -1.314  -4.964  1.00  0.00    -0.301 N 
ATOM     17  HN  UNL     1      11.567  -1.869  -3.082  1.00  0.00     0.186 HD
HETATM   18  C   UNL     1      11.978  -1.234  -5.690  1.00  0.00     0.177 C 
HETATM   19  C   UNL     1       9.468  -1.081  -5.445  1.00  0.00     0.032 A 
HETATM   20  C   UNL     1       9.162  -0.678  -6.840  1.00  0.00     0.070 C 
ENDBRANCH  12  13
ENDBRANCH  11  12
ENDBRANCH   1  11
TORSDOF 5
