REMARK  5 active torsions:
REMARK  status: ('A' for Active; 'I' for Inactive)
REMARK    1  A    between atoms: C_8  and  N_9 
REMARK       I    between atoms: N_9  and  C_10 
REMARK       I    between atoms: C_10  and  N_12 
REMARK    2  A    between atoms: N_12  and  C_13 
REMARK    3  A    between atoms: C_13  and  C_14 
REMARK    4  A    between atoms: C_14  and  C_15 
REMARK    5  A    between atoms: C_15  and  N_16 
ROOT
HETATM    1  N   UNL     1       5.484   2.420  -0.057  1.00  0.00    -0.295 N 
HETATM    2  C   UNL     1       6.849   2.395   0.037  1.00  0.00     0.321 C 
HETATM    3  O   UNL     1       7.443   1.320   0.102  1.00  0.00    -0.247 OA
HETATM    4  N   UNL     1       7.480   3.600   0.061  1.00  0.00    -0.343 N 
HETATM    5  H   UNL     1       5.064   1.501  -0.063  1.00  0.00     0.172 HD
HETATM    6  H   UNL     1       6.862   4.404  -0.038  1.00  0.00     0.164 HD
ENDROOT
BRANCH   1   7
HETATM    7  C   UNL     1       4.645   3.536  -0.148  1.00  0.00     0.109 A 
HETATM    8  N   UNL     1       5.203   4.763  -0.154  1.00  0.00    -0.346 N 
HETATM    9  C   UNL     1       4.400   5.843  -0.248  1.00  0.00     0.007 A 
ATOM     10  HN  UNL     1       6.215   4.873  -0.089  1.00  0.00     0.167 HD
HETATM   11  C   UNL     1       3.026   5.749  -0.329  1.00  0.00     0.031 A 
HETATM   12  C   UNL     1       5.090   7.166  -0.242  1.00  0.00     0.068 C 
HETATM   13  C   UNL     1       2.441   4.484  -0.319  1.00  0.00    -0.057 A 
HETATM   14  C   UNL     1       0.951   4.350  -0.404  1.00  0.00     0.048 C 
HETATM   15  C   UNL     1       3.269   3.358  -0.231  1.00  0.00     0.055 A 
ENDBRANCH   1   7
BRANCH   4  16
HETATM   16  C   UNL     1       8.907   3.786   0.135  1.00  0.00     0.126 C 
BRANCH  16  17
HETATM   17  C   UNL     1       9.319   5.260   0.066  1.00  0.00     0.039 C 
BRANCH  17  18
HETATM   18  C   UNL     1       8.800   6.099   1.243  1.00  0.00     0.127 C 
BRANCH  18  19
HETATM   19  N   UNL     1       9.293   7.473   1.197  1.00  0.00    -0.352 N 
HETATM   20  C   UNL     1      10.575   7.841   1.735  1.00  0.00     0.126 C 
HETATM   21  C   UNL     1      10.753   9.312   1.404  1.00  0.00     0.029 C 
HETATM   22  C   UNL     1       9.627   9.669   0.448  1.00  0.00     0.104 C 
HETATM   23  C   UNL     1       8.683   8.510   0.515  1.00  0.00     0.219 C 
HETATM   24  O   UNL     1       7.581   8.506  -0.008  1.00  0.00    -0.273 OA
ENDBRANCH  18  19
ENDBRANCH  17  18
ENDBRANCH  16  17
ENDBRANCH   4  16
TORSDOF 5
