REMARK  5 active torsions:
REMARK  status: ('A' for Active; 'I' for Inactive)
REMARK    1  A    between atoms: C_2  and  C_4 
REMARK    2  A    between atoms: C_7  and  C_8 
REMARK    3  A    between atoms: C_8  and  C_9 
REMARK       I    between atoms: C_9  and  N_11 
REMARK    4  A    between atoms: N_11  and  C_12 
REMARK    5  A    between atoms: C_12  and  C_13 
ROOT
HETATM    1  C   UNL     1       4.350  -3.074  -3.474  1.00  0.00     0.160 C 
ENDROOT
BRANCH   1   2
HETATM    2  C   UNL     1       3.699  -2.764  -2.166  1.00  0.00     0.025 A 
HETATM    3  N   UNL     1       2.348  -3.051  -1.989  1.00  0.00    -0.356 N 
HETATM    4  C   UNL     1       1.948  -2.639  -0.802  1.00  0.00     0.054 A 
ATOM      5  HN  UNL     1       1.754  -3.513  -2.678  1.00  0.00     0.166 HD
HETATM    6  S   UNL     1       3.166  -1.915   0.173  1.00  0.00    -0.086 SA
HETATM    7  C   UNL     1       4.302  -2.156  -1.081  1.00  0.00     0.077 A 
BRANCH   4   8
HETATM    8  C   UNL     1       0.544  -2.782  -0.270  1.00  0.00     0.035 C 
HETATM    9  C   UNL     1      -0.457  -2.056  -1.169  1.00  0.00     0.016 C 
HETATM   10  C   UNL     1       0.177  -4.258  -0.142  1.00  0.00     0.016 C 
ENDBRANCH   4   8
ENDBRANCH   1   2
BRANCH   1  11
HETATM   11  C   UNL     1       4.438  -4.549  -3.805  1.00  0.00     0.223 C 
HETATM   12  O   UNL     1       5.416  -5.006  -4.402  1.00  0.00    -0.273 OA
HETATM   13  N   UNL     1       3.343  -5.329  -3.497  1.00  0.00    -0.360 N 
HETATM   14  H   UNL     1       2.576  -4.895  -2.984  1.00  0.00     0.162 HD
BRANCH  13  15
HETATM   15  C   UNL     1       3.340  -6.737  -3.824  1.00  0.00     0.129 C 
BRANCH  15  16
HETATM   16  C   UNL     1       2.125  -7.499  -3.316  1.00  0.00     0.029 C 
HETATM   17  C   UNL     1       1.982  -7.537  -1.806  1.00  0.00     0.034 C 
HETATM   18  C   UNL     1       1.366  -8.895  -1.517  1.00  0.00     0.168 C 
HETATM   19  O   UNL     1       1.350  -9.639  -2.741  1.00  0.00    -0.391 OA
HETATM   20  C   UNL     1       2.216  -8.974  -3.663  1.00  0.00     0.173 C 
ENDBRANCH  15  16
ENDBRANCH  13  15
ENDBRANCH   1  11
TORSDOF 5
