REMARK  8 active torsions:
REMARK  status: ('A' for Active; 'I' for Inactive)
REMARK    1  A    between atoms: N_1  and  C_12 
REMARK    2  A    between atoms: N_3  and  C_8 
REMARK    3  A    between atoms: N_5  and  C_20 
REMARK    4  A    between atoms: C_16  and  C_20 
REMARK    5  A    between atoms: C_19  and  C_28 
REMARK    6  A    between atoms: C_19  and  C_29 
REMARK    7  A    between atoms: C_28  and  O_30 
REMARK    8  A    between atoms: C_29  and  O_31 
ROOT
HETATM    1  N   UNL     1       1.584   1.111  -0.038  1.00  0.00    -0.322 N 
HETATM    2  C   UNL     1       0.373  -0.700  -0.100  1.00  0.00     0.122 A 
HETATM    3  C   UNL     1       0.274   0.690  -0.055  1.00  0.00     0.140 A 
HETATM    4  N   UNL     1       1.694  -1.110  -0.130  1.00  0.00    -0.346 N 
ATOM      5  HN  UNL     1       2.049  -2.065  -0.184  1.00  0.00     0.167 HD
HETATM    6  C   UNL     1      -0.819  -1.464  -0.096  1.00  0.00     0.137 A 
HETATM    7  C   UNL     1       2.386  -0.002  -0.073  1.00  0.00     0.185 A 
HETATM    8  N   UNL     1      -0.862   1.406  -0.019  1.00  0.00    -0.336 N 
ATOM      9  HN  UNL     1      -0.905   2.425   0.009  1.00  0.00     0.168 HD
HETATM   10  N   UNL     1      -1.986  -0.767  -0.057  1.00  0.00    -0.337 N 
ATOM     11  HN  UNL     1      -2.881  -1.256  -0.052  1.00  0.00     0.168 HD
HETATM   12  C   UNL     1      -1.942   0.590  -0.025  1.00  0.00     0.183 A 
ENDROOT
BRANCH   6  13
HETATM   13  N   UNL     1      -0.824  -2.839  -0.086  1.00  0.00    -0.340 N 
HETATM   14  C   UNL     1       0.334  -3.606  -0.486  1.00  0.00     0.254 C 
HETATM   15  N   UNL     1      -0.128  -4.959  -0.364  1.00  0.00    -0.326 N 
HETATM   16  C   UNL     1      -1.511  -5.042  -0.312  1.00  0.00     0.239 C 
HETATM   17  C   UNL     1      -2.047  -3.618  -0.216  1.00  0.00     0.229 C 
HETATM   18  O   UNL     1      -2.163  -6.075  -0.358  1.00  0.00    -0.271 OA
BRANCH  15  19
HETATM   19  C   UNL     1       0.726  -6.099  -0.686  1.00  0.00     0.245 C 
BRANCH  19  20
HETATM   20  C   UNL     1       0.714  -6.556  -2.149  1.00  0.00     0.403 C 
HETATM   21  F   UNL     1      -0.072  -5.783  -2.931  1.00  0.00    -0.169 F 
HETATM   22  F   UNL     1       1.966  -6.497  -2.668  1.00  0.00    -0.169 F 
HETATM   23  F   UNL     1       0.294  -7.835  -2.268  1.00  0.00    -0.169 F 
ENDBRANCH  19  20
ENDBRANCH  15  19
ENDBRANCH   6  13
BRANCH   1  24
HETATM   24  C   UNL     1       2.190   2.409   0.037  1.00  0.00     0.094 C 
HETATM   25  C   UNL     1       1.720   3.325   1.199  1.00  0.00     0.039 C 
HETATM   26  C   UNL     1       2.069   4.536   0.253  1.00  0.00     0.006 C 
HETATM   27  C   UNL     1       1.653   3.533  -0.893  1.00  0.00     0.039 C 
BRANCH  26  28
HETATM   28  C   UNL     1       1.170   5.763   0.382  1.00  0.00     0.175 C 
BRANCH  28  29
HETATM   29  O   UNL     1       1.362   6.357   1.664  1.00  0.00    -0.400 OA
HETATM   30  H   UNL     1       0.867   5.814   2.306  1.00  0.00     0.209 HD
ENDBRANCH  28  29
ENDBRANCH  26  28
BRANCH  26  31
HETATM   31  C   UNL     1       3.553   4.960   0.210  1.00  0.00     0.175 C 
BRANCH  31  32
HETATM   32  O   UNL     1       3.989   5.344   1.508  1.00  0.00    -0.400 OA
HETATM   33  H   UNL     1       3.419   6.091   1.783  1.00  0.00     0.209 HD
ENDBRANCH  31  32
ENDBRANCH  26  31
ENDBRANCH   1  24
TORSDOF 8
