REMARK  7 active torsions:
REMARK  status: ('A' for Active; 'I' for Inactive)
REMARK    1  A    between atoms: C_2  and  N_3 
REMARK    2  A    between atoms: C_2  and  C_19 
REMARK    3  A    between atoms: C_7  and  C_8 
REMARK    4  A    between atoms: C_8  and  N_9 
REMARK    5  A    between atoms: N_9  and  C_10 
REMARK       I    between atoms: C_19  and  N_21 
REMARK    6  A    between atoms: N_21  and  C_22 
REMARK    7  A    between atoms: C_22  and  C_23 
ROOT
HETATM    1  N   UNL     1       2.773  -0.075  -1.178  1.00  0.00     0.106 N 
HETATM    2  C   UNL     1       1.991   0.700  -2.153  1.00  0.00     0.299 C 
HETATM    3  C   UNL     1       0.702   0.020  -2.637  1.00  0.00     0.198 C 
HETATM    4  O   UNL     1       0.938  -1.330  -3.062  1.00  0.00    -0.381 OA
HETATM    5  C   UNL     1       1.549  -2.089  -1.993  1.00  0.00     0.163 C 
HETATM    6  C   UNL     1       2.900  -1.474  -1.612  1.00  0.00     0.306 C 
ENDROOT
BRANCH   5   7
HETATM    7  C   UNL     1       1.679  -3.553  -2.429  1.00  0.00     0.127 C 
BRANCH   7   8
HETATM    8  N   UNL     1       0.317  -4.088  -2.496  1.00  0.00    -0.275 NA
HETATM    9  H   UNL     1      -0.267  -3.478  -3.068  1.00  0.00     0.129 HD
BRANCH   8  10
HETATM   10  C   UNL     1       0.205  -5.406  -2.949  1.00  0.00     0.094 A 
HETATM   11  C   UNL     1      -1.072  -5.938  -3.066  1.00  0.00     0.045 A 
HETATM   12  C   UNL     1      -1.230  -7.248  -3.498  1.00  0.00     0.022 A 
HETATM   13  C   UNL     1      -0.096  -7.971  -3.788  1.00  0.00     0.107 A 
HETATM   14  N   UNL     1       1.141  -7.457  -3.657  1.00  0.00    -0.311 N 
HETATM   15  N   UNL     1       1.286  -6.167  -3.224  1.00  0.00    -0.290 N 
ATOM     16  HN  UNL     1       1.961  -8.022  -3.878  1.00  0.00     0.186 HD
ATOM     17  HN  UNL     1       2.221  -5.776  -3.108  1.00  0.00     0.188 HD
ENDBRANCH   8  10
ENDBRANCH   7   8
ENDBRANCH   5   7
BRANCH   1  18
HETATM   18  C   UNL     1       2.479   0.133   0.260  1.00  0.00     0.310 C 
HETATM   19  C   UNL     1       1.107  -0.294   0.787  1.00  0.00     0.053 C 
BRANCH  18  20
HETATM   20  C   UNL     1       2.756   1.610   0.669  1.00  0.00     0.251 C 
HETATM   21  O   UNL     1       1.912   2.327   1.208  1.00  0.00    -0.271 OA
HETATM   22  N   UNL     1       4.009   2.128   0.444  1.00  0.00    -0.356 N 
HETATM   23  H   UNL     1       4.122   3.087   0.745  1.00  0.00     0.162 HD
BRANCH  22  24
HETATM   24  C   UNL     1       5.057   1.472  -0.297  1.00  0.00     0.149 C 
BRANCH  24  25
HETATM   25  C   UNL     1       6.274   2.333  -0.326  1.00  0.00    -0.018 C 
HETATM   26  C   UNL     1       7.454   1.944   0.162  1.00  0.00     0.008 C 
ENDBRANCH  24  25
ENDBRANCH  22  24
ENDBRANCH  18  20
ENDBRANCH   1  18
TORSDOF 7
