REMARK  5 active torsions:
REMARK  status: ('A' for Active; 'I' for Inactive)
REMARK       I    between atoms: N_1  and  C_2 
REMARK    1  A    between atoms: C_2  and  C_4 
REMARK    2  A    between atoms: C_4  and  C_5 
REMARK    3  A    between atoms: C_8  and  N_9 
REMARK       I    between atoms: N_9  and  C_10 
REMARK    4  A    between atoms: C_10  and  C_12 
REMARK    5  A    between atoms: C_12  and  C_13 
ROOT
HETATM    1  C   UNL     1       4.838  -0.291  -1.256  1.00  0.00     0.026 A 
HETATM    2  C   UNL     1       5.539   0.902  -1.312  1.00  0.00     0.078 A 
HETATM    3  S   UNL     1       7.202   0.622  -0.959  1.00  0.00    -0.064 SA
HETATM    4  C   UNL     1       6.872  -1.043  -0.851  1.00  0.00     0.151 A 
HETATM    5  N   UNL     1       5.621  -1.395  -0.972  1.00  0.00    -0.339 N 
ATOM      6  HN  UNL     1       5.271  -2.348  -0.871  1.00  0.00     0.168 HD
ENDROOT
BRANCH   4   7
HETATM    7  N   UNL     1       7.950  -1.853  -0.646  1.00  0.00    -0.307 N 
HETATM    8  C   UNL     1       7.842  -3.219  -0.799  1.00  0.00     0.224 C 
HETATM    9  O   UNL     1       6.862  -3.821  -1.235  1.00  0.00    -0.273 OA
HETATM   10  H   UNL     1       8.837  -1.415  -0.447  1.00  0.00     0.171 HD
BRANCH   8  11
HETATM   11  C   UNL     1       9.096  -3.978  -0.418  1.00  0.00     0.111 C 
BRANCH  11  12
HETATM   12  C   UNL     1       9.406  -4.030   1.079  1.00  0.00     0.017 A 
HETATM   13  C   UNL     1       8.202  -4.402   1.963  1.00  0.00     0.012 A 
HETATM   14  C   UNL     1       8.008  -3.264   2.967  1.00  0.00     0.027 A 
HETATM   15  C   UNL     1       9.168  -2.363   2.722  1.00  0.00    -0.030 A 
HETATM   16  C   UNL     1       9.915  -2.758   1.686  1.00  0.00    -0.026 A 
ENDBRANCH  11  12
ENDBRANCH   8  11
ENDBRANCH   4   7
BRANCH   1  17
HETATM   17  C   UNL     1       3.371  -0.502  -1.447  1.00  0.00     0.160 C 
BRANCH  17  18
HETATM   18  C   UNL     1       3.033  -1.475  -2.565  1.00  0.00     0.221 C 
HETATM   19  N   UNL     1       3.832  -2.570  -2.707  1.00  0.00    -0.370 N 
HETATM   20  H   UNL     1       3.647  -3.238  -3.440  1.00  0.00     0.159 HD
HETATM   21  H   UNL     1       4.686  -2.679  -2.153  1.00  0.00     0.159 HD
HETATM   22  O   UNL     1       2.034  -1.341  -3.270  1.00  0.00    -0.273 OA
ENDBRANCH  17  18
ENDBRANCH   1  17
TORSDOF 5
