REMARK  4 active torsions:
REMARK  status: ('A' for Active; 'I' for Inactive)
REMARK    1  A    between atoms: C_4  and  N_5 
REMARK       I    between atoms: N_5  and  C_6 
REMARK       I    between atoms: C_6  and  N_8 
REMARK    2  A    between atoms: N_8  and  C_9 
REMARK    3  A    between atoms: C_9  and  C_10 
REMARK    4  A    between atoms: C_10  and  O_11 
ROOT
HETATM    1  N   UNL     1       4.913   2.598  -0.589  1.00  0.00    -0.309 N 
HETATM    2  C   UNL     1       4.288   3.816  -0.464  1.00  0.00     0.320 C 
HETATM    3  O   UNL     1       3.119   4.007  -0.137  1.00  0.00    -0.247 OA
HETATM    4  N   UNL     1       5.110   4.874  -0.775  1.00  0.00    -0.340 N 
HETATM    5  H   UNL     1       5.840   2.611  -0.987  1.00  0.00     0.170 HD
HETATM    6  H   UNL     1       6.097   4.776  -0.577  1.00  0.00     0.164 HD
ENDROOT
BRANCH   1   7
HETATM    7  C   UNL     1       4.311   1.337  -0.374  1.00  0.00     0.039 A 
HETATM    8  C   UNL     1       3.008   1.189   0.096  1.00  0.00     0.054 A 
HETATM    9  C   UNL     1       2.463  -0.083   0.233  1.00  0.00     0.007 A 
HETATM   10  C   UNL     1       1.032  -0.238   0.657  1.00  0.00     0.068 C 
HETATM   11  N   UNL     1       3.161  -1.205  -0.049  1.00  0.00    -0.369 N 
HETATM   12  C   UNL     1       4.431  -1.044  -0.481  1.00  0.00     0.090 A 
ATOM     13  HN  UNL     1       2.748  -2.131   0.059  1.00  0.00     0.165 HD
HETATM   14  C   UNL     1       5.044   0.188  -0.660  1.00  0.00     0.046 A 
ENDBRANCH   1   7
BRANCH   4  15
HETATM   15  C   UNL     1       4.543   6.202  -0.615  1.00  0.00     0.162 C 
BRANCH  15  16
HETATM   16  C   UNL     1       5.498   7.325  -1.015  1.00  0.00     0.074 C 
HETATM   17  C   UNL     1       4.863   8.707  -0.796  1.00  0.00     0.039 C 
HETATM   18  C   UNL     1       5.394   9.602  -1.918  1.00  0.00     0.003 C 
HETATM   19  C   UNL     1       6.346   8.742  -2.738  1.00  0.00     0.003 C 
HETATM   20  C   UNL     1       5.873   7.316  -2.495  1.00  0.00     0.039 C 
BRANCH  16  21
HETATM   21  O   UNL     1       6.701   7.216  -0.239  1.00  0.00    -0.388 OA
HETATM   22  H   UNL     1       6.444   7.136   0.697  1.00  0.00     0.210 HD
ENDBRANCH  16  21
ENDBRANCH  15  16
ENDBRANCH   4  15
TORSDOF 4
