REMARK  5 active torsions:
REMARK  status: ('A' for Active; 'I' for Inactive)
REMARK    1  A    between atoms: C_2  and  C_5 
REMARK    2  A    between atoms: N_8  and  C_9 
REMARK    3  A    between atoms: C_9  and  C_10 
REMARK       I    between atoms: C_10  and  N_12 
REMARK    4  A    between atoms: N_12  and  C_13 
REMARK    5  A    between atoms: C_13  and  C_14 
ROOT
HETATM    1  C   UNL     1       5.119  -5.781  -1.921  1.00  0.00     0.133 A 
HETATM    2  C   UNL     1       4.709  -4.622  -2.634  1.00  0.00     0.054 A 
HETATM    3  C   UNL     1       3.533  -4.226  -2.043  1.00  0.00     0.113 A 
HETATM    4  N   UNL     1       3.278  -5.133  -1.054  1.00  0.00    -0.294 N 
HETATM    5  N   UNL     1       4.225  -6.089  -0.959  1.00  0.00    -0.294 N 
ATOM      6  HN  UNL     1       4.258  -6.871  -0.305  1.00  0.00     0.187 HD
ENDROOT
BRANCH   4   7
HETATM    7  C   UNL     1       2.217  -5.085  -0.067  1.00  0.00     0.250 C 
BRANCH   7   8
HETATM    8  C   UNL     1       0.845  -5.090  -0.693  1.00  0.00     0.237 C 
HETATM    9  O   UNL     1       0.311  -4.042  -1.059  1.00  0.00    -0.272 OA
HETATM   10  N   UNL     1       0.216  -6.319  -0.811  1.00  0.00    -0.359 N 
HETATM   11  H   UNL     1       0.758  -7.171  -0.711  1.00  0.00     0.162 HD
BRANCH  10  12
HETATM   12  C   UNL     1      -1.090  -6.361  -1.427  1.00  0.00     0.127 C 
BRANCH  12  13
HETATM   13  C   UNL     1      -1.701  -7.709  -1.639  1.00  0.00     0.003 A 
HETATM   14  C   UNL     1      -1.997  -8.636  -0.487  1.00  0.00     0.007 A 
HETATM   15  C   UNL     1      -0.998  -9.041  -1.538  1.00  0.00     0.007 A 
ENDBRANCH  12  13
ENDBRANCH  10  12
ENDBRANCH   7   8
ENDBRANCH   4   7
BRANCH   1  16
HETATM   16  C   UNL     1       6.372  -6.585  -2.155  1.00  0.00     0.433 C 
HETATM   17  F   UNL     1       7.093  -6.108  -3.209  1.00  0.00    -0.165 F 
HETATM   18  F   UNL     1       6.109  -7.890  -2.433  1.00  0.00    -0.165 F 
HETATM   19  F   UNL     1       7.209  -6.568  -1.082  1.00  0.00    -0.165 F 
ENDBRANCH   1  16
TORSDOF 5
