REMARK  5 active torsions:
REMARK  status: ('A' for Active; 'I' for Inactive)
REMARK    1  A    between atoms: N_4  and  C_5 
REMARK    2  A    between atoms: C_5  and  C_6 
REMARK    3  A    between atoms: C_6  and  C_7 
REMARK    4  A    between atoms: C_7  and  N_8 
REMARK       I    between atoms: N_8  and  C_9 
REMARK       I    between atoms: C_9  and  N_11 
REMARK    5  A    between atoms: N_11  and  C_12 
ROOT
HETATM    1  N   UNL     1       2.896   3.858  -5.467  1.00  0.00    -0.343 N 
HETATM    2  C   UNL     1       3.280   4.610  -6.529  1.00  0.00     0.321 C 
HETATM    3  O   UNL     1       3.948   5.635  -6.430  1.00  0.00    -0.247 OA
HETATM    4  N   UNL     1       2.865   4.170  -7.756  1.00  0.00    -0.295 N 
HETATM    5  H   UNL     1       2.389   3.010  -5.711  1.00  0.00     0.164 HD
HETATM    6  H   UNL     1       3.153   4.774  -8.510  1.00  0.00     0.172 HD
ENDROOT
BRANCH   1   7
HETATM    7  C   UNL     1       3.208   4.140  -4.093  1.00  0.00     0.126 C 
BRANCH   7   8
HETATM    8  C   UNL     1       2.575   3.124  -3.142  1.00  0.00     0.050 C 
BRANCH   8   9
HETATM    9  C   UNL     1       3.122   1.700  -3.347  1.00  0.00     0.274 C 
BRANCH   9  10
HETATM   10  N   UNL     1       2.545   0.703  -2.425  1.00  0.00     0.093 N 
HETATM   11  C   UNL     1       2.875   0.989  -1.013  1.00  0.00     0.303 C 
HETATM   12  C   UNL     1       2.312  -0.083  -0.057  1.00  0.00     0.146 C 
HETATM   13  C   UNL     1       0.787  -0.049   0.036  1.00  0.00     0.041 C 
HETATM   14  O   UNL     1       2.792  -1.390  -0.408  1.00  0.00    -0.378 OA
HETATM   15  C   UNL     1       2.521  -1.726  -1.779  1.00  0.00     0.146 C 
HETATM   16  C   UNL     1       3.066  -0.649  -2.746  1.00  0.00     0.303 C 
HETATM   17  C   UNL     1       3.170  -3.080  -2.043  1.00  0.00     0.041 C 
ENDBRANCH   9  10
ENDBRANCH   8   9
ENDBRANCH   7   8
ENDBRANCH   1   7
BRANCH   4  18
HETATM   18  C   UNL     1       2.079   3.049  -8.056  1.00  0.00     0.108 A 
HETATM   19  C   UNL     1       1.712   2.836  -9.377  1.00  0.00     0.049 A 
HETATM   20  C   UNL     1       0.903   1.741  -9.681  1.00  0.00     0.005 A 
HETATM   21  C   UNL     1       0.489   0.889  -8.660  1.00  0.00     0.017 A 
HETATM   22  C   UNL     1       0.910   1.165  -7.376  1.00  0.00     0.089 A 
HETATM   23  N   UNL     1       1.694   2.217  -7.059  1.00  0.00    -0.352 N 
ATOM     24  HN  UNL     1       1.988   2.381  -6.096  1.00  0.00     0.166 HD
ENDBRANCH   4  18
TORSDOF 5
