REMARK  6 active torsions:
REMARK  status: ('A' for Active; 'I' for Inactive)
REMARK    1  A    between atoms: S_2  and  N_5 
REMARK    2  A    between atoms: N_5  and  C_6 
REMARK    3  A    between atoms: C_6  and  C_7 
REMARK       I    between atoms: N_12  and  C_13 
REMARK       I    between atoms: C_13  and  N_15 
REMARK    4  A    between atoms: N_15  and  C_16 
REMARK    5  A    between atoms: C_16  and  C_17 
REMARK    6  A    between atoms: C_17  and  C_18 
ROOT
HETATM    1  C   UNL     1       5.453  -2.155  -2.200  1.00  0.00     0.102 C 
HETATM    2  C   UNL     1       4.379  -3.145  -2.689  1.00  0.00     0.027 C 
HETATM    3  C   UNL     1       3.924  -4.113  -1.595  1.00  0.00     0.004 C 
HETATM    4  C   UNL     1       5.118  -4.817  -0.958  1.00  0.00     0.020 C 
HETATM    5  C   UNL     1       6.182  -3.827  -0.495  1.00  0.00     0.128 C 
HETATM    6  N   UNL     1       6.568  -2.912  -1.575  1.00  0.00    -0.328 N 
HETATM    7  C   UNL     1       7.921  -2.749  -1.824  1.00  0.00     0.318 C 
HETATM    8  O   UNL     1       8.787  -3.288  -1.138  1.00  0.00    -0.247 OA
HETATM    9  N   UNL     1       8.253  -1.940  -2.882  1.00  0.00    -0.343 N 
HETATM   10  H   UNL     1       7.615  -1.982  -3.659  1.00  0.00     0.164 HD
ENDROOT
BRANCH   1  11
HETATM   11  C   UNL     1       4.842  -1.096  -1.247  1.00  0.00     0.129 C 
BRANCH  11  12
HETATM   12  N   UNL     1       5.891  -0.156  -0.758  1.00  0.00    -0.218 NA
HETATM   13  H   UNL     1       6.653  -0.683  -0.322  1.00  0.00     0.139 HD
BRANCH  12  14
HETATM   14  S   UNL     1       5.273   1.021   0.291  1.00  0.00     0.205 S 
HETATM   15  C   UNL     1       6.738   1.920   0.746  1.00  0.00     0.179 C 
HETATM   16  O   UNL     1       4.792   0.315   1.457  1.00  0.00    -0.212 OA
HETATM   17  O   UNL     1       4.409   1.882  -0.483  1.00  0.00    -0.212 OA
ENDBRANCH  12  14
ENDBRANCH  11  12
ENDBRANCH   1  11
BRANCH   9  18
HETATM   18  C   UNL     1       9.664  -1.795  -3.231  1.00  0.00     0.130 C 
BRANCH  18  19
HETATM   19  C   UNL     1       9.896  -0.824  -4.386  1.00  0.00     0.076 C 
BRANCH  19  20
HETATM   20  C   UNL     1      11.364  -0.706  -4.713  1.00  0.00     0.010 A 
HETATM   21  C   UNL     1      11.951  -1.528  -5.674  1.00  0.00     0.025 A 
HETATM   22  C   UNL     1      13.316  -1.402  -5.926  1.00  0.00     0.003 A 
HETATM   23  C   UNL     1      14.058  -0.467  -5.215  1.00  0.00     0.017 A 
HETATM   24  C   UNL     1      13.399   0.307  -4.277  1.00  0.00     0.088 A 
HETATM   25  N   UNL     1      12.077   0.208  -4.011  1.00  0.00    -0.369 N 
ATOM     26  HN  UNL     1      11.633   0.799  -3.308  1.00  0.00     0.165 HD
ENDBRANCH  19  20
ENDBRANCH  18  19
ENDBRANCH   9  18
TORSDOF 6
