REMARK  6 active torsions:
REMARK  status: ('A' for Active; 'I' for Inactive)
REMARK    1  A    between atoms: C_2  and  C_3 
REMARK    2  A    between atoms: C_2  and  N_17 
REMARK       I    between atoms: C_3  and  N_5 
REMARK    3  A    between atoms: N_5  and  C_6 
REMARK    4  A    between atoms: C_6  and  C_7 
REMARK    5  A    between atoms: C_7  and  C_8 
REMARK    6  A    between atoms: C_8  and  N_9 
ROOT
HETATM    1  C   UNL     1       3.465   1.470   1.505  1.00  0.00     0.242 C 
HETATM    2  O   UNL     1       4.469   2.081   1.862  1.00  0.00    -0.271 OA
HETATM    3  N   UNL     1       2.796   0.590   2.338  1.00  0.00    -0.359 N 
HETATM    4  H   UNL     1       1.901   0.209   2.034  1.00  0.00     0.162 HD
ENDROOT
BRANCH   3   5
HETATM    5  C   UNL     1       3.178   0.410   3.726  1.00  0.00     0.124 C 
BRANCH   5   6
HETATM    6  C   UNL     1       2.619   1.529   4.605  1.00  0.00     0.039 C 
BRANCH   6   7
HETATM    7  C   UNL     1       3.069   1.405   6.064  1.00  0.00     0.127 C 
BRANCH   7   8
HETATM    8  N   UNL     1       2.429   2.435   6.886  1.00  0.00    -0.352 N 
HETATM    9  C   UNL     1       2.846   3.822   6.698  1.00  0.00     0.125 C 
HETATM   10  C   UNL     1       1.757   4.683   6.073  1.00  0.00     0.020 C 
HETATM   11  C   UNL     1       0.779   5.259   7.095  1.00  0.00     0.002 C 
HETATM   12  C   UNL     1       0.461   4.365   8.293  1.00  0.00     0.009 C 
HETATM   13  C   UNL     1       0.239   2.909   7.937  1.00  0.00     0.103 C 
HETATM   14  C   UNL     1       1.481   2.041   7.815  1.00  0.00     0.219 C 
HETATM   15  O   UNL     1       1.524   0.945   8.375  1.00  0.00    -0.273 OA
ENDBRANCH   7   8
ENDBRANCH   6   7
ENDBRANCH   5   6
ENDBRANCH   3   5
BRANCH   1  16
HETATM   16  C   UNL     1       2.866   1.607   0.106  1.00  0.00     0.196 C 
HETATM   17  C   UNL     1       3.709   2.502  -0.801  1.00  0.00     0.044 C 
BRANCH  16  18
HETATM   18  N   UNL     1       1.500   2.091   0.206  1.00  0.00    -0.273 N 
HETATM   19  C   UNL     1       1.061   3.296   0.657  1.00  0.00     0.202 A 
HETATM   20  N   UNL     1      -0.251   3.324   0.629  1.00  0.00    -0.346 N 
HETATM   21  C   UNL     1      -0.577   2.085   0.155  1.00  0.00     0.198 A 
ATOM     22  HN  UNL     1      -0.875   4.085   0.896  1.00  0.00     0.167 HD
HETATM   23  N   UNL     1       0.462   1.281  -0.094  1.00  0.00    -0.292 N 
ATOM     24  HN  UNL     1       0.469   0.315  -0.422  1.00  0.00     0.188 HD
ENDBRANCH  16  18
ENDBRANCH   1  16
TORSDOF 6
