REMARK  6 active torsions:
REMARK  status: ('A' for Active; 'I' for Inactive)
REMARK    1  A    between atoms: O_2  and  C_3 
REMARK    2  A    between atoms: C_3  and  C_4 
REMARK    3  A    between atoms: C_4  and  N_5 
REMARK    4  A    between atoms: C_6  and  N_7 
REMARK    5  A    between atoms: C_8  and  S_9 
REMARK    6  A    between atoms: S_9  and  C_10 
ROOT
HETATM    1  N   UNL     1       4.773   2.741  -0.632  1.00  0.00    -0.287 N 
HETATM    2  C   UNL     1       5.917   2.865  -1.427  1.00  0.00     0.107 C 
HETATM    3  C   UNL     1       6.574   4.049  -1.459  1.00  0.00     0.112 C 
HETATM    4  C   UNL     1       5.979   5.241  -0.798  1.00  0.00     0.269 C 
HETATM    5  O   UNL     1       6.530   6.336  -0.739  1.00  0.00    -0.266 OA
HETATM    6  N   UNL     1       4.744   5.049  -0.257  1.00  0.00    -0.274 N 
HETATM    7  C   UNL     1       4.166   3.835  -0.017  1.00  0.00     0.330 C 
HETATM    8  O   UNL     1       3.168   3.781   0.698  1.00  0.00    -0.246 OA
HETATM    9  H   UNL     1       4.323   5.835   0.215  1.00  0.00     0.173 HD
ENDROOT
BRANCH   3  10
HETATM   10  S   UNL     1       8.215   4.157  -2.038  1.00  0.00    -0.082 SA
BRANCH  10  11
HETATM   11  C   UNL     1       8.061   5.052  -3.564  1.00  0.00     0.006 A 
HETATM   12  C   UNL     1       9.061   5.985  -3.873  1.00  0.00     0.020 A 
HETATM   13  C   UNL     1       9.019   6.709  -5.066  1.00  0.00     0.025 A 
HETATM   14  C   UNL     1       7.974   6.498  -5.960  1.00  0.00     0.034 A 
HETATM   15 CL   UNL     1       7.886   7.423  -7.407  1.00  0.00    -0.084 Cl
HETATM   16  C   UNL     1       6.998   5.541  -5.687  1.00  0.00     0.025 A 
HETATM   17  C   UNL     1       7.046   4.811  -4.495  1.00  0.00     0.020 A 
ENDBRANCH  10  11
ENDBRANCH   3  10
BRANCH   2  18
HETATM   18  N   UNL     1       6.387   1.788  -2.177  1.00  0.00    -0.287 NA
HETATM   19  H   UNL     1       6.512   0.947  -1.634  1.00  0.00     0.125 HD
HETATM   20  H   UNL     1       7.276   2.020  -2.633  1.00  0.00     0.125 HD
ENDBRANCH   2  18
BRANCH   1  21
HETATM   21  C   UNL     1       4.196   1.416  -0.343  1.00  0.00     0.161 C 
BRANCH  21  22
HETATM   22  C   UNL     1       5.073   0.514   0.547  1.00  0.00     0.187 C 
BRANCH  22  23
HETATM   23  O   UNL     1       5.386   1.136   1.793  1.00  0.00    -0.394 OA
HETATM   24  C   UNL     1       6.283   0.335   2.558  1.00  0.00     0.201 C 
ENDBRANCH  22  23
ENDBRANCH  21  22
ENDBRANCH   1  21
TORSDOF 6
