REMARK  2 active torsions:
REMARK  status: ('A' for Active; 'I' for Inactive)
REMARK       I    between atoms: C_2  and  N_3 
REMARK       I    between atoms: C_2  and  N_11 
REMARK    1  A    between atoms: N_3  and  C_4 
REMARK    2  A    between atoms: N_11  and  C_12 
ROOT
HETATM    1  O   UNL     1       1.065  -0.476  -0.353  1.00  0.00    -0.247 OA
HETATM    2  C   UNL     1       2.217  -0.169  -0.076  1.00  0.00     0.321 C 
HETATM    3  N   UNL     1       2.844   0.907  -0.667  1.00  0.00    -0.337 N 
HETATM    4  N   UNL     1       3.006  -0.784   0.862  1.00  0.00    -0.306 N 
HETATM    5  H   UNL     1       3.850   0.849  -0.754  1.00  0.00     0.164 HD
HETATM    6  H   UNL     1       3.812  -0.288   1.210  1.00  0.00     0.171 HD
ENDROOT
BRANCH   3   7
HETATM    7  C   UNL     1       2.127   1.786  -1.587  1.00  0.00     0.101 C 
HETATM    8  C   UNL     1       0.944   2.507  -0.898  1.00  0.00     0.041 C 
HETATM    9  C   UNL     1      -0.215   2.675  -1.874  1.00  0.00     0.142 C 
HETATM   10  S   UNL     1       0.385   2.193  -3.470  1.00  0.00     0.146 S 
HETATM   11  O   UNL     1      -0.632   1.433  -4.164  1.00  0.00    -0.228 OA
HETATM   12  O   UNL     1       1.038   3.336  -4.076  1.00  0.00    -0.228 OA
HETATM   13  C   UNL     1       1.638   1.101  -2.863  1.00  0.00     0.165 C 
ENDBRANCH   3   7
BRANCH   4  14
HETATM   14  C   UNL     1       2.598  -1.904   1.563  1.00  0.00     0.070 A 
HETATM   15  C   UNL     1       1.493  -2.764   1.370  1.00  0.00     0.138 A 
HETATM   16  N   UNL     1       1.445  -3.745   2.276  1.00  0.00    -0.310 N 
HETATM   17  N   UNL     1       2.511  -3.505   3.054  1.00  0.00    -0.310 N 
ATOM     18  HN  UNL     1       0.761  -4.497   2.357  1.00  0.00     0.186 HD
HETATM   19  C   UNL     1       3.244  -2.421   2.660  1.00  0.00     0.138 A 
HETATM   20  H   UNL     1       2.674  -4.125   3.840  1.00  0.00     0.186 HD
ENDBRANCH   4  14
TORSDOF 2
