REMARK  8 active torsions:
REMARK  status: ('A' for Active; 'I' for Inactive)
REMARK    1  A    between atoms: C_2  and  C_3 
REMARK    2  A    between atoms: C_3  and  C_5 
REMARK    3  A    between atoms: C_8  and  O_9 
REMARK    4  A    between atoms: O_9  and  C_10 
REMARK    5  A    between atoms: C_10  and  C_11 
REMARK    6  A    between atoms: C_11  and  O_12 
REMARK    7  A    between atoms: C_11  and  C_13 
REMARK    8  A    between atoms: C_13  and  N_14 
ROOT
HETATM    1  C   UNL     1      10.540  -2.864  -2.922  1.00  0.00     0.160 C 
ENDROOT
BRANCH   1   2
HETATM    2  C   UNL     1       9.092  -3.037  -2.435  1.00  0.00     0.209 C 
BRANCH   2   3
HETATM    3  O   UNL     1       8.574  -1.730  -2.148  1.00  0.00    -0.349 OA
BRANCH   3   4
HETATM    4  C   UNL     1       7.275  -1.651  -1.736  1.00  0.00     0.068 A 
HETATM    5  C   UNL     1       6.960  -0.504  -1.003  1.00  0.00     0.037 A 
HETATM    6  C   UNL     1       5.654  -0.271  -0.558  1.00  0.00     0.018 A 
HETATM    7  C   UNL     1       4.641  -1.183  -0.863  1.00  0.00     0.010 A 
HETATM    8  C   UNL     1       4.959  -2.333  -1.599  1.00  0.00     0.018 A 
HETATM    9  C   UNL     1       6.270  -2.567  -2.034  1.00  0.00     0.037 A 
BRANCH   7  10
HETATM   10  C   UNL     1       3.218  -0.973  -0.453  1.00  0.00     0.159 C 
HETATM   11  O   UNL     1       2.385  -1.835  -0.728  1.00  0.00    -0.292 OA
BRANCH  10  12
HETATM   12  C   UNL     1       2.851   0.303   0.285  1.00  0.00     0.079 C 
HETATM   13  C   UNL     1       1.365   0.373   0.603  1.00  0.00     0.013 C 
ENDBRANCH  10  12
ENDBRANCH   7  10
ENDBRANCH   3   4
ENDBRANCH   2   3
ENDBRANCH   1   2
BRANCH   1  14
HETATM   14  O   UNL     1      10.511  -2.123  -4.152  1.00  0.00    -0.392 OA
HETATM   15  H   UNL     1       9.926  -1.353  -4.015  1.00  0.00     0.210 HD
ENDBRANCH   1  14
BRANCH   1  16
HETATM   16  C   UNL     1      11.397  -2.127  -1.886  1.00  0.00     0.164 C 
BRANCH  16  17
HETATM   17  N   UNL     1      12.786  -1.999  -2.284  1.00  0.00    -0.339 N 
HETATM   18  C   UNL     1      13.304  -0.930  -2.965  1.00  0.00     0.184 A 
HETATM   19  N   UNL     1      14.603  -1.032  -3.117  1.00  0.00    -0.350 N 
HETATM   20  C   UNL     1      14.940  -2.224  -2.525  1.00  0.00     0.060 A 
ATOM     21  HN  UNL     1      15.228  -0.369  -3.576  1.00  0.00     0.166 HD
HETATM   22  C   UNL     1      16.200  -2.828  -2.403  1.00  0.00     0.032 A 
HETATM   23  C   UNL     1      13.817  -2.858  -1.993  1.00  0.00     0.062 A 
HETATM   24  C   UNL     1      16.295  -4.060  -1.746  1.00  0.00     0.002 A 
HETATM   25  C   UNL     1      15.157  -4.679  -1.223  1.00  0.00     0.002 A 
HETATM   26  C   UNL     1      13.891  -4.091  -1.334  1.00  0.00     0.032 A 
ENDBRANCH  16  17
ENDBRANCH   1  16
TORSDOF 8
