REMARK  6 active torsions:
REMARK  status: ('A' for Active; 'I' for Inactive)
REMARK    1  A    between atoms: O_2  and  C_3 
REMARK    2  A    between atoms: C_3  and  C_4 
REMARK    3  A    between atoms: C_4  and  O_5 
REMARK    4  A    between atoms: O_5  and  C_6 
REMARK    5  A    between atoms: C_12  and  C_13 
REMARK       I    between atoms: C_13  and  N_15 
REMARK    6  A    between atoms: C_18  and  C_21 
REMARK       I    between atoms: C_21  and  N_23 
ROOT
HETATM    1  C   UNL     1       6.178  -1.810   2.903  1.00  0.00     0.258 C 
HETATM    2  O   UNL     1       6.774  -2.686   3.545  1.00  0.00    -0.267 OA
HETATM    3  N   UNL     1       5.144  -2.165   2.019  1.00  0.00    -0.348 N 
HETATM    4  C   UNL     1       4.371  -1.251   1.180  1.00  0.00     0.127 C 
HETATM    5  C   UNL     1       2.967  -1.792   0.898  1.00  0.00     0.034 C 
HETATM    6  C   UNL     1       3.011  -3.189   0.274  1.00  0.00     0.081 C 
HETATM    7  C   UNL     1       3.799  -4.112   1.204  1.00  0.00     0.034 C 
HETATM    8  C   UNL     1       5.178  -3.552   1.535  1.00  0.00     0.127 C 
ENDROOT
BRANCH   1   9
HETATM    9  C   UNL     1       6.761  -0.443   3.020  1.00  0.00     0.083 A 
HETATM   10  C   UNL     1       6.112   0.775   3.195  1.00  0.00     0.158 A 
HETATM   11  N   UNL     1       6.772   1.963   3.300  1.00  0.00    -0.346 N 
HETATM   12  C   UNL     1       8.121   1.945   3.301  1.00  0.00     0.090 A 
ATOM     13  HN  UNL     1       6.260   2.842   3.376  1.00  0.00     0.167 HD
HETATM   14  C   UNL     1       8.862   0.789   3.206  1.00  0.00     0.018 A 
HETATM   15  C   UNL     1       8.172  -0.410   3.053  1.00  0.00     0.023 A 
BRANCH  10  16
HETATM   16  O   UNL     1       4.758   0.817   3.444  1.00  0.00    -0.333 OA
BRANCH  16  17
HETATM   17  C   UNL     1       4.166   2.086   3.121  1.00  0.00     0.203 C 
BRANCH  17  18
HETATM   18  C   UNL     1       2.676   2.015   3.446  1.00  0.00     0.193 C 
BRANCH  18  19
HETATM   19  O   UNL     1       2.019   3.219   3.051  1.00  0.00    -0.394 OA
HETATM   20  C   UNL     1       0.650   3.214   3.440  1.00  0.00     0.201 C 
ENDBRANCH  18  19
ENDBRANCH  17  18
ENDBRANCH  16  17
ENDBRANCH  10  16
ENDBRANCH   1   9
BRANCH   6  21
HETATM   21  C   UNL     1       3.571  -3.136  -1.147  1.00  0.00     0.219 C 
HETATM   22  O   UNL     1       3.822  -2.097  -1.750  1.00  0.00    -0.273 OA
HETATM   23  N   UNL     1       3.732  -4.331  -1.773  1.00  0.00    -0.370 N 
HETATM   24  H   UNL     1       3.323  -5.192  -1.428  1.00  0.00     0.159 HD
HETATM   25  H   UNL     1       4.022  -4.298  -2.741  1.00  0.00     0.159 HD
ENDBRANCH   6  21
TORSDOF 6
