REMARK  5 active torsions:
REMARK  status: ('A' for Active; 'I' for Inactive)
REMARK    1  A    between atoms: N_2  and  C_3 
REMARK    2  A    between atoms: N_2  and  C_16 
REMARK    3  A    between atoms: C_3  and  C_4 
REMARK    4  A    between atoms: C_4  and  N_5 
REMARK       I    between atoms: N_5  and  C_6 
REMARK       I    between atoms: C_6  and  N_8 
REMARK    5  A    between atoms: N_8  and  C_9 
ROOT
HETATM    1  N   UNL     1       2.802   1.445  -3.658  1.00  0.00    -0.341 N 
HETATM    2  C   UNL     1       1.997   1.545  -4.775  1.00  0.00     0.320 C 
HETATM    3  O   UNL     1       0.986   0.866  -4.887  1.00  0.00    -0.247 OA
HETATM    4  N   UNL     1       2.442   2.486  -5.673  1.00  0.00    -0.309 N 
HETATM    5  H   UNL     1       3.792   1.561  -3.814  1.00  0.00     0.164 HD
HETATM    6  H   UNL     1       3.259   3.012  -5.406  1.00  0.00     0.170 HD
ENDROOT
BRANCH   1   7
HETATM    7  C   UNL     1       2.409   0.487  -2.626  1.00  0.00     0.154 C 
BRANCH   7   8
HETATM    8  C   UNL     1       2.897   0.892  -1.222  1.00  0.00     0.292 C 
BRANCH   8   9
HETATM    9  N   UNL     1       2.486  -0.008  -0.110  1.00  0.00     0.090 N 
HETATM   10  C   UNL     1       1.012  -0.097  -0.063  1.00  0.00     0.310 C 
BRANCH   9  11
HETATM   11  C   UNL     1       3.017   0.475   1.204  1.00  0.00     0.222 C 
HETATM   12  C   UNL     1       4.561   0.599   1.269  1.00  0.00     0.036 C 
HETATM   13  C   UNL     1       5.291  -0.745   1.256  1.00  0.00     0.002 C 
HETATM   14  C   UNL     1       4.766  -1.715   2.312  1.00  0.00     0.000 C 
HETATM   15  C   UNL     1       3.245  -1.812   2.316  1.00  0.00     0.002 C 
HETATM   16  C   UNL     1       2.610  -0.425   2.398  1.00  0.00     0.036 C 
ENDBRANCH   9  11
ENDBRANCH   8   9
ENDBRANCH   7   8
ENDBRANCH   1   7
BRANCH   4  17
HETATM   17  C   UNL     1       1.780   2.862  -6.867  1.00  0.00     0.038 A 
HETATM   18  C   UNL     1       0.581   2.294  -7.294  1.00  0.00     0.046 A 
HETATM   19  C   UNL     1      -0.004   2.751  -8.462  1.00  0.00     0.090 A 
HETATM   20  N   UNL     1       0.525   3.720  -9.234  1.00  0.00    -0.375 N 
HETATM   21  C   UNL     1       1.690   4.251  -8.812  1.00  0.00     0.090 A 
ATOM     22  HN  UNL     1       0.069   4.035 -10.091  1.00  0.00     0.164 HD
HETATM   23  C   UNL     1       2.349   3.865  -7.651  1.00  0.00     0.046 A 
ENDBRANCH   4  17
TORSDOF 5
