REMARK  5 active torsions:
REMARK  status: ('A' for Active; 'I' for Inactive)
REMARK    1  A    between atoms: C_2  and  O_3 
REMARK    2  A    between atoms: O_3  and  C_4 
REMARK    3  A    between atoms: C_10  and  N_11 
REMARK       I    between atoms: N_11  and  C_12 
REMARK       I    between atoms: C_12  and  N_14 
REMARK    4  A    between atoms: N_14  and  C_15 
REMARK    5  A    between atoms: C_15  and  C_16 
ROOT
HETATM    1  N   UNL     1       3.935  -3.227   0.657  1.00  0.00    -0.305 N 
HETATM    2  C   UNL     1       2.779  -3.132  -0.085  1.00  0.00     0.320 C 
HETATM    3  O   UNL     1       2.276  -2.075  -0.460  1.00  0.00    -0.247 OA
HETATM    4  N   UNL     1       2.184  -4.342  -0.398  1.00  0.00    -0.340 N 
HETATM    5  H   UNL     1       4.505  -4.054   0.532  1.00  0.00     0.171 HD
HETATM    6  H   UNL     1       2.286  -5.068   0.302  1.00  0.00     0.164 HD
ENDROOT
BRANCH   1   7
HETATM    7  C   UNL     1       4.575  -2.095   1.253  1.00  0.00     0.087 A 
HETATM    8  C   UNL     1       5.932  -2.088   1.606  1.00  0.00     0.169 A 
HETATM    9  N   UNL     1       6.552  -1.022   2.174  1.00  0.00    -0.345 N 
HETATM   10  C   UNL     1       5.827   0.093   2.384  1.00  0.00     0.090 A 
ATOM     11  HN  UNL     1       7.537  -1.065   2.434  1.00  0.00     0.167 HD
HETATM   12  C   UNL     1       4.488   0.190   2.084  1.00  0.00     0.019 A 
HETATM   13  C   UNL     1       3.858  -0.923   1.534  1.00  0.00     0.035 A 
BRANCH   8  14
HETATM   14  O   UNL     1       6.713  -3.198   1.303  1.00  0.00    -0.334 OA
BRANCH  14  15
HETATM   15  C   UNL     1       8.039  -3.084   1.852  1.00  0.00     0.173 C 
HETATM   16  C   UNL     1       8.959  -4.109   1.216  1.00  0.00     0.034 C 
ENDBRANCH  14  15
ENDBRANCH   8  14
ENDBRANCH   1   7
BRANCH   4  17
HETATM   17  C   UNL     1       0.858  -4.219  -1.000  1.00  0.00     0.156 C 
BRANCH  17  18
HETATM   18  C   UNL     1       0.218  -5.495  -1.540  1.00  0.00     0.139 C 
HETATM   19  C   UNL     1      -1.093  -5.176  -2.262  1.00  0.00     0.035 C 
HETATM   20  C   UNL     1      -2.042  -6.289  -1.877  1.00  0.00     0.029 C 
HETATM   21  C   UNL     1      -1.212  -7.203  -1.003  1.00  0.00     0.168 C 
HETATM   22  O   UNL     1      -0.146  -6.397  -0.483  1.00  0.00    -0.384 OA
ENDBRANCH  17  18
ENDBRANCH   4  17
TORSDOF 5
