REMARK  8 active torsions:
REMARK  status: ('A' for Active; 'I' for Inactive)
REMARK    1  A    between atoms: C_2  and  N_3 
REMARK    2  A    between atoms: C_2  and  C_20 
REMARK    3  A    between atoms: N_3  and  C_4 
REMARK    4  A    between atoms: C_4  and  C_5 
REMARK    5  A    between atoms: C_5  and  O_6 
REMARK    6  A    between atoms: C_5  and  C_7 
REMARK    7  A    between atoms: C_7  and  N_8 
REMARK    8  A    between atoms: C_20  and  N_22 
ROOT
HETATM    1  C   UNL     1       3.048  -1.643  -3.353  1.00  0.00     0.164 C 
ENDROOT
BRANCH   1   2
HETATM    2  C   UNL     1       2.423  -1.496  -1.954  1.00  0.00     0.303 C 
BRANCH   2   3
HETATM    3  N   UNL     1       2.881  -0.281  -1.280  1.00  0.00     0.092 N 
HETATM    4  H   UNL     1       3.902  -0.245  -1.276  1.00  0.00     0.316 HD
BRANCH   3   5
HETATM    5  C   UNL     1       2.318  -0.068   0.068  1.00  0.00     0.240 C 
HETATM    6  C   UNL     1       2.835  -1.148   1.032  1.00  0.00     0.045 C 
BRANCH   5   7
HETATM    7  C   UNL     1       0.761   0.071   0.089  1.00  0.00     0.136 C 
HETATM    8  C   UNL     1       0.189   0.339   1.485  1.00  0.00     0.036 C 
BRANCH   7   9
HETATM    9  N   UNL     1       0.288   1.100  -0.843  1.00  0.00    -0.297 N 
HETATM   10  C   UNL     1       0.555   2.442  -0.805  1.00  0.00     0.112 A 
HETATM   11  C   UNL     1      -0.133   2.998  -1.855  1.00  0.00     0.037 A 
HETATM   12  C   UNL     1      -0.796   1.919  -2.462  1.00  0.00     0.108 A 
HETATM   13  N   UNL     1      -0.565   0.761  -1.837  1.00  0.00    -0.310 N 
ATOM     14  HN  UNL     1      -0.942  -0.161  -2.057  1.00  0.00     0.186 HD
ENDBRANCH   7   9
ENDBRANCH   5   7
ENDBRANCH   3   5
ENDBRANCH   2   3
ENDBRANCH   1   2
BRANCH   1  15
HETATM   15  O   UNL     1       4.480  -1.668  -3.236  1.00  0.00    -0.392 OA
HETATM   16  H   UNL     1       4.728  -2.324  -2.566  1.00  0.00     0.210 HD
ENDBRANCH   1  15
BRANCH   1  17
HETATM   17  C   UNL     1       2.534  -2.946  -3.974  1.00  0.00     0.163 C 
BRANCH  17  18
HETATM   18  N   UNL     1       2.979  -3.140  -5.335  1.00  0.00    -0.339 N 
HETATM   19  C   UNL     1       4.098  -3.833  -5.705  1.00  0.00     0.184 A 
HETATM   20  N   UNL     1       4.212  -3.910  -7.010  1.00  0.00    -0.350 N 
HETATM   21  C   UNL     1       3.127  -3.225  -7.501  1.00  0.00     0.060 A 
ATOM     22  HN  UNL     1       4.946  -4.376  -7.543  1.00  0.00     0.166 HD
HETATM   23  C   UNL     1       2.751  -2.984  -8.828  1.00  0.00     0.039 A 
HETATM   24  C   UNL     1       2.332  -2.732  -6.473  1.00  0.00     0.062 A 
HETATM   25  C   UNL     1       1.576  -2.253  -9.103  1.00  0.00    -0.054 A 
HETATM   26  C   UNL     1       1.208  -2.020 -10.543  1.00  0.00     0.049 C 
HETATM   27  C   UNL     1       0.787  -1.762  -8.042  1.00  0.00    -0.054 A 
HETATM   28  C   UNL     1      -0.478  -0.972  -8.261  1.00  0.00     0.049 C 
HETATM   29  C   UNL     1       1.163  -2.000  -6.703  1.00  0.00     0.039 A 
ENDBRANCH  17  18
ENDBRANCH   1  17
TORSDOF 8
