REMARK  6 active torsions:
REMARK  status: ('A' for Active; 'I' for Inactive)
REMARK    1  A    between atoms: C_2  and  C_3 
REMARK       I    between atoms: C_2  and  N_13 
REMARK    2  A    between atoms: C_3  and  N_4 
REMARK    3  A    between atoms: N_4  and  C_5 
REMARK    4  A    between atoms: C_5  and  C_6 
REMARK    5  A    between atoms: C_6  and  N_7 
REMARK    6  A    between atoms: N_13  and  C_14 
ROOT
HETATM    1  C   UNL     1       2.788  -1.017  -2.311  1.00  0.00     0.122 C 
HETATM    2  C   UNL     1       1.888  -2.274  -2.223  1.00  0.00     0.046 C 
HETATM    3  C   UNL     1       2.632  -3.504  -1.704  1.00  0.00     0.004 C 
HETATM    4  C   UNL     1       3.871  -3.808  -2.538  1.00  0.00     0.000 C 
HETATM    5  C   UNL     1       4.799  -2.602  -2.609  1.00  0.00     0.004 C 
HETATM    6  C   UNL     1       4.068  -1.360  -3.122  1.00  0.00     0.046 C 
HETATM    7  C   UNL     1       2.069   0.059  -3.057  1.00  0.00     0.091 C 
HETATM    8  N   UNL     1       1.551   0.893  -3.678  1.00  0.00    -0.195 NA
ENDROOT
BRANCH   1   9
HETATM    9  N   UNL     1       3.201  -0.540  -0.975  1.00  0.00    -0.338 N 
HETATM   10  C   UNL     1       2.326  -0.057  -0.028  1.00  0.00     0.247 C 
HETATM   11  O   UNL     1       1.115   0.036  -0.207  1.00  0.00    -0.272 OA
HETATM   12  H   UNL     1       4.163  -0.691  -0.700  1.00  0.00     0.164 HD
BRANCH  10  13
HETATM   13  C   UNL     1       2.998   0.355   1.290  1.00  0.00     0.371 C 
BRANCH  13  14
HETATM   14  N   UNL     1       2.196  -0.035   2.465  1.00  0.00     0.093 N 
HETATM   15  H   UNL     1       1.279   0.413   2.357  1.00  0.00     0.316 HD
BRANCH  14  16
HETATM   16  C   UNL     1       1.966  -1.488   2.569  1.00  0.00     0.291 C 
BRANCH  16  17
HETATM   17  C   UNL     1       3.237  -2.326   2.743  1.00  0.00     0.178 C 
BRANCH  17  18
HETATM   18  N   UNL     1       2.954  -3.748   2.759  1.00  0.00    -0.302 N 
HETATM   19  C   UNL     1       2.230  -4.436   3.690  1.00  0.00     0.111 A 
HETATM   20  C   UNL     1       2.234  -5.748   3.283  1.00  0.00     0.037 A 
HETATM   21  C   UNL     1       3.000  -5.753   2.106  1.00  0.00     0.108 A 
HETATM   22  N   UNL     1       3.446  -4.536   1.782  1.00  0.00    -0.310 N 
ATOM     23  HN  UNL     1       4.022  -4.267   0.985  1.00  0.00     0.186 HD
ENDBRANCH  17  18
ENDBRANCH  16  17
ENDBRANCH  14  16
ENDBRANCH  13  14
ENDBRANCH  10  13
ENDBRANCH   1   9
TORSDOF 6
