REMARK  6 active torsions:
REMARK  status: ('A' for Active; 'I' for Inactive)
REMARK    1  A    between atoms: O_1  and  C_2 
REMARK    2  A    between atoms: C_2  and  C_3 
REMARK    3  A    between atoms: N_12  and  C_13 
REMARK    4  A    between atoms: C_13  and  C_14 
REMARK    5  A    between atoms: C_14  and  O_15 
REMARK    6  A    between atoms: C_14  and  C_16 
ROOT
HETATM    1  C   UNL     1       2.945   1.445   0.421  1.00  0.00     0.108 A 
HETATM    2  N   UNL     1       2.413   2.561  -0.043  1.00  0.00    -0.342 N 
ATOM      3  HN  UNL     1       1.689   2.645  -0.757  1.00  0.00     0.167 HD
HETATM    4  C   UNL     1       3.029   3.583   0.628  1.00  0.00     0.060 A 
HETATM    5  C   UNL     1       2.811   4.966   0.538  1.00  0.00     0.032 A 
HETATM    6  C   UNL     1       3.568   5.825   1.342  1.00  0.00     0.002 A 
HETATM    7  C   UNL     1       4.532   5.316   2.213  1.00  0.00     0.002 A 
HETATM    8  C   UNL     1       4.764   3.939   2.314  1.00  0.00     0.032 A 
HETATM    9  C   UNL     1       3.988   3.094   1.509  1.00  0.00     0.062 A 
HETATM   10  N   UNL     1       3.921   1.723   1.357  1.00  0.00    -0.330 N 
ENDROOT
BRANCH  10  11
HETATM   11  C   UNL     1       4.673   0.758   2.146  1.00  0.00     0.167 C 
BRANCH  11  12
HETATM   12  C   UNL     1       5.982   0.295   1.482  1.00  0.00     0.169 C 
BRANCH  12  13
HETATM   13  O   UNL     1       6.893   1.387   1.343  1.00  0.00    -0.389 OA
HETATM   14  H   UNL     1       7.178   1.652   2.233  1.00  0.00     0.210 HD
ENDBRANCH  12  13
BRANCH  12  15
HETATM   15  C   UNL     1       6.716  -0.809   2.230  1.00  0.00    -0.028 A 
HETATM   16  C   UNL     1       7.510  -1.715   1.505  1.00  0.00     0.010 A 
HETATM   17  C   UNL     1       8.220  -2.728   2.152  1.00  0.00     0.001 A 
HETATM   18  C   UNL     1       8.159  -2.850   3.536  1.00  0.00     0.000 A 
HETATM   19  C   UNL     1       7.392  -1.951   4.272  1.00  0.00     0.001 A 
HETATM   20  C   UNL     1       6.679  -0.936   3.628  1.00  0.00     0.010 A 
ENDBRANCH  12  15
ENDBRANCH  11  12
ENDBRANCH  10  11
BRANCH   1  21
HETATM   21  C   UNL     1       2.554   0.078  -0.022  1.00  0.00     0.240 C 
BRANCH  21  22
HETATM   22  O   UNL     1       2.039  -0.622   1.104  1.00  0.00    -0.393 OA
HETATM   23  H   UNL     1       1.447  -1.308   0.753  1.00  0.00     0.209 HD
ENDBRANCH  21  22
ENDBRANCH   1  21
TORSDOF 6
