REMARK  4 active torsions:
REMARK  status: ('A' for Active; 'I' for Inactive)
REMARK    1  A    between atoms: O_2  and  C_3 
REMARK    2  A    between atoms: C_3  and  C_4 
REMARK    3  A    between atoms: C_4  and  N_5 
REMARK    4  A    between atoms: C_6  and  N_7 
ROOT
HETATM    1  N   UNL     1       4.861  -1.195  -2.552  1.00  0.00    -0.172 N 
HETATM    2  C   UNL     1       5.371  -0.540  -3.656  1.00  0.00     0.680 A 
HETATM    3  N   UNL     1       5.618  -1.374  -4.640  1.00  0.00    -0.174 N 
ATOM      4  HN  UNL     1       6.004  -1.154  -5.558  1.00  0.00     0.186 HD
HETATM    5  C   UNL     1       5.248  -2.593  -4.171  1.00  0.00     0.160 A 
HETATM    6  N   UNL     1       5.303  -3.790  -4.855  1.00  0.00    -0.287 N 
HETATM    7  C   UNL     1       5.749  -3.875  -6.229  1.00  0.00     0.163 C 
HETATM    8  C   UNL     1       4.886  -4.947  -4.211  1.00  0.00     0.330 A 
HETATM    9  O   UNL     1       4.889  -6.061  -4.740  1.00  0.00    -0.246 OA
HETATM   10  N   UNL     1       4.442  -4.825  -2.911  1.00  0.00    -0.273 N 
HETATM   11  C   UNL     1       4.316  -3.665  -2.183  1.00  0.00     0.280 A 
HETATM   12  O   UNL     1       3.855  -3.658  -1.048  1.00  0.00    -0.265 OA
HETATM   13  C   UNL     1       4.777  -2.522  -2.891  1.00  0.00     0.164 A 
HETATM   14  H   UNL     1       4.130  -5.674  -2.467  1.00  0.00     0.173 HD
ENDROOT
BRANCH   1  15
HETATM   15  C   UNL     1       4.420  -0.613  -1.303  1.00  0.00     0.174 C 
BRANCH  15  16
HETATM   16  C   UNL     1       5.326  -0.958  -0.125  1.00  0.00     0.187 C 
BRANCH  16  17
HETATM   17  O   UNL     1       4.814  -0.332   1.053  1.00  0.00    -0.394 OA
HETATM   18  C   UNL     1       5.503  -0.775   2.217  1.00  0.00     0.201 C 
ENDBRANCH  16  17
ENDBRANCH  15  16
ENDBRANCH   1  15
BRANCH   2  19
HETATM   19  N   UNL     1       5.569   0.784  -3.703  1.00  0.00    -0.234 N 
HETATM   20  H   UNL     1       5.653   1.369  -2.882  1.00  0.00     0.174 HD
HETATM   21  H   UNL     1       6.067   1.137  -4.515  1.00  0.00     0.174 HD
ENDBRANCH   2  19
TORSDOF 4
