REMARK  8 active torsions:
REMARK  status: ('A' for Active; 'I' for Inactive)
REMARK    1  A    between atoms: C_2  and  C_3 
REMARK    2  A    between atoms: C_2  and  N_10 
REMARK    3  A    between atoms: C_3  and  N_4 
REMARK    4  A    between atoms: N_10  and  C_11 
REMARK    5  A    between atoms: C_11  and  C_12 
REMARK       I    between atoms: C_12  and  N_14 
REMARK    6  A    between atoms: N_14  and  C_15 
REMARK    7  A    between atoms: C_15  and  C_21 
REMARK    8  A    between atoms: C_21  and  N_22 
ROOT
HETATM    1  C   UNL     1       5.032   1.563   2.359  1.00  0.00     0.247 C 
HETATM    2  O   UNL     1       6.079   1.315   2.945  1.00  0.00    -0.272 OA
HETATM    3  N   UNL     1       4.210   2.634   2.657  1.00  0.00    -0.339 N 
HETATM    4  H   UNL     1       3.300   2.605   2.203  1.00  0.00     0.164 HD
ENDROOT
BRANCH   1   5
HETATM    5  C   UNL     1       4.561   0.734   1.166  1.00  0.00     0.372 C 
BRANCH   5   6
HETATM    6  N   UNL     1       3.086   0.808   1.043  1.00  0.00     0.098 N 
HETATM    7  H   UNL     1       2.697   0.376   1.890  1.00  0.00     0.317 HD
BRANCH   6   8
HETATM    8  C   UNL     1       2.591   0.017  -0.113  1.00  0.00     0.236 C 
HETATM    9  C   UNL     1       1.059   0.102  -0.066  1.00  0.00     0.044 C 
BRANCH   8  10
HETATM   10  C   UNL     1       3.138   0.514  -1.469  1.00  0.00     0.183 C 
BRANCH  10  11
HETATM   11  N   UNL     1       2.622  -0.217  -2.612  1.00  0.00    -0.302 N 
HETATM   12  C   UNL     1       1.951   0.306  -3.678  1.00  0.00     0.111 A 
HETATM   13  C   UNL     1       1.670  -0.757  -4.504  1.00  0.00     0.037 A 
HETATM   14  C   UNL     1       2.226  -1.873  -3.852  1.00  0.00     0.108 A 
HETATM   15  N   UNL     1       2.818  -1.545  -2.703  1.00  0.00    -0.310 N 
ATOM     16  HN  UNL     1       3.305  -2.157  -2.048  1.00  0.00     0.186 HD
ENDBRANCH  10  11
ENDBRANCH   8  10
ENDBRANCH   6   8
ENDBRANCH   5   6
ENDBRANCH   1   5
BRANCH   3  17
HETATM   17  C   UNL     1       4.434   3.519   3.816  1.00  0.00     0.104 C 
HETATM   18  C   UNL     1       3.312   4.574   3.896  1.00  0.00     0.045 C 
HETATM   19  C   UNL     1       3.340   5.549   2.713  1.00  0.00     0.004 C 
HETATM   20  C   UNL     1       4.707   6.207   2.542  1.00  0.00     0.000 C 
HETATM   21  C   UNL     1       5.832   5.181   2.480  1.00  0.00     0.004 C 
HETATM   22  C   UNL     1       5.795   4.247   3.692  1.00  0.00     0.045 C 
BRANCH  17  23
HETATM   23  C   UNL     1       4.419   2.657   5.068  1.00  0.00    -0.046 C 
BRANCH  23  24
HETATM   24  N   UNL     1       4.407   1.942   6.106  1.00  0.00    -0.367 N 
ATOM     25  HN2 UNL     1       4.435   2.511   5.260  1.00  0.00     0.165 HD
ATOM     26  HN1 UNL     1       4.397   1.364   6.946  1.00  0.00     0.165 HD
ENDBRANCH  23  24
ENDBRANCH  17  23
ENDBRANCH   3  17
TORSDOF 8
