REMARK  8 active torsions:
REMARK  status: ('A' for Active; 'I' for Inactive)
REMARK    1  A    between atoms: N_2  and  C_15 
REMARK    2  A    between atoms: C_6  and  N_7 
REMARK    3  A    between atoms: N_9  and  C_19 
REMARK    4  A    between atoms: C_14  and  C_15 
REMARK    5  A    between atoms: C_14  and  C_26 
REMARK    6  A    between atoms: C_19  and  C_23 
REMARK    7  A    between atoms: C_23  and  O_27 
REMARK    8  A    between atoms: C_26  and  O_28 
ROOT
HETATM    1  C   UNL     1       0.062  -0.827  -1.006  1.00  0.00     0.122 A 
HETATM    2  N   UNL     1       1.017   0.977  -1.765  1.00  0.00    -0.326 N 
HETATM    3  C   UNL     1       0.008   0.557  -0.951  1.00  0.00     0.140 A 
HETATM    4  N   UNL     1       1.059  -1.237  -1.869  1.00  0.00    -0.346 N 
ATOM      5  HN  UNL     1       1.315  -2.194  -2.110  1.00  0.00     0.167 HD
HETATM    6  C   UNL     1      -0.831  -1.528  -0.174  1.00  0.00     0.135 A 
HETATM    7  C   UNL     1       1.606  -0.128  -2.313  1.00  0.00     0.185 A 
HETATM    8  N   UNL     1      -0.821   1.316  -0.218  1.00  0.00    -0.336 N 
ATOM      9  HN  UNL     1      -0.829   2.336  -0.224  1.00  0.00     0.168 HD
HETATM   10  N   UNL     1      -1.681  -0.794   0.601  1.00  0.00    -0.337 N 
ATOM     11  HN  UNL     1      -2.339  -1.256   1.229  1.00  0.00     0.168 HD
HETATM   12  C   UNL     1      -1.639   0.550   0.525  1.00  0.00     0.183 A 
ENDROOT
BRANCH   6  13
HETATM   13  N   UNL     1      -0.779  -2.912  -0.053  1.00  0.00    -0.362 N 
HETATM   14  C   UNL     1      -1.244  -3.435   1.231  1.00  0.00     0.160 C 
HETATM   15  C   UNL     1      -0.845  -4.927   1.306  1.00  0.00     0.237 C 
HETATM   16  N   UNL     1      -1.489  -5.757   0.239  1.00  0.00     0.098 N 
HETATM   17  C   UNL     1      -0.858  -5.440   2.744  1.00  0.00     0.044 C 
HETATM   18  C   UNL     1      -0.984  -5.184  -1.058  1.00  0.00     0.293 C 
HETATM   19  C   UNL     1      -1.211  -3.654  -1.246  1.00  0.00     0.154 C 
BRANCH  16  20
HETATM   20  C   UNL     1      -2.973  -5.780   0.186  1.00  0.00     0.309 C 
BRANCH  20  21
HETATM   21  C   UNL     1      -3.795  -6.450   1.328  1.00  0.00     0.077 C 
HETATM   22  C   UNL     1      -5.288  -6.440   0.964  1.00  0.00     0.047 C 
HETATM   23  C   UNL     1      -3.341  -7.885   1.590  1.00  0.00     0.047 C 
BRANCH  21  24
HETATM   24  O   UNL     1      -3.712  -5.708   2.544  1.00  0.00    -0.389 OA
HETATM   25  H   UNL     1      -3.823  -4.767   2.326  1.00  0.00     0.210 HD
ENDBRANCH  21  24
ENDBRANCH  20  21
ENDBRANCH  16  20
ENDBRANCH   6  13
BRANCH   2  26
HETATM   26  C   UNL     1       1.365   2.364  -2.028  1.00  0.00     0.147 C 
BRANCH  26  27
HETATM   27  C   UNL     1       2.431   2.927  -1.098  1.00  0.00     0.040 C 
HETATM   28  C   UNL     1       2.076   3.092   0.397  1.00  0.00     0.183 C 
HETATM   29  O   UNL     1       2.476   4.487   0.360  1.00  0.00    -0.389 OA
HETATM   30  C   UNL     1       2.425   4.469  -1.088  1.00  0.00     0.183 C 
BRANCH  27  31
HETATM   31  C   UNL     1       3.821   2.327  -1.285  1.00  0.00     0.179 C 
BRANCH  31  32
HETATM   32  O   UNL     1       4.226   2.489  -2.640  1.00  0.00    -0.400 OA
HETATM   33  H   UNL     1       4.053   1.658  -3.114  1.00  0.00     0.209 HD
ENDBRANCH  31  32
ENDBRANCH  27  31
ENDBRANCH  26  27
ENDBRANCH   2  26
TORSDOF 8
