REMARK  4 active torsions:
REMARK  status: ('A' for Active; 'I' for Inactive)
REMARK    1  A    between atoms: C_2  and  C_5 
REMARK       I    between atoms: C_5  and  N_7 
REMARK    2  A    between atoms: N_7  and  C_8 
REMARK    3  A    between atoms: C_8  and  C_9 
REMARK    4  A    between atoms: C_14  and  N_16 
ROOT
HETATM    1  C   UNL     1       6.417  -2.952   0.763  1.00  0.00    -0.036 A 
HETATM    2  C   UNL     1       7.236  -1.831   0.797  1.00  0.00     0.026 A 
HETATM    3  C   UNL     1       8.600  -2.023   0.666  1.00  0.00     0.090 A 
HETATM    4  N   UNL     1       9.186  -3.232   0.513  1.00  0.00    -0.352 N 
ATOM      5  HN  UNL     1      10.198  -3.311   0.410  1.00  0.00     0.166 HD
HETATM    6  C   UNL     1       8.406  -4.331   0.500  1.00  0.00     0.103 A 
HETATM    7  C   UNL     1       7.021  -4.210   0.642  1.00  0.00     0.057 A 
ENDROOT
BRANCH   1   8
HETATM    8  C   UNL     1       4.919  -2.837   0.791  1.00  0.00     0.161 C 
BRANCH   8   9
HETATM    9  N   UNL     1       4.383  -2.898   2.129  1.00  0.00    -0.356 N 
HETATM   10  C   UNL     1       3.017  -2.911   2.313  1.00  0.00     0.225 C 
HETATM   11  O   UNL     1       2.240  -2.898   1.360  1.00  0.00    -0.273 OA
HETATM   12  H   UNL     1       5.010  -2.786   2.914  1.00  0.00     0.162 HD
BRANCH  10  13
HETATM   13  C   UNL     1       2.534  -2.971   3.774  1.00  0.00     0.030 C 
HETATM   14  C   UNL     1       0.994  -2.968   3.803  1.00  0.00     0.024 C 
HETATM   15  C   UNL     1       3.040  -1.751   4.557  1.00  0.00     0.024 C 
HETATM   16  C   UNL     1       3.036  -4.266   4.429  1.00  0.00     0.024 C 
ENDBRANCH  10  13
ENDBRANCH   8   9
ENDBRANCH   1   8
BRANCH   6  17
HETATM   17  N   UNL     1       8.965  -5.562   0.208  1.00  0.00    -0.363 N 
HETATM   18  C   UNL     1      10.364  -5.618  -0.234  1.00  0.00     0.150 C 
HETATM   19  C   UNL     1      10.532  -6.870  -1.117  1.00  0.00     0.187 C 
HETATM   20  O   UNL     1      10.130  -8.072  -0.430  1.00  0.00    -0.388 OA
HETATM   21  C   UNL     1       8.761  -7.975   0.002  1.00  0.00     0.187 C 
HETATM   22  C   UNL     1       8.554  -6.771   0.935  1.00  0.00     0.150 C 
ENDBRANCH   6  17
TORSDOF 4
