REMARK  5 active torsions:
REMARK  status: ('A' for Active; 'I' for Inactive)
REMARK    1  A    between atoms: C_2  and  N_4 
REMARK    2  A    between atoms: N_4  and  C_5 
REMARK    3  A    between atoms: N_12  and  C_13 
REMARK    4  A    between atoms: C_13  and  C_14 
REMARK    5  A    between atoms: C_14  and  O_15 
ROOT
HETATM    1  C   UNL     1       4.759   0.385  -1.067  1.00  0.00     0.112 A 
HETATM    2  N   UNL     1       5.340  -0.211  -2.144  1.00  0.00    -0.341 N 
ATOM      3  HN  UNL     1       4.894  -0.171  -3.061  1.00  0.00     0.167 HD
HETATM    4  C   UNL     1       6.515  -0.856  -1.981  1.00  0.00     0.183 A 
HETATM    5  N   UNL     1       7.246  -0.981  -0.861  1.00  0.00    -0.336 N 
ATOM      6  HN  UNL     1       8.136  -1.476  -0.803  1.00  0.00     0.168 HD
HETATM    7  C   UNL     1       6.647  -0.367   0.170  1.00  0.00     0.140 A 
HETATM    8  N   UNL     1       7.107  -0.248   1.447  1.00  0.00    -0.324 N 
HETATM    9  C   UNL     1       6.146   0.400   2.178  1.00  0.00     0.185 A 
HETATM   10  N   UNL     1       5.135   0.782   1.426  1.00  0.00    -0.346 N 
ATOM     11  HN  UNL     1       4.313   1.315   1.711  1.00  0.00     0.167 HD
HETATM   12  C   UNL     1       5.434   0.301   0.163  1.00  0.00     0.116 A 
ENDROOT
BRANCH   8  13
HETATM   13  C   UNL     1       8.333  -0.813   1.963  1.00  0.00     0.169 C 
BRANCH  13  14
HETATM   14  C   UNL     1       9.616   0.030   1.742  1.00  0.00     0.074 C 
HETATM   15  C   UNL     1      10.144   0.121   0.296  1.00  0.00     0.040 C 
HETATM   16  C   UNL     1      10.703  -1.194  -0.255  1.00  0.00     0.007 C 
HETATM   17  C   UNL     1      11.706  -1.889   0.681  1.00  0.00    -0.019 C 
HETATM   18  C   UNL     1      13.094  -1.242   0.632  1.00  0.00     0.010 C 
HETATM   19  C   UNL     1      11.185  -1.940   2.122  1.00  0.00     0.007 C 
HETATM   20  C   UNL     1      10.734  -0.566   2.623  1.00  0.00     0.040 C 
BRANCH  14  21
HETATM   21  O   UNL     1       9.381   1.362   2.221  1.00  0.00    -0.388 OA
HETATM   22  H   UNL     1       8.885   1.857   1.539  1.00  0.00     0.210 HD
ENDBRANCH  14  21
ENDBRANCH  13  14
ENDBRANCH   8  13
BRANCH   1  23
HETATM   23  N   UNL     1       3.536   1.048  -1.190  1.00  0.00    -0.273 NA
HETATM   24  H   UNL     1       3.342   1.594  -0.350  1.00  0.00     0.129 HD
BRANCH  23  25
HETATM   25  C   UNL     1       3.272   1.700  -2.467  1.00  0.00     0.053 C 
HETATM   26  C   UNL     1       1.761   1.753  -2.665  1.00  0.00     0.026 C 
HETATM   27  C   UNL     1       3.872   3.105  -2.472  1.00  0.00     0.026 C 
ENDBRANCH  23  25
ENDBRANCH   1  23
TORSDOF 5
