REMARK  2 active torsions:
REMARK  status: ('A' for Active; 'I' for Inactive)
REMARK    1  A    between atoms: C_6  and  N_7 
REMARK       I    between atoms: N_7  and  C_8 
REMARK       I    between atoms: C_8  and  N_10 
REMARK    2  A    between atoms: N_10  and  C_11 
ROOT
HETATM    1  N   UNL     1       5.832  -3.208  -1.739  1.00  0.00    -0.295 N 
HETATM    2  C   UNL     1       4.977  -4.269  -1.696  1.00  0.00     0.322 C 
HETATM    3  O   UNL     1       4.293  -4.534  -2.681  1.00  0.00    -0.247 OA
HETATM    4  N   UNL     1       4.970  -5.013  -0.549  1.00  0.00    -0.338 N 
HETATM    5  H   UNL     1       5.867  -2.762  -2.643  1.00  0.00     0.172 HD
HETATM    6  H   UNL     1       5.410  -4.547   0.244  1.00  0.00     0.164 HD
ENDROOT
BRANCH   1   7
HETATM    7  C   UNL     1       6.636  -2.708  -0.714  1.00  0.00     0.109 A 
HETATM    8  C   UNL     1       7.607  -1.769  -1.029  1.00  0.00     0.049 A 
HETATM    9  C   UNL     1       8.443  -1.314  -0.012  1.00  0.00     0.006 A 
HETATM   10  C   UNL     1       8.264  -1.787   1.285  1.00  0.00     0.025 A 
HETATM   11  C   UNL     1       7.243  -2.691   1.528  1.00  0.00     0.007 A 
HETATM   12  C   UNL     1       6.977  -3.245   2.892  1.00  0.00     0.068 C 
HETATM   13  N   UNL     1       6.448  -3.163   0.543  1.00  0.00    -0.346 N 
ATOM     14  HN  UNL     1       5.721  -3.849   0.745  1.00  0.00     0.167 HD
ENDBRANCH   1   7
BRANCH   4  15
HETATM   15  C   UNL     1       4.005  -6.075  -0.318  1.00  0.00     0.091 C 
HETATM   16  C   UNL     1       3.714  -6.280   1.169  1.00  0.00     0.051 C 
HETATM   17  C   UNL     1       4.593  -7.327   1.822  1.00  0.00     0.171 C 
HETATM   18  O   UNL     1       4.551  -8.543   1.089  1.00  0.00    -0.381 OA
HETATM   19  C   UNL     1       5.091  -8.452  -0.234  1.00  0.00     0.055 C 
HETATM   20  C   UNL     1       6.611  -8.261  -0.176  1.00  0.00     0.045 C 
HETATM   21  C   UNL     1       4.819  -9.820  -0.885  1.00  0.00     0.045 C 
HETATM   22  C   UNL     1       4.375  -7.368  -1.061  1.00  0.00     0.062 C 
ENDBRANCH   4  15
TORSDOF 2
