REMARK  4 active torsions:
REMARK  status: ('A' for Active; 'I' for Inactive)
REMARK       I    between atoms: N_1  and  C_2 
REMARK    1  A    between atoms: C_2  and  C_4 
REMARK    2  A    between atoms: C_4  and  N_5 
REMARK    3  A    between atoms: C_8  and  N_11 
REMARK       I    between atoms: N_11  and  C_12 
REMARK       I    between atoms: C_12  and  N_14 
REMARK    4  A    between atoms: N_14  and  C_15 
ROOT
HETATM    1  N   UNL     1       4.550  -0.802   0.524  1.00  0.00     0.097 N 
HETATM    2  C   UNL     1       5.013   0.524   0.971  1.00  0.00     0.275 C 
HETATM    3  C   UNL     1       4.673   1.679   0.025  1.00  0.00     0.055 C 
HETATM    4  C   UNL     1       5.101   1.409  -1.418  1.00  0.00     0.089 C 
HETATM    5  C   UNL     1       4.753  -0.016  -1.869  1.00  0.00     0.055 C 
HETATM    6  C   UNL     1       5.092  -1.079  -0.817  1.00  0.00     0.275 C 
ENDROOT
BRANCH   4   7
HETATM    7  N   UNL     1       6.522   1.640  -1.583  1.00  0.00    -0.338 N 
HETATM    8  C   UNL     1       7.104   2.835  -1.901  1.00  0.00     0.322 C 
HETATM    9  O   UNL     1       6.468   3.860  -2.125  1.00  0.00    -0.247 OA
HETATM   10  N   UNL     1       8.465   2.826  -2.024  1.00  0.00    -0.289 N 
HETATM   11  H   UNL     1       8.895   3.668  -2.374  1.00  0.00     0.172 HD
HETATM   12  H   UNL     1       7.161   0.928  -1.244  1.00  0.00     0.164 HD
BRANCH  10  13
HETATM   13  C   UNL     1       9.251   1.735  -1.772  1.00  0.00     0.152 A 
HETATM   14  N   UNL     1       8.871   0.602  -1.228  1.00  0.00    -0.346 N 
HETATM   15  C   UNL     1       9.936  -0.271  -1.199  1.00  0.00     0.097 A 
ATOM     16  HN  UNL     1       7.933   0.400  -0.881  1.00  0.00     0.167 HD
HETATM   17  C   UNL     1      11.105   0.215  -1.738  1.00  0.00     0.070 A 
HETATM   18  S   UNL     1      10.883   1.849  -2.231  1.00  0.00    -0.064 SA
ENDBRANCH  10  13
ENDBRANCH   4   7
BRANCH   1  19
HETATM   19  C   UNL     1       3.070  -0.941   0.535  1.00  0.00     0.374 C 
BRANCH  19  20
HETATM   20  C   UNL     1       2.486  -0.954   1.950  1.00  0.00     0.243 C 
HETATM   21  N   UNL     1       3.249  -1.562   2.904  1.00  0.00    -0.369 N 
HETATM   22  H   UNL     1       2.918  -1.571   3.859  1.00  0.00     0.159 HD
HETATM   23  H   UNL     1       4.200  -1.832   2.685  1.00  0.00     0.159 HD
HETATM   24  O   UNL     1       1.368  -0.524   2.217  1.00  0.00    -0.272 OA
ENDBRANCH  19  20
ENDBRANCH   1  19
TORSDOF 4
