REMARK  5 active torsions:
REMARK  status: ('A' for Active; 'I' for Inactive)
REMARK    1  A    between atoms: C_2  and  C_4 
REMARK    2  A    between atoms: C_7  and  C_8 
REMARK    3  A    between atoms: C_8  and  C_9 
REMARK       I    between atoms: C_9  and  N_11 
REMARK    4  A    between atoms: N_11  and  C_12 
REMARK    5  A    between atoms: C_12  and  C_13 
REMARK       I    between atoms: C_13  and  N_15 
ROOT
HETATM    1  C   UNL     1       4.419   1.704  -5.820  1.00  0.00     0.223 C 
HETATM    2  O   UNL     1       4.502   0.484  -5.971  1.00  0.00    -0.273 OA
HETATM    3  N   UNL     1       4.819   2.579  -6.799  1.00  0.00    -0.352 N 
HETATM    4  H   UNL     1       4.673   3.584  -6.674  1.00  0.00     0.162 HD
ENDROOT
BRANCH   1   5
HETATM    5  C   UNL     1       3.970   2.298  -4.499  1.00  0.00     0.160 C 
BRANCH   5   6
HETATM    6  C   UNL     1       3.126   3.523  -4.617  1.00  0.00     0.025 A 
HETATM    7  N   UNL     1       3.692   4.693  -5.109  1.00  0.00    -0.356 N 
HETATM    8  C   UNL     1       2.811   5.672  -5.086  1.00  0.00     0.054 A 
ATOM      9  HN  UNL     1       4.653   4.781  -5.441  1.00  0.00     0.166 HD
HETATM   10  S   UNL     1       1.257   5.245  -4.483  1.00  0.00    -0.086 SA
HETATM   11  C   UNL     1       1.806   3.645  -4.230  1.00  0.00     0.077 A 
BRANCH   8  12
HETATM   12  C   UNL     1       3.078   7.085  -5.543  1.00  0.00     0.035 C 
HETATM   13  C   UNL     1       4.197   7.719  -4.716  1.00  0.00     0.016 C 
HETATM   14  C   UNL     1       3.422   7.114  -7.031  1.00  0.00     0.016 C 
ENDBRANCH   8  12
ENDBRANCH   5   6
ENDBRANCH   1   5
BRANCH   3  15
HETATM   15  C   UNL     1       5.275   2.088  -8.083  1.00  0.00     0.225 C 
BRANCH  15  16
HETATM   16  C   UNL     1       5.587   3.198  -9.097  1.00  0.00     0.237 C 
HETATM   17  O   UNL     1       5.465   4.389  -8.809  1.00  0.00    -0.272 OA
HETATM   18  N   UNL     1       5.985   2.769 -10.347  1.00  0.00    -0.351 N 
HETATM   19  C   UNL     1       6.191   1.393 -10.772  1.00  0.00     0.126 C 
HETATM   20  C   UNL     1       6.271   3.689 -11.426  1.00  0.00     0.126 C 
HETATM   21  C   UNL     1       6.332   1.455 -12.291  1.00  0.00     0.021 C 
HETATM   22  C   UNL     1       5.934   2.880 -12.667  1.00  0.00     0.021 C 
ENDBRANCH  15  16
ENDBRANCH   3  15
TORSDOF 5
