REMARK  5 active torsions:
REMARK  status: ('A' for Active; 'I' for Inactive)
REMARK    1  A    between atoms: C_2  and  C_3 
REMARK    2  A    between atoms: C_2  and  N_16 
REMARK    3  A    between atoms: C_3  and  N_4 
REMARK       I    between atoms: N_4  and  C_5 
REMARK    4  A    between atoms: C_5  and  C_7 
REMARK    5  A    between atoms: C_7  and  C_8 
ROOT
HETATM    1  N   UNL     1       2.404   2.269  -1.012  1.00  0.00    -0.359 N 
HETATM    2  C   UNL     1       2.811   2.015  -2.307  1.00  0.00     0.222 C 
HETATM    3  O   UNL     1       3.578   1.096  -2.590  1.00  0.00    -0.273 OA
HETATM    4  H   UNL     1       1.867   3.099  -0.804  1.00  0.00     0.162 HD
ENDROOT
BRANCH   1   5
HETATM    5  C   UNL     1       2.911   1.473   0.097  1.00  0.00     0.158 C 
BRANCH   5   6
HETATM    6  C   UNL     1       2.437  -0.014   0.068  1.00  0.00     0.236 C 
HETATM    7  C   UNL     1       0.896  -0.017   0.149  1.00  0.00     0.044 C 
BRANCH   6   8
HETATM    8  N   UNL     1       3.042  -0.842   1.152  1.00  0.00     0.098 N 
HETATM    9  C   UNL     1       4.531  -0.874   1.096  1.00  0.00     0.299 C 
HETATM   10  C   UNL     1       5.096  -1.650  -0.108  1.00  0.00     0.198 C 
HETATM   11  O   UNL     1       4.617  -3.002  -0.124  1.00  0.00    -0.388 OA
HETATM   12  C   UNL     1       3.184  -3.038  -0.112  1.00  0.00     0.198 C 
HETATM   13  C   UNL     1       2.617  -2.268   1.095  1.00  0.00     0.299 C 
ENDBRANCH   6   8
ENDBRANCH   5   6
ENDBRANCH   1   5
BRANCH   2  14
HETATM   14  C   UNL     1       2.246   2.952  -3.354  1.00  0.00     0.146 C 
BRANCH  14  15
HETATM   15  C   UNL     1       3.189   4.060  -3.664  1.00  0.00     0.006 A 
HETATM   16  C   UNL     1       4.513   3.986  -4.187  1.00  0.00     0.038 A 
HETATM   17  C   UNL     1       5.319   2.798  -4.560  1.00  0.00     0.071 C 
HETATM   18  N   UNL     1       5.047   5.204  -4.329  1.00  0.00    -0.265 N 
HETATM   19  O   UNL     1       4.080   6.095  -3.919  1.00  0.00    -0.242 OA
ATOM     20  HN  UNL     1       5.981   5.428  -4.672  1.00  0.00     0.194 HD
HETATM   21  C   UNL     1       2.972   5.416  -3.527  1.00  0.00     0.081 A 
HETATM   22  C   UNL     1       1.835   6.237  -3.073  1.00  0.00     0.079 C 
ENDBRANCH  14  15
ENDBRANCH   2  14
TORSDOF 5
