REMARK  6 active torsions:
REMARK  status: ('A' for Active; 'I' for Inactive)
REMARK    1  A    between atoms: C_2  and  N_7 
REMARK    2  A    between atoms: N_3  and  C_13 
REMARK    3  A    between atoms: C_13  and  C_14 
REMARK    4  A    between atoms: C_14  and  C_18 
REMARK    5  A    between atoms: C_14  and  O_22 
REMARK    6  A    between atoms: C_17  and  C_24 
ROOT
HETATM    1  C   UNL     1       0.363  -0.818  -0.225  1.00  0.00     0.122 A 
HETATM    2  C   UNL     1      -0.863  -1.530  -0.166  1.00  0.00     0.136 A 
HETATM    3  N   UNL     1       1.579   1.000  -0.273  1.00  0.00    -0.325 N 
HETATM    4  C   UNL     1       0.286   0.559  -0.355  1.00  0.00     0.140 A 
HETATM    5  N   UNL     1       1.691  -1.210  -0.147  1.00  0.00    -0.346 N 
ATOM      6  HN  UNL     1       2.051  -2.161  -0.067  1.00  0.00     0.167 HD
HETATM    7  C   UNL     1       2.388  -0.097  -0.198  1.00  0.00     0.185 A 
HETATM    8  N   UNL     1      -2.001  -0.792  -0.313  1.00  0.00    -0.337 N 
ATOM      9  HN  UNL     1      -2.912  -1.250  -0.302  1.00  0.00     0.168 HD
HETATM   10  N   UNL     1      -0.817   1.313  -0.481  1.00  0.00    -0.336 N 
ATOM     11  HN  UNL     1      -0.819   2.329  -0.570  1.00  0.00     0.168 HD
HETATM   12  C   UNL     1      -1.919   0.542  -0.473  1.00  0.00     0.183 A 
ENDROOT
BRANCH   3  13
HETATM   13  C   UNL     1       2.018   2.375  -0.234  1.00  0.00     0.165 C 
BRANCH  13  14
HETATM   14  C   UNL     1       1.533   3.172   0.980  1.00  0.00     0.165 C 
BRANCH  14  15
HETATM   15  C   UNL     1       1.823   2.525   2.345  1.00  0.00     0.151 C 
HETATM   16  O   UNL     1       1.286   3.388   3.377  1.00  0.00    -0.383 OA
HETATM   17  C   UNL     1       2.078   3.221   4.563  1.00  0.00     0.168 C 
HETATM   18  C   UNL     1       3.217   2.283   4.219  1.00  0.00     0.029 C 
HETATM   19  C   UNL     1       3.291   2.377   2.713  1.00  0.00     0.036 C 
ENDBRANCH  14  15
BRANCH  14  20
HETATM   20  O   UNL     1       2.163   4.465   0.937  1.00  0.00    -0.391 OA
HETATM   21  H   UNL     1       1.965   4.874   1.804  1.00  0.00     0.210 HD
ENDBRANCH  14  20
ENDBRANCH  13  14
ENDBRANCH   3  13
BRANCH   2  22
HETATM   22  N   UNL     1      -0.972  -2.891   0.046  1.00  0.00    -0.356 N 
HETATM   23  C   UNL     1      -2.257  -3.598   0.028  1.00  0.00     0.082 C 
HETATM   24  C   UNL     1      -1.882  -5.060   0.365  1.00  0.00     0.027 C 
HETATM   25  C   UNL     1      -2.972  -3.532  -1.318  1.00  0.00     0.032 C 
HETATM   26  C   UNL     1      -0.354  -5.095   0.377  1.00  0.00     0.027 C 
HETATM   27  C   UNL     1       0.050  -3.662   0.755  1.00  0.00     0.086 C 
BRANCH  27  28
HETATM   28  C   UNL     1      -0.004  -3.498   2.292  1.00  0.00     0.021 C 
HETATM   29  C   UNL     1       0.188  -2.089   2.831  1.00  0.00     0.007 C 
ENDBRANCH  27  28
ENDBRANCH   2  22
TORSDOF 6
