REMARK  5 active torsions:
REMARK  status: ('A' for Active; 'I' for Inactive)
REMARK    1  A    between atoms: C_7  and  N_8 
REMARK       I    between atoms: N_8  and  C_9 
REMARK    2  A    between atoms: C_9  and  C_11 
REMARK    3  A    between atoms: C_11  and  N_12 
REMARK    4  A    between atoms: C_14  and  N_22 
REMARK    5  A    between atoms: C_16  and  C_17 
REMARK       I    between atoms: C_17  and  N_19 
ROOT
HETATM    1  N   UNL     1       1.287  -2.590   3.425  1.00  0.00    -0.313 N 
HETATM    2  C   UNL     1       1.311  -2.425   4.807  1.00  0.00     0.130 C 
HETATM    3  C   UNL     1       0.317  -1.772   5.431  1.00  0.00     0.119 C 
HETATM    4  C   UNL     1      -0.736  -1.144   4.665  1.00  0.00     0.060 C 
HETATM    5  C   UNL     1      -0.806  -1.300   3.329  1.00  0.00     0.102 C 
HETATM    6  C   UNL     1       0.199  -2.177   2.649  1.00  0.00     0.263 C 
HETATM    7  O   UNL     1       0.075  -2.490   1.466  1.00  0.00    -0.267 OA
ENDROOT
BRANCH   1   8
HETATM    8  C   UNL     1       2.346  -3.349   2.757  1.00  0.00     0.234 C 
BRANCH   8   9
HETATM    9  C   UNL     1       3.150  -2.453   1.804  1.00  0.00     0.236 C 
HETATM   10  N   UNL     1       2.669  -2.432   0.507  1.00  0.00    -0.355 N 
HETATM   11  H   UNL     1       1.694  -2.704   0.388  1.00  0.00     0.162 HD
HETATM   12  O   UNL     1       4.104  -1.780   2.188  1.00  0.00    -0.272 OA
BRANCH  10  13
HETATM   13  C   UNL     1       3.283  -1.631  -0.544  1.00  0.00     0.088 C 
HETATM   14  C   UNL     1       2.833  -0.149  -0.528  1.00  0.00     0.004 C 
HETATM   15  C   UNL     1       1.318   0.042  -0.668  1.00  0.00     0.012 C 
HETATM   16  C   UNL     1       3.572   0.619  -1.639  1.00  0.00     0.006 C 
HETATM   17  C   UNL     1       3.399  -0.016  -3.019  1.00  0.00     0.001 C 
HETATM   18  C   UNL     1       3.769  -1.497  -3.020  1.00  0.00     0.002 C 
HETATM   19  C   UNL     1       3.056  -2.277  -1.916  1.00  0.00     0.025 C 
ENDBRANCH  10  13
ENDBRANCH   8   9
ENDBRANCH   1   8
BRANCH   3  20
HETATM   20  N   UNL     1       0.338  -1.711   6.894  1.00  0.00    -0.114 N 
HETATM   21  O   UNL     1      -0.588  -1.106   7.449  1.00  0.00    -0.532 OA
HETATM   22  O   UNL     1       1.260  -2.284   7.492  1.00  0.00    -0.532 OA
ENDBRANCH   3  20
BRANCH   5  23
HETATM   23  C   UNL     1      -1.866  -0.549   2.596  1.00  0.00     0.255 C 
HETATM   24  O   UNL     1      -2.658   0.196   3.161  1.00  0.00    -0.268 OA
HETATM   25  N   UNL     1      -1.906  -0.709   1.249  1.00  0.00    -0.366 N 
HETATM   26  H   UNL     1      -1.284  -1.347   0.758  1.00  0.00     0.159 HD
HETATM   27  H   UNL     1      -2.600  -0.200   0.718  1.00  0.00     0.159 HD
ENDBRANCH   5  23
TORSDOF 5
