REMARK  7 active torsions:
REMARK  status: ('A' for Active; 'I' for Inactive)
REMARK    1  A    between atoms: N_1  and  C_11 
REMARK    2  A    between atoms: N_2  and  C1*_5 
REMARK       I    between atoms: N_8  and  C_9 
REMARK    3  A    between atoms: C_9  and  C_11 
REMARK    4  A    between atoms: N_10  and  C_16 
REMARK    5  A    between atoms: C4*_17  and  C5*_31 
REMARK    6  A    between atoms: C3*_19  and  O3*_30 
REMARK    7  A    between atoms: C5*_31  and  O5*_32 
ROOT
HETATM    1  N   UNL     1      -0.789   1.040  -0.338  1.00  0.00    -0.257 N 
HETATM    2  N   UNL     1      -0.512  -1.280  -0.718  1.00  0.00    -0.281 N 
HETATM    3  C   UNL     1      -1.304  -0.142  -0.844  1.00  0.00     0.334 C 
HETATM    4  C   UNL     1       0.545   1.209  -0.015  1.00  0.00     0.259 C 
HETATM    5  C   UNL     1       1.413   0.003  -0.136  1.00  0.00     0.022 C 
HETATM    6  C   UNL     1       0.832  -1.171  -0.421  1.00  0.00     0.110 C 
HETATM    7  O   UNL     1      -2.416  -0.181  -1.363  1.00  0.00    -0.246 OA
HETATM    8  O   UNL     1       1.036   2.284   0.309  1.00  0.00    -0.267 OA
HETATM    9  C   UNL     1       2.892   0.153   0.075  1.00  0.00     0.056 C 
ENDROOT
BRANCH   1  10
HETATM   10  C   UNL     1      -1.730   2.164  -0.227  1.00  0.00     0.240 C 
BRANCH  10  11
HETATM   11  C   UNL     1      -2.663   2.002   0.987  1.00  0.00     0.242 C 
HETATM   12  N   UNL     1      -4.008   2.341   0.907  1.00  0.00    -0.316 N 
HETATM   13  C   UNL     1      -4.897   2.507  -0.173  1.00  0.00     0.043 C 
HETATM   14  C   UNL     1      -4.672   2.842   2.127  1.00  0.00     0.137 C 
HETATM   15  C   UNL     1      -6.003   3.255   0.250  1.00  0.00    -0.027 C 
HETATM   16  C   UNL     1      -4.872   2.021  -1.467  1.00  0.00     0.033 C 
HETATM   17  C   UNL     1      -6.943   3.759  -0.637  1.00  0.00     0.045 C 
HETATM   18  C   UNL     1      -6.068   3.325   1.739  1.00  0.00     0.061 C 
HETATM   19  C   UNL     1      -6.836   3.380  -1.985  1.00  0.00     0.103 C 
HETATM   20  C   UNL     1      -5.863   2.442  -2.375  1.00  0.00     0.038 C 
HETATM   21  O   UNL     1      -2.168   1.716   2.089  1.00  0.00    -0.271 OA
BRANCH  19  22
HETATM   22  N   UNL     1      -7.740   3.977  -2.958  1.00  0.00    -0.116 N 
HETATM   23  O   UNL     1      -8.317   5.029  -2.639  1.00  0.00    -0.532 OA
HETATM   24  O   UNL     1      -7.856   3.415  -4.054  1.00  0.00    -0.532 OA
ENDBRANCH  19  22
ENDBRANCH  10  11
ENDBRANCH   1  10
BRANCH   2  25
HETATM   25  C1* UNL     1      -1.211  -2.570  -0.881  1.00  0.00     0.235 C 
HETATM   26  O4* UNL     1      -0.423  -3.701  -0.443  1.00  0.00    -0.356 OA
HETATM   27  C4* UNL     1      -0.590  -4.776  -1.398  1.00  0.00     0.176 C 
HETATM   28  C3* UNL     1      -1.728  -4.384  -2.347  1.00  0.00     0.153 C 
HETATM   29  C2* UNL     1      -1.722  -2.874  -2.290  1.00  0.00     0.088 C 
BRANCH  27  30
HETATM   30  C5* UNL     1      -0.767  -6.133  -0.700  1.00  0.00     0.198 C 
BRANCH  30  31
HETATM   31  O5* UNL     1      -2.003  -6.213   0.013  1.00  0.00    -0.398 OA
HETATM   32  H5* UNL     1      -1.877  -5.723   0.849  1.00  0.00     0.209 HD
ENDBRANCH  30  31
ENDBRANCH  27  30
BRANCH  28  33
HETATM   33  O3* UNL     1      -3.030  -4.831  -1.975  1.00  0.00    -0.393 OA
HETATM   34  H3* UNL     1      -2.950  -5.608  -1.381  1.00  0.00     0.210 HD
ENDBRANCH  28  33
ENDBRANCH   2  25
TORSDOF 7
