REMARK  4 active torsions:
REMARK  status: ('A' for Active; 'I' for Inactive)
REMARK    1  A    between atoms: C_5  and  C_10 
REMARK       I    between atoms: C_10  and  N_12 
REMARK    2  A    between atoms: N_12  and  C_13 
REMARK    3  A    between atoms: C_13  and  C_14 
REMARK    4  A    between atoms: C_14  and  C_15 
ROOT
HETATM    1  C   UNL     1       5.359   2.619   0.024  1.00  0.00     0.265 C 
HETATM    2  O   UNL     1       6.580   2.531   0.053  1.00  0.00    -0.266 OA
HETATM    3  N   UNL     1       4.666   3.809   0.012  1.00  0.00    -0.356 N 
HETATM    4  H   UNL     1       3.653   3.768  -0.049  1.00  0.00     0.162 HD
ENDROOT
BRANCH   1   5
HETATM    5  C   UNL     1       4.527   1.333  -0.003  1.00  0.00     0.094 A 
HETATM    6  N   UNL     1       3.231   1.405  -0.006  1.00  0.00    -0.295 N 
HETATM    7  N   UNL     1       2.503   0.236  -0.025  1.00  0.00    -0.265 N 
ATOM      8  HN  UNL     1       2.761   2.310   0.005  1.00  0.00     0.187 HD
HETATM    9  C   UNL     1       1.055   0.367  -0.029  1.00  0.00     0.181 C 
HETATM   10  C   UNL     1       3.022  -1.048  -0.018  1.00  0.00     0.238 A 
HETATM   11  C   UNL     1       4.514  -1.203  -0.017  1.00  0.00     0.111 A 
HETATM   12  O   UNL     1       2.310  -2.057  -0.017  1.00  0.00    -0.272 OA
HETATM   13  C   UNL     1       5.324   0.065  -0.024  1.00  0.00     0.073 A 
ENDBRANCH   1   5
BRANCH   3  14
HETATM   14  C   UNL     1       5.394   5.072  -0.004  1.00  0.00     0.129 C 
BRANCH  14  15
HETATM   15  C   UNL     1       4.497   6.307   0.002  1.00  0.00     0.077 C 
BRANCH  15  16
HETATM   16  C   UNL     1       5.274   7.588   0.055  1.00  0.00     0.018 A 
HETATM   17  C   UNL     1       5.669   8.263   1.195  1.00  0.00     0.076 A 
HETATM   18  S   UNL     1       6.496   9.703   0.779  1.00  0.00    -0.087 SA
HETATM   19  C   UNL     1       6.277   9.335  -0.885  1.00  0.00     0.046 A 
HETATM   20  C   UNL     1       6.790  10.263  -1.932  1.00  0.00     0.076 C 
HETATM   21  N   UNL     1       5.635   8.211  -1.133  1.00  0.00    -0.357 N 
ATOM     22  HN  UNL     1       5.432   7.850  -2.065  1.00  0.00     0.166 HD
ENDBRANCH  15  16
ENDBRANCH  14  15
ENDBRANCH   3  14
TORSDOF 4
