REMARK  5 active torsions:
REMARK  status: ('A' for Active; 'I' for Inactive)
REMARK    1  A    between atoms: C_2  and  N_3 
REMARK    2  A    between atoms: C_5  and  N_6 
REMARK       I    between atoms: N_6  and  C_7 
REMARK       I    between atoms: C_7  and  N_9 
REMARK    3  A    between atoms: N_9  and  C_10 
REMARK    4  A    between atoms: C_10  and  C_11 
REMARK    5  A    between atoms: C_11  and  N_12 
ROOT
HETATM    1  N   UNL     1       4.231  -4.947   4.463  1.00  0.00    -0.306 N 
HETATM    2  C   UNL     1       4.849  -4.249   5.461  1.00  0.00     0.320 C 
HETATM    3  O   UNL     1       4.658  -4.573   6.633  1.00  0.00    -0.247 OA
HETATM    4  N   UNL     1       5.785  -3.334   5.075  1.00  0.00    -0.341 N 
HETATM    5  H   UNL     1       3.912  -5.858   4.771  1.00  0.00     0.171 HD
HETATM    6  H   UNL     1       5.802  -3.045   4.110  1.00  0.00     0.164 HD
ENDROOT
BRANCH   1   7
HETATM    7  C   UNL     1       4.261  -4.696   3.108  1.00  0.00     0.070 A 
HETATM    8  C   UNL     1       4.096  -3.488   2.477  1.00  0.00     0.141 A 
HETATM    9  N   UNL     1       4.163  -3.749   1.139  1.00  0.00    -0.302 N 
HETATM   10  N   UNL     1       4.381  -5.048   0.859  1.00  0.00    -0.308 N 
HETATM   11  C   UNL     1       4.396  -5.629   2.061  1.00  0.00     0.138 A 
ATOM     12  HN  UNL     1       4.505  -5.484  -0.054  1.00  0.00     0.186 HD
BRANCH   9  13
HETATM   13  C   UNL     1       3.978  -2.795   0.062  1.00  0.00     0.143 C 
HETATM   14  C   UNL     1       5.253  -2.038  -0.261  1.00  0.00     0.028 C 
ENDBRANCH   9  13
ENDBRANCH   1   7
BRANCH   4  15
HETATM   15  C   UNL     1       6.700  -2.678   5.993  1.00  0.00     0.154 C 
BRANCH  15  16
HETATM   16  C   UNL     1       7.648  -3.655   6.724  1.00  0.00     0.292 C 
BRANCH  16  17
HETATM   17  N   UNL     1       8.535  -3.021   7.720  1.00  0.00     0.094 N 
HETATM   18  C   UNL     1       9.489  -2.065   7.133  1.00  0.00     0.273 C 
HETATM   19  C   UNL     1      10.600  -2.727   6.315  1.00  0.00     0.030 C 
HETATM   20  C   UNL     1      11.337  -3.782   7.133  1.00  0.00     0.004 C 
HETATM   21  C   UNL     1      10.364  -4.747   7.807  1.00  0.00     0.035 C 
HETATM   22  C   UNL     1       9.266  -3.989   8.574  1.00  0.00     0.219 C 
HETATM   23  C   UNL     1       8.355  -4.967   9.327  1.00  0.00     0.043 C 
ENDBRANCH  16  17
ENDBRANCH  15  16
ENDBRANCH   4  15
TORSDOF 5
