REMARK  2 active torsions:
REMARK  status: ('A' for Active; 'I' for Inactive)
REMARK       I    between atoms: C_2  and  N_3 
REMARK       I    between atoms: C_2  and  N_12 
REMARK    1  A    between atoms: N_3  and  C_4 
REMARK    2  A    between atoms: N_12  and  C_13 
ROOT
HETATM    1  O   UNL     1       1.243   0.950  -0.840  1.00  0.00    -0.247 OA
HETATM    2  C   UNL     1       2.283   0.479  -0.407  1.00  0.00     0.321 C 
HETATM    3  N   UNL     1       2.768   0.752   0.851  1.00  0.00    -0.330 N 
HETATM    4  N   UNL     1       3.081  -0.446  -1.065  1.00  0.00    -0.309 N 
HETATM    5  H   UNL     1       3.776   0.844   0.872  1.00  0.00     0.165 HD
HETATM    6  H   UNL     1       3.760  -0.921  -0.489  1.00  0.00     0.170 HD
ENDROOT
BRANCH   3   7
HETATM    7  C   UNL     1       2.094   1.675   1.786  1.00  0.00     0.172 C 
HETATM    8  C   UNL     1       0.562   1.585   1.784  1.00  0.00     0.034 C 
HETATM    9  C   UNL     1      -0.066   2.243   3.004  1.00  0.00     0.004 C 
HETATM   10  C   UNL     1      -0.302   3.739   2.836  1.00  0.00     0.015 C 
HETATM   11  C   UNL     1       0.732   4.497   2.015  1.00  0.00     0.095 C 
HETATM   12  N   UNL     1       2.114   4.153   2.268  1.00  0.00    -0.261 NA
HETATM   13  C   UNL     1       2.719   3.080   1.658  1.00  0.00     0.220 C 
HETATM   14  H   UNL     1       2.739   4.950   2.207  1.00  0.00     0.130 HD
HETATM   15  O   UNL     1       3.855   3.237   1.198  1.00  0.00    -0.278 OA
ENDBRANCH   3   7
BRANCH   4  16
HETATM   16  C   UNL     1       2.837  -0.970  -2.356  1.00  0.00     0.038 A 
HETATM   17  C   UNL     1       1.927  -0.410  -3.246  1.00  0.00     0.046 A 
HETATM   18  C   UNL     1       1.723  -1.023  -4.471  1.00  0.00     0.090 A 
HETATM   19  N   UNL     1       2.370  -2.137  -4.868  1.00  0.00    -0.375 N 
HETATM   20  C   UNL     1       3.265  -2.653  -4.001  1.00  0.00     0.090 A 
ATOM     21  HN  UNL     1       2.192  -2.567  -5.776  1.00  0.00     0.164 HD
HETATM   22  C   UNL     1       3.538  -2.112  -2.752  1.00  0.00     0.046 A 
ENDBRANCH   4  16
TORSDOF 2
