REMARK  6 active torsions:
REMARK  status: ('A' for Active; 'I' for Inactive)
REMARK    1  A    between atoms: C_4  and  C_5 
REMARK    2  A    between atoms: C_5  and  C_6 
REMARK    3  A    between atoms: C_6  and  N_7 
REMARK    4  A    between atoms: N_7  and  S_8 
REMARK    5  A    between atoms: S_8  and  C_11 
REMARK    6  A    between atoms: C_11  and  C_12 
ROOT
HETATM    1  N   UNL     1       6.473   3.963  -0.286  1.00  0.00    -0.220 NA
HETATM    2  H   UNL     1       7.091   3.804  -1.084  1.00  0.00     0.139 HD
ENDROOT
BRANCH   1   3
HETATM    3  C   UNL     1       5.284   3.059  -0.358  1.00  0.00     0.108 C 
BRANCH   3   4
HETATM    4  C   UNL     1       5.701   1.586  -0.351  1.00  0.00     0.056 C 
BRANCH   4   5
HETATM    5  C   UNL     1       4.515   0.694  -0.501  1.00  0.00    -0.023 A 
HETATM    6  C   UNL     1       3.709   0.173   0.491  1.00  0.00     0.118 A 
HETATM    7  N   UNL     1       2.723  -0.527  -0.141  1.00  0.00    -0.308 N 
HETATM    8  C   UNL     1       1.614  -1.216   0.473  1.00  0.00     0.177 C 
HETATM    9  N   UNL     1       2.839  -0.518  -1.480  1.00  0.00    -0.310 N 
HETATM   10  C   UNL     1       3.925   0.225  -1.699  1.00  0.00     0.115 A 
ATOM     11  HN  UNL     1       2.238  -0.973  -2.167  1.00  0.00     0.186 HD
ENDBRANCH   4   5
ENDBRANCH   3   4
ENDBRANCH   1   3
BRANCH   1  12
HETATM   12  S   UNL     1       6.012   5.613  -0.234  1.00  0.00     0.209 S 
HETATM   13  O   UNL     1       5.391   5.874  -1.513  1.00  0.00    -0.211 OA
HETATM   14  O   UNL     1       5.319   5.820   1.015  1.00  0.00    -0.211 OA
BRANCH  12  15
HETATM   15  C   UNL     1       7.607   6.405  -0.191  1.00  0.00     0.162 C 
BRANCH  15  16
HETATM   16  C   UNL     1       7.606   7.941  -0.155  1.00  0.00     0.001 C 
HETATM   17  C   UNL     1       6.917   8.621  -1.349  1.00  0.00     0.005 C 
HETATM   18  C   UNL     1       7.162  10.133  -1.321  1.00  0.00     0.000 C 
HETATM   19  C   UNL     1       6.752  10.766   0.009  1.00  0.00     0.000 C 
HETATM   20  C   UNL     1       7.333  10.027   1.213  1.00  0.00     0.000 C 
HETATM   21  C   UNL     1       7.048   8.526   1.149  1.00  0.00     0.005 C 
ENDBRANCH  15  16
ENDBRANCH  12  15
ENDBRANCH   1  12
TORSDOF 6
