REMARK  8 active torsions:
REMARK  status: ('A' for Active; 'I' for Inactive)
REMARK    1  A    between atoms: O_2  and  C_3 
REMARK    2  A    between atoms: C_8  and  C_9 
REMARK    3  A    between atoms: C_9  and  O_10 
REMARK    4  A    between atoms: O_10  and  C_11 
REMARK    5  A    between atoms: C_11  and  C_12 
REMARK    6  A    between atoms: C_12  and  O_13 
REMARK    7  A    between atoms: C_12  and  C_14 
REMARK    8  A    between atoms: C_14  and  N_15 
ROOT
HETATM    1  C   UNL     1      -0.586  -0.482  -2.273  1.00  0.00     0.160 C 
ENDROOT
BRANCH   1   2
HETATM    2  C   UNL     1      -0.176  -1.931  -1.910  1.00  0.00     0.201 C 
BRANCH   2   3
HETATM    3  O   UNL     1       0.948  -1.873  -1.029  1.00  0.00    -0.384 OA
BRANCH   3   4
HETATM    4  C   UNL     1       1.509  -3.145  -0.674  1.00  0.00     0.209 C 
BRANCH   4   5
HETATM    5  C   UNL     1       2.767  -2.910   0.143  1.00  0.00    -0.001 A 
HETATM    6  C   UNL     1       3.201  -3.792   1.153  1.00  0.00     0.076 A 
HETATM    7  C   UNL     1       4.341  -3.471   1.907  1.00  0.00     0.037 A 
HETATM    8  C   UNL     1       5.086  -2.324   1.632  1.00  0.00     0.003 A 
HETATM    9  C   UNL     1       4.707  -1.489   0.591  1.00  0.00     0.001 A 
HETATM   10  C   UNL     1       3.562  -1.782  -0.148  1.00  0.00     0.012 A 
BRANCH   6  11
HETATM   11  O   UNL     1       2.457  -4.928   1.364  1.00  0.00    -0.355 OA
HETATM   12  C   UNL     1       3.117  -5.983   2.065  1.00  0.00     0.210 C 
ENDBRANCH   6  11
ENDBRANCH   4   5
ENDBRANCH   3   4
ENDBRANCH   2   3
ENDBRANCH   1   2
BRANCH   1  13
HETATM   13  O   UNL     1       0.476   0.131  -3.025  1.00  0.00    -0.392 OA
HETATM   14  H   UNL     1       0.573  -0.344  -3.869  1.00  0.00     0.210 HD
ENDBRANCH   1  13
BRANCH   1  15
HETATM   15  C   UNL     1      -1.913  -0.437  -3.059  1.00  0.00     0.168 C 
BRANCH  15  16
HETATM   16  N   UNL     1      -2.295   0.894  -3.486  1.00  0.00    -0.295 N 
HETATM   17  C   UNL     1      -1.893   1.478  -4.711  1.00  0.00     0.329 A 
HETATM   18  O   UNL     1      -1.242   0.937  -5.592  1.00  0.00    -0.246 OA
HETATM   19  N   UNL     1      -2.417   2.789  -4.720  1.00  0.00    -0.302 N 
HETATM   20  C   UNL     1      -2.259   3.750  -5.770  1.00  0.00     0.161 C 
HETATM   21  C   UNL     1      -3.102   3.013  -3.519  1.00  0.00     0.065 A 
HETATM   22  C   UNL     1      -3.759   4.145  -3.077  1.00  0.00     0.032 A 
HETATM   23  C   UNL     1      -3.029   1.842  -2.754  1.00  0.00     0.066 A 
HETATM   24  C   UNL     1      -4.367   4.079  -1.822  1.00  0.00     0.002 A 
HETATM   25  C   UNL     1      -4.304   2.902  -1.049  1.00  0.00     0.002 A 
HETATM   26  C   UNL     1      -3.631   1.763  -1.518  1.00  0.00     0.032 A 
ENDBRANCH  15  16
ENDBRANCH   1  15
TORSDOF 8
