REMARK  7 active torsions:
REMARK  status: ('A' for Active; 'I' for Inactive)
REMARK    1  A    between atoms: C_2  and  C_3 
REMARK    2  A    between atoms: C_3  and  N_4 
REMARK    3  A    between atoms: C_5  and  N_6 
REMARK    4  A    between atoms: C_7  and  N_8 
REMARK    5  A    between atoms: N_8  and  C_9 
REMARK       I    between atoms: N_8  and  C_13 
REMARK    6  A    between atoms: C_9  and  C_10 
REMARK    7  A    between atoms: C_10  and  O_11 
ROOT
HETATM    1  N   UNL     1       4.459  -1.189  -1.031  1.00  0.00    -0.288 N 
HETATM    2  C   UNL     1       5.184  -2.396  -1.041  1.00  0.00     0.117 C 
HETATM    3  C   UNL     1       6.547  -2.373  -0.958  1.00  0.00     0.144 C 
HETATM    4  C   UNL     1       7.221  -1.033  -0.896  1.00  0.00     0.279 C 
HETATM    5  O   UNL     1       8.441  -0.897  -0.924  1.00  0.00    -0.265 OA
HETATM    6  N   UNL     1       6.417   0.056  -0.810  1.00  0.00    -0.273 N 
HETATM    7  C   UNL     1       5.075   0.056  -0.979  1.00  0.00     0.330 C 
HETATM    8  O   UNL     1       4.488   1.135  -1.064  1.00  0.00    -0.246 OA
HETATM    9  H   UNL     1       6.866   0.956  -0.787  1.00  0.00     0.173 HD
ENDROOT
BRANCH   3  10
HETATM   10  N   UNL     1       7.376  -3.508  -0.902  1.00  0.00    -0.309 N 
HETATM   11  C   UNL     1       8.324  -3.737   0.112  1.00  0.00     0.220 C 
HETATM   12  O   UNL     1       9.041  -4.747   0.122  1.00  0.00    -0.273 OA
HETATM   13  C   UNL     1       8.437  -2.796   1.289  1.00  0.00     0.117 C 
BRANCH  10  14
HETATM   14  C   UNL     1       7.365  -4.540  -1.958  1.00  0.00     0.158 C 
BRANCH  14  15
HETATM   15  C   UNL     1       6.983  -4.168  -3.394  1.00  0.00     0.187 C 
BRANCH  15  16
HETATM   16  O   UNL     1       7.906  -3.233  -3.956  1.00  0.00    -0.394 OA
HETATM   17  C   UNL     1       7.650  -3.039  -5.344  1.00  0.00     0.201 C 
ENDBRANCH  15  16
ENDBRANCH  14  15
ENDBRANCH  10  14
ENDBRANCH   3  10
BRANCH   2  18
HETATM   18  N   UNL     1       4.498  -3.608  -1.099  1.00  0.00    -0.286 NA
HETATM   19  H   UNL     1       3.578  -3.577  -0.674  1.00  0.00     0.125 HD
HETATM   20  H   UNL     1       5.042  -4.385  -0.733  1.00  0.00     0.125 HD
ENDBRANCH   2  18
BRANCH   1  21
HETATM   21  C   UNL     1       2.983  -1.155  -1.030  1.00  0.00     0.135 C 
BRANCH  21  22
HETATM   22  C   UNL     1       2.361  -1.197   0.379  1.00  0.00     0.016 C 
HETATM   23  C   UNL     1       2.720  -0.018   1.277  1.00  0.00     0.006 C 
ENDBRANCH  21  22
ENDBRANCH   1  21
TORSDOF 7
