REMARK  4 active torsions:
REMARK  status: ('A' for Active; 'I' for Inactive)
REMARK       I    between atoms: N_1  and  C_2 
REMARK    1  A    between atoms: C_2  and  C_4 
REMARK    2  A    between atoms: C_4  and  N_5 
REMARK    3  A    between atoms: C_8  and  N_11 
REMARK       I    between atoms: N_11  and  C_12 
REMARK       I    between atoms: C_12  and  N_14 
REMARK    4  A    between atoms: N_14  and  C_15 
ROOT
HETATM    1  N   UNL     1       6.612   1.685  -1.378  1.00  0.00    -0.338 N 
HETATM    2  C   UNL     1       6.997   3.001  -1.561  1.00  0.00     0.321 C 
HETATM    3  O   UNL     1       6.169   3.893  -1.691  1.00  0.00    -0.247 OA
HETATM    4  N   UNL     1       8.365   3.157  -1.603  1.00  0.00    -0.309 N 
HETATM    5  H   UNL     1       7.285   1.033  -1.008  1.00  0.00     0.164 HD
HETATM    6  H   UNL     1       8.925   2.330  -1.467  1.00  0.00     0.170 HD
ENDROOT
BRANCH   1   7
HETATM    7  C   UNL     1       5.185   1.385  -1.226  1.00  0.00     0.089 C 
HETATM    8  C   UNL     1       4.709   1.619   0.213  1.00  0.00     0.055 C 
HETATM    9  C   UNL     1       4.988   0.428   1.130  1.00  0.00     0.275 C 
HETATM   10  N   UNL     1       4.516  -0.869   0.616  1.00  0.00     0.097 N 
HETATM   11  C   UNL     1       5.092  -1.115  -0.716  1.00  0.00     0.275 C 
HETATM   12  C   UNL     1       4.831  -0.010  -1.739  1.00  0.00     0.055 C 
BRANCH  10  13
HETATM   13  C   UNL     1       3.031  -0.973   0.585  1.00  0.00     0.374 C 
BRANCH  13  14
HETATM   14  C   UNL     1       2.409  -1.032   1.985  1.00  0.00     0.243 C 
HETATM   15  N   UNL     1       3.141  -1.683   2.935  1.00  0.00    -0.369 N 
HETATM   16  H   UNL     1       2.778  -1.746   3.875  1.00  0.00     0.159 HD
HETATM   17  H   UNL     1       4.077  -2.002   2.719  1.00  0.00     0.159 HD
HETATM   18  O   UNL     1       1.290  -0.598   2.241  1.00  0.00    -0.272 OA
ENDBRANCH  13  14
ENDBRANCH  10  13
ENDBRANCH   1   7
BRANCH   4  19
HETATM   19  C   UNL     1       9.058   4.375  -1.812  1.00  0.00     0.038 A 
HETATM   20  C   UNL     1       8.427   5.592  -2.058  1.00  0.00     0.046 A 
HETATM   21  C   UNL     1       9.198   6.726  -2.243  1.00  0.00     0.090 A 
HETATM   22  N   UNL     1      10.547   6.729  -2.204  1.00  0.00    -0.375 N 
HETATM   23  C   UNL     1      11.142   5.544  -1.971  1.00  0.00     0.090 A 
ATOM     24  HN  UNL     1      11.087   7.583  -2.344  1.00  0.00     0.164 HD
HETATM   25  C   UNL     1      10.453   4.353  -1.775  1.00  0.00     0.046 A 
ENDBRANCH   4  19
TORSDOF 4
