REMARK  6 active torsions:
REMARK  status: ('A' for Active; 'I' for Inactive)
REMARK    1  A    between atoms: N_2  and  C_3 
REMARK    2  A    between atoms: N_4  and  C_18 
REMARK    3  A    between atoms: C_9  and  C_26 
REMARK    4  A    between atoms: C_16  and  C_18 
REMARK    5  A    between atoms: C_16  and  C_25 
REMARK    6  A    between atoms: C_25  and  O_28 
ROOT
HETATM    1  C   UNL     1       0.401  -0.817   0.013  1.00  0.00     0.122 A 
HETATM    2  C   UNL     1      -0.804  -1.572   0.001  1.00  0.00     0.136 A 
HETATM    3  N   UNL     1       1.557   1.040   0.042  1.00  0.00    -0.326 N 
HETATM    4  C   UNL     1       0.282   0.562  -0.059  1.00  0.00     0.140 A 
HETATM    5  N   UNL     1       1.738  -1.167   0.107  1.00  0.00    -0.346 N 
ATOM      6  HN  UNL     1       2.127  -2.107   0.178  1.00  0.00     0.167 HD
HETATM    7  C   UNL     1       2.399  -0.031   0.085  1.00  0.00     0.185 A 
HETATM    8  N   UNL     1      -1.959  -0.853  -0.146  1.00  0.00    -0.337 N 
ATOM      9  HN  UNL     1      -2.856  -1.336  -0.191  1.00  0.00     0.168 HD
HETATM   10  N   UNL     1      -0.839   1.288  -0.176  1.00  0.00    -0.336 N 
ATOM     11  HN  UNL     1      -0.869   2.307  -0.217  1.00  0.00     0.168 HD
HETATM   12  C   UNL     1      -1.916   0.490  -0.232  1.00  0.00     0.183 A 
ENDROOT
BRANCH   2  13
HETATM   13  N   UNL     1      -0.893  -2.959   0.126  1.00  0.00    -0.350 N 
HETATM   14  C   UNL     1       0.158  -3.692   0.877  1.00  0.00     0.177 C 
HETATM   15  C   UNL     1       0.089  -5.219   0.611  1.00  0.00     0.242 C 
HETATM   16  O   UNL     1       1.085  -5.941   0.676  1.00  0.00    -0.271 OA
HETATM   17  N   UNL     1      -1.212  -5.731   0.597  1.00  0.00    -0.353 N 
HETATM   18  C   UNL     1      -2.218  -5.007  -0.169  1.00  0.00     0.145 C 
HETATM   19  C   UNL     1      -1.418  -7.116   0.943  1.00  0.00     0.152 C 
HETATM   20  C   UNL     1      -2.248  -3.515   0.184  1.00  0.00     0.145 C 
BRANCH  14  21
HETATM   21  C   UNL     1      -0.004  -3.619   2.416  1.00  0.00     0.030 C 
HETATM   22  C   UNL     1      -0.053  -2.252   3.065  1.00  0.00     0.007 C 
ENDBRANCH  14  21
ENDBRANCH   2  13
BRANCH   3  23
HETATM   23  C   UNL     1       1.933   2.445   0.065  1.00  0.00     0.147 C 
BRANCH  23  24
HETATM   24  C   UNL     1       2.047   3.027   1.469  1.00  0.00     0.040 C 
HETATM   25  C   UNL     1       0.760   3.117   2.320  1.00  0.00     0.183 C 
HETATM   26  O   UNL     1       0.989   4.529   2.560  1.00  0.00    -0.389 OA
HETATM   27  C   UNL     1       1.945   4.567   1.471  1.00  0.00     0.183 C 
BRANCH  24  28
HETATM   28  C   UNL     1       3.225   2.504   2.283  1.00  0.00     0.179 C 
BRANCH  28  29
HETATM   29  O   UNL     1       4.434   2.740   1.570  1.00  0.00    -0.400 OA
HETATM   30  H   UNL     1       4.679   1.926   1.098  1.00  0.00     0.209 HD
ENDBRANCH  28  29
ENDBRANCH  24  28
ENDBRANCH  23  24
ENDBRANCH   3  23
TORSDOF 6
