REMARK  6 active torsions:
REMARK  status: ('A' for Active; 'I' for Inactive)
REMARK    1  A    between atoms: C_2  and  C_3 
REMARK       I    between atoms: C_2  and  N_16 
REMARK    2  A    between atoms: C_3  and  C_4 
REMARK    3  A    between atoms: C_4  and  N_5 
REMARK    4  A    between atoms: N_16  and  C_17 
REMARK    5  A    between atoms: C_17  and  C_18 
REMARK    6  A    between atoms: C_18  and  C_19 
ROOT
HETATM    1  O   UNL     1       1.161  -0.387  -0.347  1.00  0.00    -0.274 OA
HETATM    2  C   UNL     1       2.242   0.089  -0.018  1.00  0.00     0.219 C 
HETATM    3  N   UNL     1       2.893  -0.254   1.152  1.00  0.00    -0.361 N 
HETATM    4  H   UNL     1       3.664   0.324   1.461  1.00  0.00     0.162 HD
ENDROOT
BRANCH   2   5
HETATM    5  C   UNL     1       3.013   1.058  -0.891  1.00  0.00     0.123 C 
BRANCH   5   6
HETATM    6  C   UNL     1       2.070   1.835  -1.808  1.00  0.00     0.144 C 
BRANCH   6   7
HETATM    7  N   UNL     1       2.791   2.756  -2.675  1.00  0.00    -0.287 N 
HETATM    8  C   UNL     1       3.079   4.065  -2.352  1.00  0.00     0.231 C 
HETATM    9  O   UNL     1       2.907   4.624  -1.283  1.00  0.00    -0.273 OA
HETATM   10  C   UNL     1       3.585   4.697  -3.624  1.00  0.00     0.091 C 
HETATM   11  C   UNL     1       4.511   5.895  -3.577  1.00  0.00     0.015 C 
HETATM   12  C   UNL     1       4.289   3.505  -4.250  1.00  0.00     0.091 C 
HETATM   13  C   UNL     1       4.968   6.224  -5.010  1.00  0.00     0.001 C 
HETATM   14  C   UNL     1       5.561   5.010  -5.743  1.00  0.00     0.001 C 
HETATM   15  C   UNL     1       4.640   3.780  -5.695  1.00  0.00     0.015 C 
HETATM   16  C   UNL     1       3.340   2.395  -3.887  1.00  0.00     0.231 C 
HETATM   17  O   UNL     1       3.193   1.350  -4.494  1.00  0.00    -0.273 OA
ENDBRANCH   6   7
ENDBRANCH   5   6
ENDBRANCH   2   5
BRANCH   3  18
HETATM   18  C   UNL     1       2.250  -1.136   2.120  1.00  0.00     0.128 C 
BRANCH  18  19
HETATM   19  C   UNL     1       3.094  -1.351   3.373  1.00  0.00     0.076 C 
BRANCH  19  20
HETATM   20  C   UNL     1       2.419  -2.287   4.343  1.00  0.00     0.010 A 
HETATM   21  C   UNL     1       2.690  -3.654   4.320  1.00  0.00     0.025 A 
HETATM   22  C   UNL     1       2.029  -4.487   5.220  1.00  0.00     0.003 A 
HETATM   23  C   UNL     1       1.117  -3.938   6.112  1.00  0.00     0.017 A 
HETATM   24  C   UNL     1       0.902  -2.572   6.067  1.00  0.00     0.088 A 
HETATM   25  N   UNL     1       1.528  -1.739   5.206  1.00  0.00    -0.369 N 
ATOM     26  HN  UNL     1       1.338  -0.737   5.205  1.00  0.00     0.165 HD
ENDBRANCH  19  20
ENDBRANCH  18  19
ENDBRANCH   3  18
TORSDOF 6
