REMARK  4 active torsions:
REMARK  status: ('A' for Active; 'I' for Inactive)
REMARK    1  A    between atoms: C_2  and  N_3 
REMARK    2  A    between atoms: C_2  and  C_14 
REMARK       I    between atoms: N_3  and  C_4 
REMARK    3  A    between atoms: C_4  and  C_6 
REMARK    4  A    between atoms: C_6  and  N_7 
ROOT
HETATM    1  N   UNL     1       2.832   1.022   1.084  1.00  0.00    -0.355 N 
HETATM    2  C   UNL     1       4.030   1.703   0.966  1.00  0.00     0.236 C 
HETATM    3  O   UNL     1       4.845   1.492   0.069  1.00  0.00    -0.272 OA
HETATM    4  H   UNL     1       2.379   1.044   1.996  1.00  0.00     0.162 HD
ENDROOT
BRANCH   1   5
HETATM    5  C   UNL     1       2.419  -0.001   0.122  1.00  0.00     0.084 C 
HETATM    6  C   UNL     1       0.896  -0.050   0.058  1.00  0.00     0.032 C 
BRANCH   5   7
HETATM    7  C   UNL     1       3.161  -1.330   0.365  1.00  0.00     0.012 C 
HETATM    8  C   UNL     1       2.968  -2.431  -0.701  1.00  0.00     0.011 C 
HETATM    9  C   UNL     1       2.949  -3.724   0.142  1.00  0.00    -0.014 C 
HETATM   10  C   UNL     1       1.567  -3.858   0.792  1.00  0.00     0.005 C 
HETATM   11  C   UNL     1       3.815  -3.361   1.351  1.00  0.00     0.010 C 
HETATM   12  C   UNL     1       1.593  -2.754   1.859  1.00  0.00     0.005 C 
HETATM   13  C   UNL     1       2.981  -2.112   1.689  1.00  0.00    -0.008 C 
ENDBRANCH   5   7
ENDBRANCH   1   5
BRANCH   2  14
HETATM   14  C   UNL     1       4.293   2.728   2.069  1.00  0.00     0.234 C 
BRANCH  14  15
HETATM   15  N   UNL     1       5.029   2.134   3.179  1.00  0.00    -0.316 N 
HETATM   16  C   UNL     1       6.414   2.134   3.162  1.00  0.00     0.095 A 
HETATM   17  C   UNL     1       7.118   1.594   4.165  1.00  0.00     0.017 A 
HETATM   18  C   UNL     1       6.433   1.001   5.287  1.00  0.00     0.007 A 
HETATM   19  C   UNL     1       5.093   0.970   5.327  1.00  0.00     0.074 A 
HETATM   20  C   UNL     1       4.300   1.546   4.209  1.00  0.00     0.247 A 
HETATM   21  O   UNL     1       3.073   1.479   4.232  1.00  0.00    -0.268 OA
ENDBRANCH  14  15
ENDBRANCH   2  14
TORSDOF 4
