REMARK  5 active torsions:
REMARK  status: ('A' for Active; 'I' for Inactive)
REMARK    1  A    between atoms: C_8  and  N_9 
REMARK       I    between atoms: N_9  and  C_10 
REMARK    2  A    between atoms: C_10  and  C_12 
REMARK    3  A    between atoms: C_12  and  O_13 
REMARK    4  A    between atoms: O_13  and  C_14 
REMARK    5  A    between atoms: C_14  and  C_15 
ROOT
HETATM    1  N   UNL     1       2.269  -2.309   0.286  1.00  0.00    -0.311 N 
HETATM    2  C   UNL     1       0.893  -2.510   0.354  1.00  0.00     0.246 C 
HETATM    3  O   UNL     1       0.001  -1.671   0.255  1.00  0.00    -0.271 OA
HETATM    4  H   UNL     1       2.854  -3.129   0.336  1.00  0.00     0.170 HD
ENDROOT
BRANCH   1   5
HETATM    5  C   UNL     1       2.877  -1.045   0.250  1.00  0.00     0.113 A 
HETATM    6  C   UNL     1       4.268  -0.924   0.116  1.00  0.00    -0.018 A 
HETATM    7  C   UNL     1       5.199  -2.090  -0.047  1.00  0.00     0.052 C 
HETATM    8  C   UNL     1       4.811   0.372   0.091  1.00  0.00     0.012 A 
HETATM    9  C   UNL     1       3.986   1.483   0.218  1.00  0.00     0.018 A 
HETATM   10  C   UNL     1       2.636   1.263   0.360  1.00  0.00     0.089 A 
HETATM   11  N   UNL     1       2.085   0.037   0.374  1.00  0.00    -0.352 N 
ATOM     12  HN  UNL     1       1.076  -0.073   0.478  1.00  0.00     0.166 HD
ENDBRANCH   1   5
BRANCH   2  13
HETATM   13  C   UNL     1       0.528  -3.975   0.576  1.00  0.00     0.270 C 
BRANCH  13  14
HETATM   14  O   UNL     1       1.246  -4.574   1.649  1.00  0.00    -0.382 OA
BRANCH  14  15
HETATM   15  C   UNL     1       0.847  -4.026   2.910  1.00  0.00     0.172 C 
BRANCH  15  16
HETATM   16  C   UNL     1       1.593  -4.746   3.984  1.00  0.00     0.009 A 
HETATM   17  C   UNL     1       1.554  -4.233   5.400  1.00  0.00     0.007 A 
HETATM   18  C   UNL     1       2.827  -4.141   4.604  1.00  0.00     0.007 A 
ENDBRANCH  15  16
ENDBRANCH  14  15
ENDBRANCH  13  14
ENDBRANCH   2  13
TORSDOF 5
