REMARK  2 active torsions:
REMARK  status: ('A' for Active; 'I' for Inactive)
REMARK    1  A    between atoms: C_2  and  C_5 
REMARK    2  A    between atoms: C_9  and  C_12 
ROOT
HETATM    1  C   UNL     1       3.017   1.140  -0.830  1.00  0.00     0.105 A 
HETATM    2  N   UNL     1       2.656   2.393  -0.517  1.00  0.00    -0.287 N 
ATOM      3  HN  UNL     1       2.116   2.728   0.281  1.00  0.00     0.188 HD
HETATM    4  N   UNL     1       3.191   3.090  -1.529  1.00  0.00    -0.285 N 
HETATM    5  C   UNL     1       3.848   2.277  -2.410  1.00  0.00     0.128 A 
HETATM    6  N   UNL     1       3.777   1.038  -1.970  1.00  0.00    -0.331 N 
ATOM      7  HN  UNL     1       4.189   0.200  -2.379  1.00  0.00     0.168 HD
HETATM    8  H   UNL     1       3.039   4.093  -1.602  1.00  0.00     0.188 HD
ENDROOT
BRANCH   5   9
HETATM    9  C   UNL     1       4.466   2.787  -3.674  1.00  0.00     0.218 C 
HETATM   10  C   UNL     1       4.892   4.273  -3.614  1.00  0.00     0.309 C 
HETATM   11  N   UNL     1       3.733   5.193  -3.511  1.00  0.00     0.088 N 
HETATM   12  C   UNL     1       2.829   4.921  -4.649  1.00  0.00     0.295 C 
HETATM   13  H   UNL     1       4.072   6.155  -3.595  1.00  0.00     0.316 HD
HETATM   14  C   UNL     1       2.419   3.442  -4.741  1.00  0.00     0.198 C 
HETATM   15  O   UNL     1       3.556   2.568  -4.773  1.00  0.00    -0.375 OA
ENDBRANCH   5   9
BRANCH   1  16
HETATM   16  C   UNL     1       2.565  -0.062  -0.039  1.00  0.00     0.009 C 
HETATM   17  C   UNL     1       1.029  -0.181  -0.109  1.00  0.00     0.023 C 
HETATM   18  C   UNL     1       2.994   0.069   1.434  1.00  0.00     0.023 C 
HETATM   19  C   UNL     1       3.173  -1.362  -0.605  1.00  0.00     0.023 C 
ENDBRANCH   1  16
TORSDOF 2
