REMARK  6 active torsions:
REMARK  status: ('A' for Active; 'I' for Inactive)
REMARK    1  A    between atoms: C_2  and  C_3 
REMARK    2  A    between atoms: C_3  and  O_5 
REMARK    3  A    between atoms: O_5  and  C_6 
REMARK    4  A    between atoms: C_6  and  C_7 
REMARK       I    between atoms: C_7  and  N_9 
REMARK    5  A    between atoms: N_9  and  C_10 
REMARK    6  A    between atoms: C_17  and  N_18 
ROOT
HETATM    1  C   UNL     1       8.429  -3.726  -1.284  1.00  0.00     0.094 A 
HETATM    2  C   UNL     1       9.005  -2.509  -1.629  1.00  0.00     0.122 A 
HETATM    3  N   UNL     1      10.311  -2.340  -1.904  1.00  0.00    -0.360 N 
ATOM      4  HN  UNL     1      10.707  -1.436  -2.161  1.00  0.00     0.166 HD
HETATM    5  C   UNL     1      11.047  -3.448  -1.814  1.00  0.00     0.182 A 
HETATM    6  N   UNL     1      10.605  -4.675  -1.475  1.00  0.00    -0.337 N 
ATOM      7  HN  UNL     1      11.242  -5.471  -1.445  1.00  0.00     0.168 HD
HETATM    8  C   UNL     1       9.291  -4.823  -1.175  1.00  0.00     0.133 A 
ENDROOT
BRANCH   1   9
HETATM    9  N   UNL     1       7.029  -3.855  -1.135  1.00  0.00    -0.321 N 
HETATM   10  C   UNL     1       6.262  -2.924  -0.471  1.00  0.00     0.246 C 
HETATM   11  O   UNL     1       6.681  -1.883   0.024  1.00  0.00    -0.271 OA
HETATM   12  H   UNL     1       6.647  -4.789  -1.213  1.00  0.00     0.169 HD
BRANCH  10  13
HETATM   13  C   UNL     1       4.775  -3.284  -0.423  1.00  0.00     0.271 C 
BRANCH  13  14
HETATM   14  O   UNL     1       4.518  -4.626  -0.013  1.00  0.00    -0.377 OA
BRANCH  14  15
HETATM   15  C   UNL     1       3.121  -4.977  -0.091  1.00  0.00     0.117 C 
HETATM   16  C   UNL     1       2.260  -4.125   0.844  1.00  0.00     0.039 C 
BRANCH  15  17
HETATM   17  C   UNL     1       2.961  -6.453   0.311  1.00  0.00     0.027 C 
HETATM   18  C   UNL     1       3.699  -7.411  -0.611  1.00  0.00     0.007 C 
ENDBRANCH  15  17
ENDBRANCH  14  15
ENDBRANCH  13  14
ENDBRANCH  10  13
ENDBRANCH   1   9
BRANCH   8  19
HETATM   19  N   UNL     1       8.856  -6.087  -0.770  1.00  0.00    -0.365 N 
HETATM   20  C   UNL     1       9.867  -7.148  -0.677  1.00  0.00     0.124 C 
HETATM   21  C   UNL     1       9.231  -8.204   0.221  1.00  0.00     0.021 C 
HETATM   22  C   UNL     1       8.356  -7.395   1.159  1.00  0.00     0.021 C 
HETATM   23  C   UNL     1       7.853  -6.253   0.287  1.00  0.00     0.124 C 
ENDBRANCH   8  19
TORSDOF 6
