REMARK  5 active torsions:
REMARK  status: ('A' for Active; 'I' for Inactive)
REMARK       I    between atoms: N_2  and  C_3 
REMARK    1  A    between atoms: C_3  and  C_5 
REMARK    2  A    between atoms: C_5  and  N_6 
REMARK    3  A    between atoms: C_9  and  N_12 
REMARK       I    between atoms: N_12  and  C_13 
REMARK       I    between atoms: C_13  and  N_15 
REMARK    4  A    between atoms: N_15  and  C_16 
REMARK    5  A    between atoms: C_22  and  O_23 
ROOT
HETATM    1  N   UNL     1       4.262   5.680  -2.132  1.00  0.00    -0.338 N 
HETATM    2  C   UNL     1       4.447   6.944  -1.618  1.00  0.00     0.321 C 
HETATM    3  O   UNL     1       4.199   7.225  -0.453  1.00  0.00    -0.247 OA
HETATM    4  N   UNL     1       4.916   7.833  -2.566  1.00  0.00    -0.305 N 
HETATM    5  H   UNL     1       4.938   5.414  -2.834  1.00  0.00     0.164 HD
HETATM    6  H   UNL     1       4.505   7.742  -3.489  1.00  0.00     0.171 HD
ENDROOT
BRANCH   1   7
HETATM    7  C   UNL     1       3.687   4.622  -1.292  1.00  0.00     0.089 C 
HETATM    8  C   UNL     1       4.672   4.041  -0.270  1.00  0.00     0.055 C 
HETATM    9  C   UNL     1       5.691   3.100  -0.914  1.00  0.00     0.275 C 
HETATM   10  N   UNL     1       5.117   2.026  -1.745  1.00  0.00     0.097 N 
HETATM   11  C   UNL     1       4.173   2.586  -2.729  1.00  0.00     0.275 C 
HETATM   12  C   UNL     1       3.093   3.500  -2.143  1.00  0.00     0.055 C 
BRANCH  10  13
HETATM   13  C   UNL     1       4.471   0.950  -0.944  1.00  0.00     0.374 C 
BRANCH  13  14
HETATM   14  C   UNL     1       5.476   0.143  -0.113  1.00  0.00     0.245 C 
HETATM   15  N   UNL     1       6.702  -0.048  -0.721  1.00  0.00    -0.364 N 
HETATM   16  C   UNL     1       7.786  -0.693  -0.027  1.00  0.00     0.149 C 
HETATM   17  H   UNL     1       6.892   0.560  -1.512  1.00  0.00     0.161 HD
HETATM   18  O   UNL     1       5.181  -0.350   0.972  1.00  0.00    -0.272 OA
ENDBRANCH  13  14
ENDBRANCH  10  13
ENDBRANCH   1   7
BRANCH   4  19
HETATM   19  C   UNL     1       5.373   9.132  -2.225  1.00  0.00     0.087 A 
HETATM   20  C   UNL     1       6.082   9.353  -1.043  1.00  0.00     0.035 A 
HETATM   21  C   UNL     1       6.530  10.635  -0.725  1.00  0.00     0.019 A 
HETATM   22  C   UNL     1       6.251  11.660  -1.606  1.00  0.00     0.090 A 
HETATM   23  N   UNL     1       5.581  11.493  -2.765  1.00  0.00    -0.345 N 
HETATM   24  C   UNL     1       5.155  10.237  -3.054  1.00  0.00     0.169 A 
ATOM     25  HN  UNL     1       5.403  12.275  -3.395  1.00  0.00     0.167 HD
BRANCH  24  26
HETATM   26  O   UNL     1       4.432  10.042  -4.222  1.00  0.00    -0.339 OA
HETATM   27  C   UNL     1       4.069  11.280  -4.842  1.00  0.00     0.211 C 
ENDBRANCH  24  26
ENDBRANCH   4  19
TORSDOF 5
