REMARK  5 active torsions:
REMARK  status: ('A' for Active; 'I' for Inactive)
REMARK    1  A    between atoms: C_2  and  N_3 
REMARK    2  A    between atoms: C_2  and  C_8 
REMARK    3  A    between atoms: N_3  and  C_4 
REMARK    4  A    between atoms: C_4  and  C_5 
REMARK    5  A    between atoms: C_8  and  N_10 
ROOT
HETATM    1  C   UNL     1       3.136  -1.111  -1.069  1.00  0.00     0.136 C 
HETATM    2  C   UNL     1       2.609  -0.941  -2.499  1.00  0.00     0.036 C 
ENDROOT
BRANCH   1   3
HETATM    3  C   UNL     1       2.602  -0.017  -0.062  1.00  0.00     0.240 C 
HETATM    4  C   UNL     1       1.062   0.035  -0.084  1.00  0.00     0.045 C 
BRANCH   3   5
HETATM    5  N   UNL     1       2.951  -0.176   1.379  1.00  0.00     0.090 N 
HETATM    6  H   UNL     1       2.692  -1.111   1.696  1.00  0.00     0.316 HD
BRANCH   5   7
HETATM    7  C   UNL     1       4.366   0.034   1.648  1.00  0.00     0.274 C 
BRANCH   7   8
HETATM    8  C   UNL     1       4.713  -0.114   3.093  1.00  0.00     0.014 A 
HETATM    9  C   UNL     1       6.181  -0.195   3.449  1.00  0.00     0.007 A 
HETATM   10  C   UNL     1       5.309  -1.405   3.608  1.00  0.00     0.007 A 
ENDBRANCH   7   8
ENDBRANCH   5   7
ENDBRANCH   3   5
ENDBRANCH   1   3
BRANCH   1  11
HETATM   11  N   UNL     1       4.597  -1.191  -1.150  1.00  0.00    -0.297 N 
HETATM   12  C   UNL     1       5.477  -0.177  -1.425  1.00  0.00     0.118 A 
HETATM   13  C   UNL     1       6.732  -0.661  -1.120  1.00  0.00    -0.028 A 
HETATM   14  C   UNL     1       8.019   0.067  -1.103  1.00  0.00     0.051 C 
HETATM   15  C   UNL     1       6.506  -2.012  -0.776  1.00  0.00     0.115 A 
HETATM   16  N   UNL     1       5.216  -2.350  -0.837  1.00  0.00    -0.309 N 
ATOM     17  HN  UNL     1       4.797  -3.267  -0.683  1.00  0.00     0.186 HD
ENDBRANCH   1  11
TORSDOF 5
