REMARK  5 active torsions:
REMARK  status: ('A' for Active; 'I' for Inactive)
REMARK       I    between atoms: N_2  and  C_3 
REMARK    1  A    between atoms: C_3  and  C_5 
REMARK    2  A    between atoms: C_5  and  C_6 
REMARK    3  A    between atoms: C_10  and  C_11 
REMARK    4  A    between atoms: C_11  and  O_12 
REMARK    5  A    between atoms: O_12  and  C_13 
ROOT
HETATM    1  C   UNL     1       6.361   2.146  -2.216  1.00  0.00     0.112 A 
HETATM    2  N   UNL     1       5.033   2.099  -2.060  1.00  0.00    -0.247 N 
ATOM      3  HN  UNL     1       4.477   1.391  -1.580  1.00  0.00     0.196 HD
HETATM    4  O   UNL     1       4.592   3.249  -2.711  1.00  0.00    -0.221 OA
HETATM    5  C   UNL     1       5.705   3.881  -3.193  1.00  0.00     0.172 A 
HETATM    6  N   UNL     1       6.820   3.231  -2.926  1.00  0.00    -0.325 N 
ATOM      7  HN  UNL     1       7.778   3.471  -3.181  1.00  0.00     0.169 HD
ENDROOT
BRANCH   5   8
HETATM    8  C   UNL     1       5.464   5.223  -3.786  1.00  0.00     0.254 C 
BRANCH   8   9
HETATM    9  O   UNL     1       6.480   5.519  -4.750  1.00  0.00    -0.378 OA
BRANCH   9  10
HETATM   10  C   UNL     1       6.213   6.709  -5.506  1.00  0.00     0.122 C 
HETATM   11  C   UNL     1       7.230   6.791  -6.650  1.00  0.00     0.032 C 
HETATM   12  C   UNL     1       8.654   7.034  -6.148  1.00  0.00     0.002 C 
HETATM   13  C   UNL     1       8.744   8.255  -5.236  1.00  0.00     0.000 C 
HETATM   14  C   UNL     1       7.706   8.230  -4.119  1.00  0.00     0.002 C 
HETATM   15  C   UNL     1       6.297   7.982  -4.653  1.00  0.00     0.032 C 
ENDBRANCH   9  10
ENDBRANCH   8   9
ENDBRANCH   5   8
BRANCH   1  16
HETATM   16  C   UNL     1       7.279   1.162  -1.606  1.00  0.00     0.181 C 
BRANCH  16  17
HETATM   17  C   UNL     1       7.513  -0.027  -2.509  1.00  0.00     0.224 C 
HETATM   18  N   UNL     1       8.061   0.266  -3.740  1.00  0.00    -0.365 N 
HETATM   19  C   UNL     1       8.332  -0.779  -4.693  1.00  0.00     0.149 C 
HETATM   20  H   UNL     1       8.099   1.238  -4.044  1.00  0.00     0.161 HD
HETATM   21  O   UNL     1       7.306  -1.179  -2.134  1.00  0.00    -0.273 OA
ENDBRANCH  16  17
ENDBRANCH   1  16
TORSDOF 5
