REMARK  4 active torsions:
REMARK  status: ('A' for Active; 'I' for Inactive)
REMARK    1  A    between atoms: C_5  and  N_6 
REMARK       I    between atoms: N_6  and  C_7 
REMARK       I    between atoms: C_7  and  N_9 
REMARK    2  A    between atoms: N_9  and  C_10 
REMARK    3  A    between atoms: C_10  and  C_11 
REMARK    4  A    between atoms: C_11  and  C_12 
ROOT
HETATM    1  N   UNL     1       6.689   0.197  -0.754  1.00  0.00    -0.295 N 
HETATM    2  C   UNL     1       7.374   1.376  -0.725  1.00  0.00     0.321 C 
HETATM    3  O   UNL     1       6.787   2.419  -0.452  1.00  0.00    -0.247 OA
HETATM    4  N   UNL     1       8.688   1.327  -1.089  1.00  0.00    -0.343 N 
HETATM    5  H   UNL     1       5.694   0.328  -0.644  1.00  0.00     0.172 HD
HETATM    6  H   UNL     1       9.103   0.402  -1.027  1.00  0.00     0.164 HD
ENDROOT
BRANCH   1   7
HETATM    7  C   UNL     1       7.166  -1.082  -1.047  1.00  0.00     0.108 A 
HETATM    8  C   UNL     1       6.241  -2.057  -1.403  1.00  0.00     0.049 A 
HETATM    9  C   UNL     1       6.707  -3.307  -1.809  1.00  0.00     0.012 A 
HETATM   10  C   UNL     1       8.077  -3.564  -1.814  1.00  0.00    -0.046 A 
HETATM   11  C   UNL     1       8.645  -4.866  -2.282  1.00  0.00     0.049 C 
HETATM   12  C   UNL     1       8.916  -2.552  -1.371  1.00  0.00     0.096 A 
HETATM   13  N   UNL     1       8.494  -1.321  -1.007  1.00  0.00    -0.352 N 
ATOM     14  HN  UNL     1       9.153  -0.600  -0.713  1.00  0.00     0.166 HD
ENDBRANCH   1   7
BRANCH   4  15
HETATM   15  C   UNL     1       9.526   2.507  -1.137  1.00  0.00     0.127 C 
BRANCH  15  16
HETATM   16  C   UNL     1      10.928   2.157  -1.610  1.00  0.00     0.051 C 
BRANCH  16  17
HETATM   17  C   UNL     1      11.947   3.311  -1.632  1.00  0.00     0.123 C 
HETATM   18  C   UNL     1      12.093   4.062  -0.302  1.00  0.00     0.032 C 
HETATM   19  C   UNL     1      11.325   5.371  -0.251  1.00  0.00     0.004 C 
HETATM   20  C   UNL     1      11.674   6.185  -1.481  1.00  0.00     0.026 C 
HETATM   21  C   UNL     1      11.255   5.407  -2.716  1.00  0.00     0.168 C 
HETATM   22  O   UNL     1      11.853   4.119  -2.806  1.00  0.00    -0.386 OA
ENDBRANCH  16  17
ENDBRANCH  15  16
ENDBRANCH   4  15
TORSDOF 4
