REMARK  5 active torsions:
REMARK  status: ('A' for Active; 'I' for Inactive)
REMARK    1  A    between atoms: C_2  and  C_3 
REMARK    2  A    between atoms: C_6  and  C_7 
REMARK    3  A    between atoms: C_7  and  C_8 
REMARK    4  A    between atoms: C_8  and  N_9 
REMARK       I    between atoms: N_9  and  C_10 
REMARK       I    between atoms: C_10  and  N_12 
REMARK    5  A    between atoms: N_12  and  C_13 
ROOT
HETATM    1  C   UNL     1       4.753   2.738   3.876  1.00  0.00     0.084 C 
ENDROOT
BRANCH   1   2
HETATM    2  C   UNL     1       3.975   2.559   2.608  1.00  0.00     0.053 A 
HETATM    3  N   UNL     1       2.683   2.320   2.555  1.00  0.00    -0.356 N 
HETATM    4  C   UNL     1       2.269   2.207   1.234  1.00  0.00     0.022 A 
ATOM      5  HN  UNL     1       2.073   2.230   3.367  1.00  0.00     0.166 HD
HETATM    6  C   UNL     1       3.277   2.360   0.295  1.00  0.00     0.003 A 
HETATM    7  S   UNL     1       4.766   2.663   1.088  1.00  0.00    -0.080 SA
HETATM    8  C   UNL     1       3.207   2.292  -1.190  1.00  0.00     0.058 C 
BRANCH   4   9
HETATM    9  C   UNL     1       0.823   1.930   0.967  1.00  0.00     0.054 C 
HETATM   10  C   UNL     1       0.001   3.201   0.824  1.00  0.00     0.011 C 
ENDBRANCH   4   9
ENDBRANCH   1   2
BRANCH   1  11
HETATM   11  C   UNL     1       5.240   1.395   4.419  1.00  0.00     0.131 C 
BRANCH  11  12
HETATM   12  N   UNL     1       6.059   1.540   5.614  1.00  0.00    -0.343 N 
HETATM   13  C   UNL     1       7.404   1.800   5.519  1.00  0.00     0.316 C 
HETATM   14  O   UNL     1       7.997   1.896   4.451  1.00  0.00    -0.247 OA
HETATM   15  N   UNL     1       7.999   1.932   6.753  1.00  0.00    -0.339 N 
HETATM   16  H   UNL     1       7.472   1.623   7.555  1.00  0.00     0.164 HD
HETATM   17  H   UNL     1       5.595   1.737   6.488  1.00  0.00     0.164 HD
BRANCH  15  18
HETATM   18  C   UNL     1       9.418   2.077   6.898  1.00  0.00     0.086 A 
HETATM   19  C   UNL     1      10.210   1.060   7.675  1.00  0.00     0.027 A 
HETATM   20  C   UNL     1      10.030   2.448   8.220  1.00  0.00     0.027 A 
ENDBRANCH  15  18
ENDBRANCH  11  12
ENDBRANCH   1  11
TORSDOF 5
