REMARK  3 active torsions:
REMARK  status: ('A' for Active; 'I' for Inactive)
REMARK    1  A    between atoms: C_2  and  N_9 
REMARK       I    between atoms: N_9  and  C_10 
REMARK    2  A    between atoms: C_10  and  C_12 
REMARK    3  A    between atoms: C_12  and  N_13 
ROOT
HETATM    1  N   UNL     1       3.128   0.064  -1.458  1.00  0.00    -0.350 N 
HETATM    2  C   UNL     1       2.844   1.101  -2.339  1.00  0.00     0.236 C 
HETATM    3  O   UNL     1       2.148   2.064  -2.037  1.00  0.00    -0.272 OA
HETATM    4  H   UNL     1       3.514  -0.783  -1.857  1.00  0.00     0.163 HD
ENDROOT
BRANCH   1   5
HETATM    5  C   UNL     1       2.560   0.003  -0.095  1.00  0.00     0.043 C 
HETATM    6  C   UNL     1       1.025  -0.096  -0.174  1.00  0.00     0.039 C 
HETATM    7  C   UNL     1       3.080  -1.249   0.656  1.00  0.00     0.046 C 
HETATM    8  C   UNL     1       4.412  -0.956   1.334  1.00  0.00     0.143 C 
HETATM    9  S   UNL     1       4.576   0.809   1.421  1.00  0.00     0.146 S 
HETATM   10  O   UNL     1       4.624   1.207   2.813  1.00  0.00    -0.228 OA
HETATM   11  O   UNL     1       5.589   1.211   0.467  1.00  0.00    -0.228 OA
HETATM   12  C   UNL     1       2.974   1.209   0.766  1.00  0.00     0.170 C 
ENDBRANCH   1   5
BRANCH   2  13
HETATM   13  C   UNL     1       3.449   0.970  -3.722  1.00  0.00     0.231 C 
BRANCH  13  14
HETATM   14  N   UNL     1       2.591   0.232  -4.626  1.00  0.00    -0.343 N 
HETATM   15  C   UNL     1       2.934  -0.891  -5.328  1.00  0.00     0.109 A 
HETATM   16  C   UNL     1       1.818  -1.201  -6.069  1.00  0.00     0.106 A 
HETATM   17  N   UNL     1       0.816  -0.295  -5.838  1.00  0.00    -0.361 N 
HETATM   18  C   UNL     1       1.315   0.568  -4.981  1.00  0.00     0.182 A 
ATOM     19  HN  UNL     1      -0.119  -0.291  -6.245  1.00  0.00     0.166 HD
ENDBRANCH  13  14
ENDBRANCH   2  13
TORSDOF 3
