REMARK  5 active torsions:
REMARK  status: ('A' for Active; 'I' for Inactive)
REMARK    1  A    between atoms: N_6  and  C_7 
REMARK    2  A    between atoms: C_7  and  C_8 
REMARK    3  A    between atoms: C_8  and  O_9 
REMARK    4  A    between atoms: O_9  and  C_10 
REMARK    5  A    between atoms: C_19  and  C_20 
REMARK       I    between atoms: C_20  and  N_22 
ROOT
HETATM    1  C   UNL     1       0.879  -0.003   0.032  1.00  0.00     0.049 C 
HETATM    2  C   UNL     1       2.380   0.157   0.035  1.00  0.00    -0.039 A 
HETATM    3  C   UNL     1       3.117  -1.091   0.027  1.00  0.00     0.033 A 
HETATM    4  C   UNL     1       4.458  -1.138   0.061  1.00  0.00     0.011 A 
HETATM    5  C   UNL     1       5.152  -2.472   0.050  1.00  0.00     0.068 C 
HETATM    6  N   UNL     1       5.186   0.049   0.099  1.00  0.00    -0.316 N 
HETATM    7  C   UNL     1       4.553   1.303   0.048  1.00  0.00     0.264 A 
HETATM    8  O   UNL     1       5.199   2.353  -0.002  1.00  0.00    -0.267 OA
HETATM    9  C   UNL     1       3.043   1.335   0.045  1.00  0.00     0.105 A 
ENDROOT
BRANCH   6  10
HETATM   10  C   UNL     1       6.663   0.055   0.083  1.00  0.00     0.159 C 
BRANCH  10  11
HETATM   11  C   UNL     1       7.214   0.156  -1.343  1.00  0.00     0.196 C 
BRANCH  11  12
HETATM   12  O   UNL     1       8.647   0.221  -1.355  1.00  0.00    -0.349 OA
BRANCH  12  13
HETATM   13  C   UNL     1       9.212   0.327  -2.605  1.00  0.00     0.071 A 
HETATM   14  C   UNL     1      10.607   0.445  -2.643  1.00  0.00     0.037 A 
HETATM   15  C   UNL     1      11.283   0.551  -3.867  1.00  0.00     0.006 A 
HETATM   16  C   UNL     1      10.565   0.540  -5.061  1.00  0.00     0.042 A 
HETATM   17  C   UNL     1       9.183   0.426  -5.019  1.00  0.00     0.119 A 
HETATM   18  F   UNL     1       8.485   0.413  -6.162  1.00  0.00    -0.206 F 
HETATM   19  C   UNL     1       8.504   0.320  -3.810  1.00  0.00     0.079 A 
ENDBRANCH  12  13
ENDBRANCH  11  12
ENDBRANCH  10  11
ENDBRANCH   6  10
BRANCH   9  20
HETATM   20  C   UNL     1       2.290   2.636   0.038  1.00  0.00     0.255 C 
HETATM   21  O   UNL     1       1.068   2.730   0.029  1.00  0.00    -0.268 OA
HETATM   22  N   UNL     1       3.033   3.776   0.045  1.00  0.00    -0.366 N 
HETATM   23  H   UNL     1       4.048   3.754   0.034  1.00  0.00     0.159 HD
HETATM   24  H   UNL     1       2.559   4.667   0.031  1.00  0.00     0.159 HD
ENDBRANCH   9  20
TORSDOF 5
