REMARK  8 active torsions:
REMARK  status: ('A' for Active; 'I' for Inactive)
REMARK    1  A    between atoms: O_2  and  C_3 
REMARK    2  A    between atoms: C_3  and  C_4 
REMARK    3  A    between atoms: N_13  and  C_14 
REMARK    4  A    between atoms: C_14  and  C_15 
REMARK    5  A    between atoms: C_15  and  O_16 
REMARK    6  A    between atoms: C_15  and  C_17 
REMARK    7  A    between atoms: C_17  and  O_18 
REMARK    8  A    between atoms: O_18  and  C_19 
ROOT
HETATM    1  C   UNL     1       5.587  -1.454  -0.490  1.00  0.00     0.108 A 
HETATM    2  N   UNL     1       5.948  -0.200  -0.287  1.00  0.00    -0.342 N 
ATOM      3  HN  UNL     1       6.196   0.490  -0.996  1.00  0.00     0.167 HD
HETATM    4  C   UNL     1       5.921  -0.015   1.070  1.00  0.00     0.060 A 
HETATM    5  C   UNL     1       6.182   1.146   1.813  1.00  0.00     0.032 A 
HETATM    6  C   UNL     1       6.099   1.089   3.209  1.00  0.00     0.002 A 
HETATM    7  C   UNL     1       5.765  -0.103   3.853  1.00  0.00     0.002 A 
HETATM    8  C   UNL     1       5.490  -1.268   3.126  1.00  0.00     0.032 A 
HETATM    9  C   UNL     1       5.573  -1.189   1.730  1.00  0.00     0.062 A 
HETATM   10  N   UNL     1       5.357  -2.093   0.712  1.00  0.00    -0.330 N 
ENDROOT
BRANCH  10  11
HETATM   11  C   UNL     1       4.842  -3.442   0.879  1.00  0.00     0.164 C 
BRANCH  11  12
HETATM   12  C   UNL     1       5.935  -4.524   0.944  1.00  0.00     0.160 C 
BRANCH  12  13
HETATM   13  O   UNL     1       6.741  -4.387   2.121  1.00  0.00    -0.392 OA
HETATM   14  H   UNL     1       6.169  -4.437   2.906  1.00  0.00     0.210 HD
ENDBRANCH  12  13
BRANCH  12  15
HETATM   15  C   UNL     1       5.292  -5.921   0.950  1.00  0.00     0.209 C 
BRANCH  15  16
HETATM   16  O   UNL     1       4.497  -6.078  -0.216  1.00  0.00    -0.348 OA
BRANCH  16  17
HETATM   17  C   UNL     1       3.922  -7.298  -0.455  1.00  0.00     0.074 A 
HETATM   18  C   UNL     1       3.903  -7.636  -1.818  1.00  0.00     0.037 A 
HETATM   19  C   UNL     1       3.277  -8.796  -2.268  1.00  0.00     0.003 A 
HETATM   20  C   UNL     1       2.653  -9.637  -1.358  1.00  0.00     0.001 A 
HETATM   21  C   UNL     1       2.658  -9.310  -0.001  1.00  0.00     0.009 A 
HETATM   22  C   UNL     1       3.272  -8.132   0.471  1.00  0.00    -0.029 A 
HETATM   23  C   UNL     1       3.137  -7.844   1.938  1.00  0.00     0.051 C 
ENDBRANCH  16  17
ENDBRANCH  15  16
ENDBRANCH  12  15
ENDBRANCH  11  12
ENDBRANCH  10  11
BRANCH   1  24
HETATM   24  C   UNL     1       5.441  -2.103  -1.826  1.00  0.00     0.243 C 
BRANCH  24  25
HETATM   25  O   UNL     1       4.051  -2.090  -2.151  1.00  0.00    -0.389 OA
HETATM   26  C   UNL     1       3.822  -2.579  -3.465  1.00  0.00     0.202 C 
ENDBRANCH  24  25
ENDBRANCH   1  24
TORSDOF 8
