REMARK  6 active torsions:
REMARK  status: ('A' for Active; 'I' for Inactive)
REMARK    1  A    between atoms: C_2  and  O_3 
REMARK    2  A    between atoms: C_2  and  C_7 
REMARK    3  A    between atoms: O_3  and  C_4 
REMARK    4  A    between atoms: C_4  and  C_5 
REMARK       I    between atoms: C_7  and  N_9 
REMARK    5  A    between atoms: N_9  and  C_10 
REMARK    6  A    between atoms: C_16  and  O_17 
ROOT
HETATM    1  C   UNL     1       3.020  -1.528   0.518  1.00  0.00     0.252 C 
HETATM    2  O   UNL     1       2.291  -2.157   1.285  1.00  0.00    -0.270 OA
HETATM    3  N   UNL     1       4.259  -1.969   0.067  1.00  0.00    -0.309 N 
HETATM    4  H   UNL     1       4.990  -1.286  -0.012  1.00  0.00     0.170 HD
ENDROOT
BRANCH   3   5
HETATM    5  C   UNL     1       4.738  -3.203   0.522  1.00  0.00     0.141 A 
HETATM    6  N   UNL     1       5.926  -3.161   1.162  1.00  0.00    -0.350 N 
HETATM    7  C   UNL     1       6.304  -4.298   1.786  1.00  0.00     0.090 A 
ATOM      8  HN  UNL     1       6.504  -2.321   1.174  1.00  0.00     0.166 HD
HETATM    9  C   UNL     1       5.577  -5.479   1.755  1.00  0.00     0.020 A 
HETATM   10  C   UNL     1       4.408  -5.523   1.001  1.00  0.00     0.041 A 
HETATM   11  C   UNL     1       3.990  -4.370   0.355  1.00  0.00     0.110 A 
BRANCH  11  12
HETATM   12  O   UNL     1       2.902  -4.383  -0.472  1.00  0.00    -0.357 OA
HETATM   13  H   UNL     1       2.446  -5.233  -0.383  1.00  0.00     0.218 HD
ENDBRANCH  11  12
ENDBRANCH   3   5
BRANCH   1  14
HETATM   14  C   UNL     1       2.642  -0.112   0.018  1.00  0.00     0.209 C 
HETATM   15  C   UNL     1       1.114  -0.034  -0.027  1.00  0.00     0.050 C 
BRANCH  14  16
HETATM   16  O   UNL     1       3.092   0.979   0.824  1.00  0.00    -0.373 OA
BRANCH  16  17
HETATM   17  C   UNL     1       4.507   1.086   0.900  1.00  0.00     0.195 C 
BRANCH  17  18
HETATM   18  C   UNL     1       4.872   2.275   1.726  1.00  0.00    -0.011 C 
HETATM   19  C   UNL     1       5.637   2.200   2.825  1.00  0.00     0.009 C 
ENDBRANCH  17  18
ENDBRANCH  16  17
ENDBRANCH  14  16
ENDBRANCH   1  14
TORSDOF 6
