REMARK  6 active torsions:
REMARK  status: ('A' for Active; 'I' for Inactive)
REMARK    1  A    between atoms: O_2  and  C_3 
REMARK    2  A    between atoms: C_3  and  C_4 
REMARK    3  A    between atoms: C_4  and  N_5 
REMARK    4  A    between atoms: C_6  and  S_7 
REMARK    5  A    between atoms: S_7  and  C_8 
REMARK    6  A    between atoms: C_8  and  C_10 
REMARK       I    between atoms: C_10  and  N_12 
ROOT
HETATM    1  N   UNL     1       4.747   2.104  -1.517  1.00  0.00    -0.324 N 
HETATM    2  C   UNL     1       4.496   3.399  -1.129  1.00  0.00     0.148 A 
HETATM    3  N   UNL     1       4.982   4.267  -1.985  1.00  0.00    -0.335 N 
ATOM      4  HN  UNL     1       4.899   5.283  -1.950  1.00  0.00     0.168 HD
HETATM    5  C   UNL     1       5.625   3.517  -2.938  1.00  0.00     0.061 A 
HETATM    6  C   UNL     1       6.315   3.934  -4.087  1.00  0.00     0.032 A 
HETATM    7  C   UNL     1       6.915   2.969  -4.907  1.00  0.00     0.002 A 
HETATM    8  C   UNL     1       6.840   1.615  -4.583  1.00  0.00     0.002 A 
HETATM    9  C   UNL     1       6.145   1.177  -3.449  1.00  0.00     0.032 A 
HETATM   10  C   UNL     1       5.533   2.156  -2.652  1.00  0.00     0.063 A 
ENDROOT
BRANCH   2  11
HETATM   11  S   UNL     1       3.612   3.814   0.310  1.00  0.00    -0.080 SA
BRANCH  11  12
HETATM   12  C   UNL     1       3.041   5.521  -0.088  1.00  0.00     0.144 C 
HETATM   13  C   UNL     1       1.977   5.499  -1.181  1.00  0.00     0.031 C 
BRANCH  12  14
HETATM   14  C   UNL     1       2.448   6.166   1.182  1.00  0.00     0.241 C 
HETATM   15  O   UNL     1       1.783   5.525   1.998  1.00  0.00    -0.272 OA
HETATM   16  N   UNL     1       2.651   7.532   1.371  1.00  0.00    -0.268 N 
HETATM   17  C   UNL     1       2.233   8.188   2.598  1.00  0.00     0.156 C 
HETATM   18  C   UNL     1       3.250   8.473   0.519  1.00  0.00     0.325 C 
HETATM   19  C   UNL     1       2.853   9.576   2.538  1.00  0.00     0.145 C 
HETATM   20  N   UNL     1       3.400   9.656   1.218  1.00  0.00    -0.341 N 
HETATM   21  H   UNL     1       3.836  10.462   0.786  1.00  0.00     0.164 HD
HETATM   22  O   UNL     1       3.568   8.346  -0.650  1.00  0.00    -0.247 OA
ENDBRANCH  12  14
ENDBRANCH  11  12
ENDBRANCH   2  11
BRANCH   1  23
HETATM   23  C   UNL     1       4.233   0.888  -0.920  1.00  0.00     0.157 C 
BRANCH  23  24
HETATM   24  C   UNL     1       2.729   0.720  -1.119  1.00  0.00     0.187 C 
BRANCH  24  25
HETATM   25  O   UNL     1       2.343  -0.580  -0.665  1.00  0.00    -0.394 OA
HETATM   26  C   UNL     1       0.931  -0.745  -0.715  1.00  0.00     0.201 C 
ENDBRANCH  24  25
ENDBRANCH  23  24
ENDBRANCH   1  23
TORSDOF 6
