REMARK  7 active torsions:
REMARK  status: ('A' for Active; 'I' for Inactive)
REMARK    1  A    between atoms: N_6  and  C_7 
REMARK    2  A    between atoms: C_7  and  C_8 
REMARK       I    between atoms: C_8  and  N_10 
REMARK    3  A    between atoms: N_10  and  C_11 
REMARK    4  A    between atoms: C_11  and  C_12 
REMARK    5  A    between atoms: C_12  and  C_13 
REMARK    6  A    between atoms: C_13  and  O_14 
REMARK    7  A    between atoms: O_14  and  C_15 
ROOT
HETATM    1  C   UNL     1       5.299  -4.624   0.906  1.00  0.00     0.235 C 
HETATM    2  O   UNL     1       4.849  -5.146   1.924  1.00  0.00    -0.272 OA
HETATM    3  N   UNL     1       5.015  -5.080  -0.366  1.00  0.00    -0.360 N 
HETATM    4  H   UNL     1       5.286  -4.507  -1.159  1.00  0.00     0.162 HD
ENDROOT
BRANCH   3   5
HETATM    5  C   UNL     1       4.068  -6.148  -0.571  1.00  0.00     0.125 C 
BRANCH   5   6
HETATM    6  C   UNL     1       4.709  -7.534  -0.690  1.00  0.00     0.046 C 
BRANCH   6   7
HETATM    7  C   UNL     1       3.570  -8.541  -0.783  1.00  0.00     0.169 C 
BRANCH   7   8
HETATM    8  O   UNL     1       3.982  -9.913  -0.762  1.00  0.00    -0.386 OA
BRANCH   8   9
HETATM    9  C   UNL     1       2.842 -10.780  -0.954  1.00  0.00     0.121 C 
HETATM   10  C   UNL     1       1.929 -10.812   0.285  1.00  0.00     0.032 C 
HETATM   11  C   UNL     1       2.446 -11.726   1.387  1.00  0.00     0.002 C 
HETATM   12  C   UNL     1       2.595 -13.138   0.847  1.00  0.00     0.000 C 
HETATM   13  C   UNL     1       3.636 -13.154  -0.265  1.00  0.00     0.002 C 
HETATM   14  C   UNL     1       3.293 -12.184  -1.396  1.00  0.00     0.032 C 
ENDBRANCH   8   9
ENDBRANCH   7   8
ENDBRANCH   6   7
ENDBRANCH   5   6
ENDBRANCH   3   5
BRANCH   1  15
HETATM   15  C   UNL     1       6.145  -3.356   0.950  1.00  0.00     0.234 C 
BRANCH  15  16
HETATM   16  N   UNL     1       5.335  -2.140   1.016  1.00  0.00    -0.315 N 
HETATM   17  C   UNL     1       4.562  -1.890   2.138  1.00  0.00     0.095 C 
HETATM   18  C   UNL     1       3.880  -0.745   2.265  1.00  0.00     0.018 C 
HETATM   19  C   UNL     1       4.041   0.292   1.284  1.00  0.00     0.013 C 
HETATM   20  C   UNL     1       4.759   0.088   0.169  1.00  0.00     0.006 C 
HETATM   21  C   UNL     1       5.098   1.154  -0.822  1.00  0.00     0.054 C 
HETATM   22  C   UNL     1       5.356  -1.269  -0.071  1.00  0.00     0.253 C 
HETATM   23  O   UNL     1       5.864  -1.544  -1.156  1.00  0.00    -0.267 OA
ENDBRANCH  15  16
ENDBRANCH   1  15
TORSDOF 7
