REMARK  2 active torsions:
REMARK  status: ('A' for Active; 'I' for Inactive)
REMARK    1  A    between atoms: C_5  and  C_7 
REMARK       I    between atoms: C_7  and  N_9 
REMARK    2  A    between atoms: N_9  and  C_10 
ROOT
HETATM    1  C   UNL     1       5.473   0.764  -0.093  1.00  0.00     0.251 C 
HETATM    2  O   UNL     1       6.211  -0.104  -0.552  1.00  0.00    -0.270 OA
HETATM    3  N   UNL     1       5.432   2.068  -0.556  1.00  0.00    -0.322 N 
HETATM    4  H   UNL     1       5.070   2.777   0.076  1.00  0.00     0.169 HD
ENDROOT
BRANCH   3   5
HETATM    5  C   UNL     1       6.152   2.504  -1.689  1.00  0.00     0.074 A 
HETATM    6  C   UNL     1       6.349   1.679  -2.798  1.00  0.00     0.119 A 
HETATM    7  N   UNL     1       7.032   2.045  -3.903  1.00  0.00    -0.371 N 
HETATM    8  C   UNL     1       7.577   3.281  -3.901  1.00  0.00     0.113 A 
ATOM      9  HN  UNL     1       7.132   1.418  -4.701  1.00  0.00     0.164 HD
HETATM   10  C   UNL     1       7.446   4.185  -2.857  1.00  0.00     0.073 A 
HETATM   11 CL   UNL     1       8.240   5.710  -2.978  1.00  0.00    -0.081 Cl
HETATM   12  C   UNL     1       6.694   3.793  -1.744  1.00  0.00     0.085 A 
HETATM   13 CL   UNL     1       6.494   4.854  -0.382  1.00  0.00    -0.080 Cl
ENDBRANCH   3   5
BRANCH   1  14
HETATM   14  C   UNL     1       4.537   0.516   1.102  1.00  0.00     0.214 C 
HETATM   15  C   UNL     1       4.398  -0.961   1.433  1.00  0.00     0.044 C 
HETATM   16  C   UNL     1       3.160  -1.403   0.675  1.00  0.00     0.034 C 
HETATM   17  C   UNL     1       2.606  -0.126   0.058  1.00  0.00     0.118 C 
HETATM   18  C   UNL     1       1.096  -0.022   0.114  1.00  0.00     0.039 C 
HETATM   19  O   UNL     1       3.209   0.955   0.788  1.00  0.00    -0.372 OA
ENDBRANCH   1  14
TORSDOF 2
