REMARK  3 active torsions:
REMARK  status: ('A' for Active; 'I' for Inactive)
REMARK    1  A    between atoms: O_1  and  C_2 
REMARK    2  A    between atoms: C_2  and  C_4 
REMARK    3  A    between atoms: C_9  and  N_11 
ROOT
HETATM    1  C   UNL     1       4.420  -0.545   2.922  1.00  0.00     0.055 A 
HETATM    2  C   UNL     1       3.338  -0.725   2.077  1.00  0.00     0.106 A 
HETATM    3  N   UNL     1       2.532   0.285   1.683  1.00  0.00    -0.372 N 
ATOM      4  HN  UNL     1       1.755   0.131   1.041  1.00  0.00     0.164 HD
HETATM    5  C   UNL     1       2.810   1.515   2.186  1.00  0.00     0.116 A 
HETATM    6  C   UNL     1       3.860   1.822   3.059  1.00  0.00     0.046 A 
HETATM    7  C   UNL     1       4.674   0.739   3.419  1.00  0.00     0.050 A 
ENDROOT
BRANCH   6   8
HETATM    8  N   UNL     1       4.083   3.081   3.572  1.00  0.00    -0.376 N 
HETATM    9  C   UNL     1       2.998   4.042   3.830  1.00  0.00     0.149 C 
HETATM   10  C   UNL     1       3.192   5.312   2.990  1.00  0.00     0.187 C 
HETATM   11  O   UNL     1       4.497   5.881   3.192  1.00  0.00    -0.388 OA
HETATM   12  C   UNL     1       5.517   4.938   2.825  1.00  0.00     0.187 C 
HETATM   13  C   UNL     1       5.435   3.655   3.671  1.00  0.00     0.149 C 
ENDBRANCH   6   8
BRANCH   1  14
HETATM   14  C   UNL     1       5.211  -1.729   3.307  1.00  0.00     0.177 C 
HETATM   15  O   UNL     1       4.729  -2.845   3.392  1.00  0.00    -0.646 OA
BRANCH  14  16
HETATM   16  O   UNL     1       6.519  -1.470   3.514  1.00  0.00    -0.773 OA
HETATM   17  H   UNL     1       6.819  -0.582   3.247  1.00  0.00     0.167 HD
ENDBRANCH  14  16
ENDBRANCH   1  14
TORSDOF 3
