REMARK  7 active torsions:
REMARK  status: ('A' for Active; 'I' for Inactive)
REMARK    1  A    between atoms: O_1  and  C_2 
REMARK    2  A    between atoms: C_2  and  C_3 
REMARK    3  A    between atoms: C_2  and  C_11 
REMARK    4  A    between atoms: C_3  and  O_4 
REMARK    5  A    between atoms: O_4  and  C_5 
REMARK    6  A    between atoms: C_5  and  C_6 
REMARK    7  A    between atoms: C_11  and  N_12 
ROOT
HETATM    1  N   UNL     1       4.414   0.197   1.576  1.00  0.00    -0.339 N 
HETATM    2  C   UNL     1       5.321  -0.142   0.611  1.00  0.00     0.184 A 
HETATM    3  N   UNL     1       6.558  -0.065   1.038  1.00  0.00    -0.350 N 
ATOM      4  HN  UNL     1       7.411  -0.202   0.496  1.00  0.00     0.166 HD
HETATM    5  C   UNL     1       6.457   0.239   2.367  1.00  0.00     0.063 A 
HETATM    6  C   UNL     1       7.479   0.372   3.314  1.00  0.00     0.077 A 
HETATM    7  C   UNL     1       7.115   0.623   4.633  1.00  0.00     0.157 A 
HETATM    8  F   UNL     1       8.077   0.712   5.564  1.00  0.00    -0.203 F 
HETATM    9  C   UNL     1       5.779   0.764   5.002  1.00  0.00     0.157 A 
HETATM   10  F   UNL     1       5.468   0.986   6.287  1.00  0.00    -0.203 F 
HETATM   11  C   UNL     1       4.745   0.668   4.067  1.00  0.00     0.077 A 
HETATM   12  C   UNL     1       5.122   0.394   2.745  1.00  0.00     0.065 A 
ENDROOT
BRANCH   1  13
HETATM   13  C   UNL     1       2.971   0.283   1.443  1.00  0.00     0.164 C 
BRANCH  13  14
HETATM   14  C   UNL     1       2.375   0.017   0.049  1.00  0.00     0.160 C 
BRANCH  14  15
HETATM   15  O   UNL     1       0.949  -0.088   0.188  1.00  0.00    -0.392 OA
HETATM   16  H   UNL     1       0.546  -0.003  -0.694  1.00  0.00     0.210 HD
ENDBRANCH  14  15
BRANCH  14  17
HETATM   17  C   UNL     1       2.731   1.086  -1.003  1.00  0.00     0.201 C 
BRANCH  17  18
HETATM   18  O   UNL     1       2.325   2.384  -0.577  1.00  0.00    -0.384 OA
BRANCH  18  19
HETATM   19  C   UNL     1       2.822   3.386  -1.471  1.00  0.00     0.213 C 
BRANCH  19  20
HETATM   20  C   UNL     1       2.297   4.708  -1.024  1.00  0.00     0.006 A 
HETATM   21  C   UNL     1       1.145   5.004  -0.321  1.00  0.00     0.017 A 
HETATM   22  C   UNL     1       0.977   6.404  -0.113  1.00  0.00     0.008 A 
HETATM   23  C   UNL     1       2.004   7.133  -0.667  1.00  0.00     0.050 A 
HETATM   24  S   UNL     1       3.161   6.133  -1.433  1.00  0.00    -0.104 SA
ENDBRANCH  19  20
ENDBRANCH  18  19
ENDBRANCH  17  18
ENDBRANCH  14  17
ENDBRANCH  13  14
ENDBRANCH   1  13
TORSDOF 7
