REMARK  5 active torsions:
REMARK  status: ('A' for Active; 'I' for Inactive)
REMARK    1  A    between atoms: C_2  and  C_3 
REMARK    2  A    between atoms: C_2  and  N_14 
REMARK       I    between atoms: C_3  and  N_5 
REMARK    3  A    between atoms: N_5  and  C_6 
REMARK    4  A    between atoms: C_6  and  C_7 
REMARK    5  A    between atoms: C_7  and  C_8 
ROOT
HETATM    1  C   UNL     1       3.246   0.278  -1.460  1.00  0.00     0.242 C 
HETATM    2  O   UNL     1       3.967   1.249  -1.683  1.00  0.00    -0.271 OA
HETATM    3  N   UNL     1       2.823  -0.564  -2.475  1.00  0.00    -0.359 N 
HETATM    4  H   UNL     1       2.218  -1.353  -2.271  1.00  0.00     0.162 HD
ENDROOT
BRANCH   1   5
HETATM    5  C   UNL     1       2.733  -0.053  -0.066  1.00  0.00     0.196 C 
HETATM    6  C   UNL     1       3.170   0.993   0.959  1.00  0.00     0.044 C 
BRANCH   5   7
HETATM    7  N   UNL     1       3.163  -1.381   0.335  1.00  0.00    -0.273 N 
HETATM    8  C   UNL     1       4.433  -1.852   0.472  1.00  0.00     0.202 A 
HETATM    9  N   UNL     1       4.394  -3.092   0.903  1.00  0.00    -0.346 N 
HETATM   10  C   UNL     1       3.055  -3.340   1.011  1.00  0.00     0.198 A 
ATOM     11  HN  UNL     1       5.173  -3.717   1.107  1.00  0.00     0.167 HD
HETATM   12  N   UNL     1       2.259  -2.329   0.652  1.00  0.00    -0.292 N 
ATOM     13  HN  UNL     1       1.240  -2.286   0.625  1.00  0.00     0.188 HD
ENDBRANCH   5   7
ENDBRANCH   1   5
BRANCH   3  14
HETATM   14  C   UNL     1       3.215  -0.287  -3.846  1.00  0.00     0.127 C 
BRANCH  14  15
HETATM   15  C   UNL     1       2.701  -1.312  -4.859  1.00  0.00     0.053 C 
BRANCH  15  16
HETATM   16  C   UNL     1       3.131  -1.002  -6.284  1.00  0.00    -0.082 A 
HETATM   17  C   UNL     1       3.882  -1.860  -6.988  1.00  0.00    -0.024 A 
HETATM   18  C   UNL     1       4.333  -1.650  -8.394  1.00  0.00     0.027 A 
HETATM   19  C   UNL     1       3.910  -0.355  -9.078  1.00  0.00     0.004 A 
HETATM   20  C   UNL     1       3.045   0.631  -8.302  1.00  0.00     0.005 A 
HETATM   21  C   UNL     1       2.652   0.298  -6.863  1.00  0.00     0.034 A 
ENDBRANCH  15  16
ENDBRANCH  14  15
ENDBRANCH   3  14
TORSDOF 5
