REMARK  6 active torsions:
REMARK  status: ('A' for Active; 'I' for Inactive)
REMARK    1  A    between atoms: O_2  and  C_3 
REMARK    2  A    between atoms: C_3  and  C_4 
REMARK    3  A    between atoms: C_4  and  N_5 
REMARK    4  A    between atoms: C_8  and  C_13 
REMARK       I    between atoms: C_13  and  N_15 
REMARK    5  A    between atoms: N_15  and  C_16 
REMARK    6  A    between atoms: N_19  and  C_22 
ROOT
HETATM    1  C   UNL     1       4.968   5.446  -2.167  1.00  0.00     0.269 C 
HETATM    2  O   UNL     1       5.198   6.220  -3.086  1.00  0.00    -0.266 OA
HETATM    3  N   UNL     1       4.905   5.799  -0.837  1.00  0.00    -0.351 N 
HETATM    4  H   UNL     1       4.842   5.041  -0.161  1.00  0.00     0.163 HD
ENDROOT
BRANCH   1   5
HETATM    5  C   UNL     1       4.681   3.973  -2.483  1.00  0.00     0.116 A 
HETATM    6  N   UNL     1       4.845   3.068  -1.564  1.00  0.00    -0.290 N 
HETATM    7  N   UNL     1       4.586   1.748  -1.936  1.00  0.00    -0.255 N 
ATOM      8  HN  UNL     1       5.147   3.310  -0.620  1.00  0.00     0.187 HD
HETATM    9  C   UNL     1       4.205   1.356  -3.219  1.00  0.00     0.262 A 
HETATM   10  C   UNL     1       4.007   2.440  -4.199  1.00  0.00     0.078 A 
HETATM   11  O   UNL     1       4.007   0.198  -3.572  1.00  0.00    -0.267 OA
HETATM   12  C   UNL     1       4.210   3.712  -3.858  1.00  0.00     0.042 A 
BRANCH   7  13
HETATM   13  C   UNL     1       4.641   0.737  -0.881  1.00  0.00     0.178 C 
BRANCH  13  14
HETATM   14  C   UNL     1       5.767  -0.287  -1.055  1.00  0.00     0.189 C 
BRANCH  14  15
HETATM   15  O   UNL     1       5.698  -1.238   0.014  1.00  0.00    -0.394 OA
HETATM   16  C   UNL     1       6.675  -2.262  -0.135  1.00  0.00     0.201 C 
ENDBRANCH  14  15
ENDBRANCH  13  14
ENDBRANCH   7  13
ENDBRANCH   1   5
BRANCH   3  17
HETATM   17  C   UNL     1       5.121   7.180  -0.402  1.00  0.00     0.088 C 
HETATM   18  C   UNL     1       6.582   7.470  -0.059  1.00  0.00     0.055 C 
HETATM   19  C   UNL     1       6.991   6.892   1.295  1.00  0.00     0.275 C 
HETATM   20  N   UNL     1       6.084   7.214   2.400  1.00  0.00     0.093 N 
HETATM   21  C   UNL     1       4.681   6.934   2.081  1.00  0.00     0.275 C 
HETATM   22  C   UNL     1       4.214   7.558   0.767  1.00  0.00     0.055 C 
BRANCH  20  23
HETATM   23  C   UNL     1       6.286   8.537   3.013  1.00  0.00     0.223 A 
HETATM   24  C   UNL     1       7.568   8.888   3.719  1.00  0.00     0.038 A 
HETATM   25  C   UNL     1       6.342   8.579   4.521  1.00  0.00     0.038 A 
ENDBRANCH  20  23
ENDBRANCH   3  17
TORSDOF 6
