REMARK  5 active torsions:
REMARK  status: ('A' for Active; 'I' for Inactive)
REMARK    1  A    between atoms: C_4  and  C_5 
REMARK    2  A    between atoms: C_5  and  S_6 
REMARK    3  A    between atoms: S_6  and  N_9 
REMARK    4  A    between atoms: N_9  and  C_10 
REMARK    5  A    between atoms: C_10  and  C_11 
ROOT
HETATM    1  S   UNL     1       5.123   3.398   0.586  1.00  0.00     0.232 S 
HETATM    2  O   UNL     1       4.109   4.425   0.551  1.00  0.00    -0.206 OA
HETATM    3  O   UNL     1       5.296   2.530   1.734  1.00  0.00    -0.206 OA
ENDROOT
BRANCH   1   4
HETATM    4  C   UNL     1       4.986   2.363  -0.874  1.00  0.00     0.230 C 
BRANCH   4   5
HETATM    5  C   UNL     1       3.662   1.710  -0.870  1.00  0.00     0.093 A 
HETATM    6  C   UNL     1       2.987   0.887  -0.001  1.00  0.00     0.062 A 
HETATM    7  C   UNL     1       1.760   0.624  -0.647  1.00  0.00     0.031 A 
HETATM    8  C   UNL     1       0.624  -0.192  -0.164  1.00  0.00     0.070 C 
HETATM    9  N   UNL     1       1.703   1.224  -1.841  1.00  0.00    -0.266 N 
HETATM   10  O   UNL     1       2.896   1.908  -1.977  1.00  0.00    -0.241 OA
ATOM     11  HN  UNL     1       0.937   1.185  -2.513  1.00  0.00     0.194 HD
ENDBRANCH   4   5
ENDBRANCH   1   4
BRANCH   1  12
HETATM   12  N   UNL     1       6.629   4.142   0.334  1.00  0.00    -0.319 N 
HETATM   13  H   UNL     1       7.283   3.609  -0.237  1.00  0.00     0.172 HD
BRANCH  12  14
HETATM   14  C   UNL     1       6.605   5.597   0.094  1.00  0.00     0.136 C 
BRANCH  14  15
HETATM   15  C   UNL     1       8.036   6.147  -0.055  1.00  0.00     0.004 C 
HETATM   16  C   UNL     1       8.908   5.952   1.197  1.00  0.00     0.006 C 
HETATM   17  C   UNL     1       8.496   6.841   2.371  1.00  0.00     0.000 C 
HETATM   18  C   UNL     1       8.354   8.310   1.978  1.00  0.00     0.000 C 
HETATM   19  C   UNL     1       7.501   8.507   0.729  1.00  0.00     0.000 C 
HETATM   20  C   UNL     1       8.001   7.639  -0.425  1.00  0.00     0.006 C 
ENDBRANCH  14  15
ENDBRANCH  12  14
ENDBRANCH   1  12
TORSDOF 5
