REMARK  5 active torsions:
REMARK  status: ('A' for Active; 'I' for Inactive)
REMARK    1  A    between atoms: C_2  and  C_4 
REMARK    2  A    between atoms: C_4  and  C_5 
REMARK    3  A    between atoms: C_5  and  N_6 
REMARK    4  A    between atoms: C_9  and  N_10 
REMARK       I    between atoms: N_10  and  C_11 
REMARK       I    between atoms: C_11  and  N_13 
REMARK    5  A    between atoms: N_13  and  C_14 
ROOT
HETATM    1  N   UNL     1       5.341  -4.383   4.217  1.00  0.00    -0.294 N 
HETATM    2  C   UNL     1       5.103  -5.487   3.429  1.00  0.00     0.322 C 
HETATM    3  O   UNL     1       5.139  -6.613   3.915  1.00  0.00    -0.247 OA
HETATM    4  N   UNL     1       4.849  -5.225   2.114  1.00  0.00    -0.334 N 
HETATM    5  H   UNL     1       5.549  -4.590   5.182  1.00  0.00     0.172 HD
HETATM    6  H   UNL     1       4.850  -4.228   1.908  1.00  0.00     0.165 HD
ENDROOT
BRANCH   1   7
HETATM    7  C   UNL     1       5.333  -3.063   3.814  1.00  0.00     0.125 A 
HETATM    8  C   UNL     1       5.608  -1.938   4.623  1.00  0.00     0.069 A 
HETATM    9  C   UNL     1       5.482  -0.849   3.783  1.00  0.00     0.114 A 
HETATM   10  N   UNL     1       5.171  -1.360   2.559  1.00  0.00    -0.302 N 
HETATM   11  N   UNL     1       5.063  -2.691   2.559  1.00  0.00    -0.284 N 
ATOM     12  HN  UNL     1       4.826  -3.294   1.771  1.00  0.00     0.188 HD
BRANCH  10  13
HETATM   13  C   UNL     1       4.950  -0.654   1.311  1.00  0.00     0.148 C 
BRANCH  13  14
HETATM   14  C   UNL     1       6.173   0.104   0.797  1.00  0.00     0.025 C 
BRANCH  14  15
HETATM   15  C   UNL     1       7.434  -0.754   0.566  1.00  0.00    -0.021 C 
HETATM   16  C   UNL     1       7.229  -1.828  -0.503  1.00  0.00     0.009 C 
HETATM   17  C   UNL     1       8.603   0.150   0.170  1.00  0.00     0.009 C 
ENDBRANCH  14  15
ENDBRANCH  13  14
ENDBRANCH  10  13
ENDBRANCH   1   7
BRANCH   4  18
HETATM   18  C   UNL     1       4.617  -6.154   1.004  1.00  0.00     0.035 C 
HETATM   19  C   UNL     1       5.819  -7.100   0.874  1.00  0.00     0.039 C 
HETATM   20  C   UNL     1       4.506  -5.325  -0.300  1.00  0.00     0.057 C 
HETATM   21  C   UNL     1       3.192  -4.557  -0.389  1.00  0.00     0.170 C 
HETATM   22  O   UNL     1       2.086  -5.443  -0.247  1.00  0.00    -0.391 OA
HETATM   23  C   UNL     1       2.082  -6.073   1.034  1.00  0.00     0.170 C 
HETATM   24  C   UNL     1       3.317  -6.949   1.211  1.00  0.00     0.057 C 
ENDBRANCH   4  18
TORSDOF 5
