REMARK  5 active torsions:
REMARK  status: ('A' for Active; 'I' for Inactive)
REMARK    1  A    between atoms: O_2  and  C_3 
REMARK    2  A    between atoms: C_9  and  N_10 
REMARK       I    between atoms: N_10  and  C_11 
REMARK       I    between atoms: C_11  and  N_13 
REMARK    3  A    between atoms: N_13  and  C_14 
REMARK    4  A    between atoms: N_17  and  C_18 
REMARK    5  A    between atoms: C_18  and  C_19 
REMARK       I    between atoms: C_19  and  N_21 
ROOT
HETATM    1  N   UNL     1       5.970  -0.706  -0.513  1.00  0.00    -0.305 N 
HETATM    2  C   UNL     1       5.357  -1.918  -0.741  1.00  0.00     0.321 C 
HETATM    3  O   UNL     1       4.926  -2.294  -1.827  1.00  0.00    -0.247 OA
HETATM    4  N   UNL     1       5.243  -2.710   0.389  1.00  0.00    -0.338 N 
HETATM    5  H   UNL     1       6.657  -0.657   0.229  1.00  0.00     0.171 HD
HETATM    6  H   UNL     1       5.219  -2.200   1.260  1.00  0.00     0.164 HD
ENDROOT
BRANCH   4   7
HETATM    7  C   UNL     1       4.398  -3.912   0.278  1.00  0.00     0.089 C 
HETATM    8  C   UNL     1       3.819  -4.375   1.619  1.00  0.00     0.055 C 
HETATM    9  C   UNL     1       4.745  -5.312   2.387  1.00  0.00     0.275 C 
HETATM   10  N   UNL     1       5.216  -6.467   1.607  1.00  0.00     0.097 N 
HETATM   11  C   UNL     1       5.928  -5.976   0.416  1.00  0.00     0.275 C 
HETATM   12  C   UNL     1       5.102  -5.052  -0.481  1.00  0.00     0.055 C 
BRANCH  10  13
HETATM   13  C   UNL     1       4.130  -7.408   1.228  1.00  0.00     0.374 C 
BRANCH  13  14
HETATM   14  C   UNL     1       3.457  -8.014   2.461  1.00  0.00     0.243 C 
HETATM   15  O   UNL     1       2.261  -7.900   2.706  1.00  0.00    -0.272 OA
HETATM   16  N   UNL     1       4.288  -8.723   3.281  1.00  0.00    -0.369 N 
HETATM   17  H   UNL     1       5.282  -8.534   3.230  1.00  0.00     0.159 HD
HETATM   18  H   UNL     1       3.901  -9.034   4.161  1.00  0.00     0.159 HD
ENDBRANCH  13  14
ENDBRANCH  10  13
ENDBRANCH   4   7
BRANCH   1  19
HETATM   19  C   UNL     1       6.007   0.353  -1.467  1.00  0.00     0.087 A 
HETATM   20  C   UNL     1       6.977   1.359  -1.409  1.00  0.00     0.169 A 
HETATM   21  N   UNL     1       7.042   2.408  -2.269  1.00  0.00    -0.345 N 
HETATM   22  C   UNL     1       6.119   2.452  -3.256  1.00  0.00     0.090 A 
ATOM     23  HN  UNL     1       7.756   3.131  -2.175  1.00  0.00     0.167 HD
HETATM   24  C   UNL     1       5.132   1.503  -3.415  1.00  0.00     0.019 A 
HETATM   25  C   UNL     1       5.066   0.456  -2.497  1.00  0.00     0.035 A 
BRANCH  20  26
HETATM   26  O   UNL     1       7.958   1.255  -0.437  1.00  0.00    -0.339 OA
HETATM   27  C   UNL     1       9.100   2.052  -0.762  1.00  0.00     0.211 C 
ENDBRANCH  20  26
ENDBRANCH   1  19
TORSDOF 5
