REMARK  4 active torsions:
REMARK  status: ('A' for Active; 'I' for Inactive)
REMARK       I    between atoms: C_2  and  N_3 
REMARK       I    between atoms: C_2  and  N_12 
REMARK    1  A    between atoms: N_3  and  C_4 
REMARK    2  A    between atoms: C_4  and  C_5 
REMARK    3  A    between atoms: C_5  and  N_6 
REMARK    4  A    between atoms: C_16  and  N_18 
ROOT
HETATM    1  O   UNL     1       1.207  -0.252  -0.318  1.00  0.00    -0.247 OA
HETATM    2  C   UNL     1       2.376  -0.011  -0.022  1.00  0.00     0.318 C 
HETATM    3  N   UNL     1       2.966   1.174  -0.382  1.00  0.00    -0.341 N 
HETATM    4  N   UNL     1       3.156  -0.876   0.715  1.00  0.00    -0.332 N 
HETATM    5  C   UNL     1       4.532  -0.677   1.161  1.00  0.00     0.127 C 
HETATM    6  C   UNL     1       5.388  -1.860   0.717  1.00  0.00     0.022 C 
HETATM    7  C   UNL     1       4.809  -3.189   1.217  1.00  0.00     0.039 C 
HETATM    8  C   UNL     1       3.332  -3.368   0.791  1.00  0.00     0.241 C 
HETATM    9  C   UNL     1       2.538  -2.107   1.221  1.00  0.00     0.163 C 
HETATM   10  H   UNL     1       3.937   1.088  -0.635  1.00  0.00     0.164 HD
ENDROOT
BRANCH   3  11
HETATM   11  C   UNL     1       2.212   2.153  -1.156  1.00  0.00     0.144 C 
BRANCH  11  12
HETATM   12  C   UNL     1       0.988   2.709  -0.422  1.00  0.00     0.149 C 
BRANCH  12  13
HETATM   13  N   UNL     1       0.268   3.686  -1.213  1.00  0.00    -0.350 N 
HETATM   14  C   UNL     1       0.451   5.039  -1.196  1.00  0.00     0.108 A 
HETATM   15  C   UNL     1      -0.505   5.534  -2.053  1.00  0.00     0.106 A 
HETATM   16  N   UNL     1      -1.250   4.517  -2.592  1.00  0.00    -0.361 N 
HETATM   17  C   UNL     1      -0.769   3.415  -2.060  1.00  0.00     0.182 A 
ATOM     18  HN  UNL     1      -2.014   4.598  -3.263  1.00  0.00     0.166 HD
ENDBRANCH  12  13
ENDBRANCH  11  12
ENDBRANCH   3  11
BRANCH   8  19
HETATM   19  N   UNL     1       2.764  -4.615   1.349  1.00  0.00     0.094 N 
HETATM   20  C   UNL     1       3.418  -5.833   0.846  1.00  0.00     0.273 C 
HETATM   21  C   UNL     1       2.341  -6.916   0.817  1.00  0.00     0.032 C 
HETATM   22  C   UNL     1       1.092  -6.245   1.353  1.00  0.00     0.032 C 
HETATM   23  C   UNL     1       1.333  -4.779   1.063  1.00  0.00     0.273 C 
ENDBRANCH   8  19
TORSDOF 4
