REMARK  5 active torsions:
REMARK  status: ('A' for Active; 'I' for Inactive)
REMARK    1  A    between atoms: C_2  and  N_4 
REMARK    2  A    between atoms: C_9  and  C_10 
REMARK       I    between atoms: C_10  and  N_12 
REMARK    3  A    between atoms: N_12  and  C_13 
REMARK    4  A    between atoms: C_13  and  C_14 
REMARK    5  A    between atoms: C_14  and  C_15 
ROOT
HETATM    1  C   UNL     1       1.908   2.621  -1.969  1.00  0.00     0.240 C 
HETATM    2  O   UNL     1       0.692   2.816  -1.994  1.00  0.00    -0.271 OA
HETATM    3  N   UNL     1       2.642   2.485  -3.126  1.00  0.00    -0.359 N 
HETATM    4  H   UNL     1       3.645   2.353  -3.073  1.00  0.00     0.162 HD
ENDROOT
BRANCH   1   5
HETATM    5  C   UNL     1       2.720   2.595  -0.661  1.00  0.00     0.172 C 
HETATM    6  N   UNL     1       3.230   1.270  -0.220  1.00  0.00    -0.396 N 
HETATM    7  C   UNL     1       3.965   1.399   1.058  1.00  0.00     0.118 C 
HETATM    8  C   UNL     1       3.230   2.162   2.169  1.00  0.00     0.020 C 
HETATM    9  C   UNL     1       2.774   3.528   1.691  1.00  0.00     0.004 C 
HETATM   10  C   UNL     1       1.959   3.385   0.414  1.00  0.00     0.035 C 
BRANCH   6  11
HETATM   11  C   UNL     1       2.422   0.034  -0.282  1.00  0.00     0.071 C 
HETATM   12  C   UNL     1       1.283  -0.127   0.729  1.00  0.00     0.031 C 
HETATM   13  C   UNL     1       1.914  -0.346  -1.675  1.00  0.00     0.031 C 
ENDBRANCH   6  11
ENDBRANCH   1   5
BRANCH   3  14
HETATM   14  C   UNL     1       2.022   2.595  -4.439  1.00  0.00     0.130 C 
BRANCH  14  15
HETATM   15  C   UNL     1       1.769   4.042  -4.874  1.00  0.00     0.096 C 
BRANCH  15  16
HETATM   16  C   UNL     1       3.049   4.780  -5.114  1.00  0.00     0.084 A 
HETATM   17  N   UNL     1       3.981   4.415  -5.975  1.00  0.00    -0.354 N 
HETATM   18  C   UNL     1       4.966   5.362  -5.890  1.00  0.00     0.106 A 
ATOM     19  HN  UNL     1       3.969   3.594  -6.580  1.00  0.00     0.166 HD
HETATM   20  C   UNL     1       4.637   6.319  -4.963  1.00  0.00     0.108 A 
HETATM   21  N   UNL     1       3.415   5.944  -4.477  1.00  0.00    -0.350 N 
HETATM   22  C   UNL     1       2.654   6.666  -3.485  1.00  0.00     0.156 C 
ENDBRANCH  15  16
ENDBRANCH  14  15
ENDBRANCH   3  14
TORSDOF 5
