REMARK  1 active torsions:
REMARK  status: ('A' for Active; 'I' for Inactive)
REMARK    1  A    between atoms: C_3  and  C_6 
ROOT
HETATM    1  C   UNL     1       2.270   0.628  -1.092  1.00  0.00     0.015 A 
HETATM    2  C   UNL     1       3.537   1.106  -0.765  1.00  0.00     0.025 A 
HETATM    3  C   UNL     1       4.447   1.363  -1.787  1.00  0.00     0.003 A 
HETATM    4  C   UNL     1       4.074   1.135  -3.105  1.00  0.00     0.017 A 
HETATM    5  C   UNL     1       2.803   0.648  -3.346  1.00  0.00     0.088 A 
HETATM    6  N   UNL     1       1.900   0.388  -2.375  1.00  0.00    -0.369 N 
ATOM      7  HN  UNL     1       0.974   0.024  -2.599  1.00  0.00     0.165 HD
ENDROOT
BRANCH   1   8
HETATM    8  C   UNL     1       1.248   0.381  -0.009  1.00  0.00     0.065 C 
HETATM    9  C   UNL     1       0.747  -1.067   0.056  1.00  0.00     0.042 C 
HETATM   10  C   UNL     1      -0.753  -0.970  -0.173  1.00  0.00     0.270 C 
HETATM   11  N   UNL     1      -1.097   0.368   0.315  1.00  0.00     0.084 N 
HETATM   12  C   UNL     1      -0.019   1.217  -0.207  1.00  0.00     0.280 C 
HETATM   13  H   UNL     1      -1.992   0.663  -0.073  1.00  0.00     0.315 HD
ENDBRANCH   1   8
TORSDOF 1
