REMARK  4 active torsions:
REMARK  status: ('A' for Active; 'I' for Inactive)
REMARK    1  A    between atoms: C_2  and  C_3 
REMARK       I    between atoms: C_2  and  N_11 
REMARK    2  A    between atoms: C_3  and  N_4 
REMARK    3  A    between atoms: N_11  and  C_12 
REMARK    4  A    between atoms: C_12  and  C_13 
ROOT
HETATM    1  O   UNL     1       2.881  -1.063   0.364  1.00  0.00    -0.272 OA
HETATM    2  C   UNL     1       2.276  -0.212  -0.286  1.00  0.00     0.235 C 
HETATM    3  N   UNL     1       2.915   0.782  -0.996  1.00  0.00    -0.359 N 
HETATM    4  H   UNL     1       2.364   1.367  -1.616  1.00  0.00     0.162 HD
ENDROOT
BRANCH   2   5
HETATM    5  C   UNL     1       0.753  -0.205  -0.387  1.00  0.00     0.234 C 
BRANCH   5   6
HETATM    6  N   UNL     1       0.184   1.045   0.122  1.00  0.00    -0.316 N 
HETATM    7  C   UNL     1       0.331   1.348   1.467  1.00  0.00     0.095 A 
HETATM    8  C   UNL     1      -0.190   2.467   1.987  1.00  0.00     0.017 A 
HETATM    9  C   UNL     1      -0.956   3.357   1.154  1.00  0.00     0.007 A 
HETATM   10  C   UNL     1      -1.108   3.101  -0.152  1.00  0.00     0.074 A 
HETATM   11  C   UNL     1      -0.477   1.896  -0.759  1.00  0.00     0.247 A 
HETATM   12  O   UNL     1      -0.565   1.714  -1.970  1.00  0.00    -0.268 OA
ENDBRANCH   5   6
ENDBRANCH   2   5
BRANCH   3  13
HETATM   13  C   UNL     1       4.353   0.930  -0.927  1.00  0.00     0.127 C 
BRANCH  13  14
HETATM   14  C   UNL     1       4.894   2.114  -1.748  1.00  0.00     0.003 C 
HETATM   15  C   UNL     1       6.432   2.166  -1.671  1.00  0.00     0.006 C 
HETATM   16  C   UNL     1       6.949   2.680  -0.327  1.00  0.00     0.000 C 
HETATM   17  C   UNL     1       6.349   4.038   0.019  1.00  0.00     0.000 C 
HETATM   18  C   UNL     1       4.824   4.003  -0.012  1.00  0.00     0.000 C 
HETATM   19  C   UNL     1       4.296   3.473  -1.343  1.00  0.00     0.006 C 
ENDBRANCH  13  14
ENDBRANCH   3  13
TORSDOF 4
