REMARK  5 active torsions:
REMARK  status: ('A' for Active; 'I' for Inactive)
REMARK    1  A    between atoms: C_2  and  C_4 
REMARK    2  A    between atoms: C_4  and  N_5 
REMARK       I    between atoms: N_5  and  C_6 
REMARK       I    between atoms: C_6  and  N_8 
REMARK    3  A    between atoms: N_8  and  C_9 
REMARK    4  A    between atoms: C_9  and  C_10 
REMARK    5  A    between atoms: C_16  and  N_17 
ROOT
HETATM    1  C   UNL     1       8.863  -2.674  -2.333  1.00  0.00     0.004 A 
HETATM    2  C   UNL     1       9.551  -1.439  -2.268  1.00  0.00     0.014 A 
HETATM    3  C   UNL     1      10.905  -1.392  -1.993  1.00  0.00     0.018 A 
HETATM    4  C   UNL     1      11.538  -2.592  -1.790  1.00  0.00     0.089 A 
HETATM    5  N   UNL     1      10.921  -3.789  -1.895  1.00  0.00    -0.352 N 
ATOM      6  HN  UNL     1      11.456  -4.645  -1.751  1.00  0.00     0.166 HD
HETATM    7  C   UNL     1       9.595  -3.868  -2.190  1.00  0.00     0.111 A 
ENDROOT
BRANCH   1   8
HETATM    8  C   UNL     1       7.367  -2.567  -2.447  1.00  0.00     0.166 C 
BRANCH   8   9
HETATM    9  N   UNL     1       6.886  -2.595  -3.810  1.00  0.00    -0.339 N 
HETATM   10  C   UNL     1       5.540  -2.664  -4.024  1.00  0.00     0.316 C 
HETATM   11  N   UNL     1       5.224  -2.761  -5.347  1.00  0.00    -0.343 N 
HETATM   12  O   UNL     1       4.711  -2.674  -3.123  1.00  0.00    -0.247 OA
HETATM   13  H   UNL     1       5.961  -2.947  -6.010  1.00  0.00     0.164 HD
HETATM   14  H   UNL     1       7.441  -2.143  -4.520  1.00  0.00     0.164 HD
BRANCH  11  15
HETATM   15  C   UNL     1       3.846  -2.756  -5.797  1.00  0.00     0.128 C 
BRANCH  15  16
HETATM   16  C   UNL     1       3.334  -1.321  -5.989  1.00  0.00    -0.005 C 
HETATM   17  C   UNL     1       4.110  -0.606  -7.097  1.00  0.00     0.011 C 
HETATM   18  C   UNL     1       1.840  -1.323  -6.306  1.00  0.00     0.011 C 
ENDBRANCH  15  16
ENDBRANCH  11  15
ENDBRANCH   8   9
ENDBRANCH   1   8
BRANCH   7  19
HETATM   19  N   UNL     1       9.127  -5.154  -2.372  1.00  0.00    -0.363 N 
HETATM   20  C   UNL     1       9.766  -6.232  -1.585  1.00  0.00     0.150 C 
HETATM   21  C   UNL     1       9.728  -7.565  -2.353  1.00  0.00     0.187 C 
HETATM   22  O   UNL     1       8.399  -7.907  -2.772  1.00  0.00    -0.388 OA
HETATM   23  C   UNL     1       7.895  -6.884  -3.636  1.00  0.00     0.187 C 
HETATM   24  C   UNL     1       7.824  -5.526  -2.925  1.00  0.00     0.150 C 
ENDBRANCH   7  19
TORSDOF 5
