REMARK  8 active torsions:
REMARK  status: ('A' for Active; 'I' for Inactive)
REMARK    1  A    between atoms: O_1  and  C_2 
REMARK    2  A    between atoms: C_2  and  C_3 
REMARK    3  A    between atoms: N_12  and  C_13 
REMARK    4  A    between atoms: C_13  and  C_14 
REMARK    5  A    between atoms: C_14  and  O_15 
REMARK    6  A    between atoms: C_14  and  C_16 
REMARK    7  A    between atoms: C_16  and  O_17 
REMARK    8  A    between atoms: O_17  and  C_18 
ROOT
HETATM    1  C   UNL     1       2.950  -0.442   1.457  1.00  0.00     0.108 A 
HETATM    2  N   UNL     1       3.391   0.392   2.378  1.00  0.00    -0.342 N 
ATOM      3  HN  UNL     1       3.543   1.396   2.276  1.00  0.00     0.167 HD
HETATM    4  C   UNL     1       3.603  -0.363   3.496  1.00  0.00     0.060 A 
HETATM    5  C   UNL     1       4.051   0.054   4.761  1.00  0.00     0.032 A 
HETATM    6  C   UNL     1       4.203  -0.889   5.779  1.00  0.00     0.002 A 
HETATM    7  C   UNL     1       3.930  -2.229   5.538  1.00  0.00     0.002 A 
HETATM    8  C   UNL     1       3.490  -2.662   4.281  1.00  0.00     0.032 A 
HETATM    9  C   UNL     1       3.313  -1.708   3.264  1.00  0.00     0.062 A 
HETATM   10  N   UNL     1       2.868  -1.739   1.956  1.00  0.00    -0.330 N 
ENDROOT
BRANCH  10  11
HETATM   11  C   UNL     1       2.364  -2.857   1.163  1.00  0.00     0.164 C 
BRANCH  11  12
HETATM   12  C   UNL     1       2.254  -4.240   1.821  1.00  0.00     0.160 C 
BRANCH  12  13
HETATM   13  O   UNL     1       1.292  -4.257   2.884  1.00  0.00    -0.392 OA
HETATM   14  H   UNL     1       0.547  -3.677   2.646  1.00  0.00     0.210 HD
ENDBRANCH  12  13
BRANCH  12  15
HETATM   15  C   UNL     1       1.842  -5.335   0.834  1.00  0.00     0.209 C 
BRANCH  15  16
HETATM   16  O   UNL     1       2.791  -5.409  -0.224  1.00  0.00    -0.349 OA
BRANCH  16  17
HETATM   17  C   UNL     1       2.513  -6.338  -1.189  1.00  0.00     0.068 A 
HETATM   18  C   UNL     1       2.977  -6.024  -2.467  1.00  0.00     0.037 A 
HETATM   19  C   UNL     1       2.762  -6.900  -3.529  1.00  0.00     0.003 A 
HETATM   20  C   UNL     1       2.098  -8.106  -3.311  1.00  0.00     0.000 A 
HETATM   21  C   UNL     1       1.655  -8.435  -2.032  1.00  0.00     0.003 A 
HETATM   22  C   UNL     1       1.863  -7.554  -0.971  1.00  0.00     0.037 A 
ENDBRANCH  16  17
ENDBRANCH  15  16
ENDBRANCH  12  15
ENDBRANCH  11  12
ENDBRANCH  10  11
BRANCH   1  23
HETATM   23  C   UNL     1       2.617  -0.041   0.058  1.00  0.00     0.240 C 
BRANCH  23  24
HETATM   24  O   UNL     1       1.247  -0.342  -0.182  1.00  0.00    -0.393 OA
HETATM   25  H   UNL     1       0.944   0.295  -0.851  1.00  0.00     0.209 HD
ENDBRANCH  23  24
ENDBRANCH   1  23
TORSDOF 8
