REMARK  3 active torsions:
REMARK  status: ('A' for Active; 'I' for Inactive)
REMARK    1  A    between atoms: C_2  and  N_3 
REMARK       I    between atoms: N_3  and  C_4 
REMARK       I    between atoms: C_4  and  N_6 
REMARK    2  A    between atoms: N_6  and  C_7 
REMARK    3  A    between atoms: C_10  and  N_14 
ROOT
HETATM    1  C   UNL     1       6.299   1.533  -2.997  1.00  0.00     0.051 A 
HETATM    2  C   UNL     1       6.889   2.767  -3.194  1.00  0.00     0.035 A 
HETATM    3  C   UNL     1       8.236   2.856  -3.552  1.00  0.00     0.051 A 
HETATM    4  C   UNL     1       9.014   1.715  -3.713  1.00  0.00     0.103 A 
HETATM    5  N   UNL     1       8.455   0.508  -3.465  1.00  0.00    -0.350 N 
ATOM      6  HN  UNL     1       9.012  -0.342  -3.544  1.00  0.00     0.166 HD
HETATM    7  C   UNL     1       7.140   0.437  -3.108  1.00  0.00     0.119 A 
ENDROOT
BRANCH   1   8
HETATM    8  N   UNL     1       4.923   1.377  -2.709  1.00  0.00    -0.308 N 
HETATM    9  C   UNL     1       3.966   2.326  -3.002  1.00  0.00     0.320 C 
HETATM   10  N   UNL     1       2.707   1.943  -2.579  1.00  0.00    -0.343 N 
HETATM   11  O   UNL     1       4.149   3.385  -3.592  1.00  0.00    -0.247 OA
HETATM   12  H   UNL     1       2.695   1.464  -1.690  1.00  0.00     0.164 HD
HETATM   13  H   UNL     1       4.575   0.441  -2.571  1.00  0.00     0.170 HD
BRANCH  10  14
HETATM   14  C   UNL     1       1.619   2.871  -2.838  1.00  0.00     0.120 C 
HETATM   15  C   UNL     1       0.276   2.349  -2.377  1.00  0.00     0.026 C 
ENDBRANCH  10  14
ENDBRANCH   1   8
BRANCH   4  16
HETATM   16  N   UNL     1      10.337   1.776  -4.092  1.00  0.00    -0.362 N 
HETATM   17  C   UNL     1      11.064   3.002  -4.444  1.00  0.00     0.156 C 
HETATM   18  C   UNL     1      11.478   2.961  -5.929  1.00  0.00     0.136 C 
HETATM   19  C   UNL     1      12.314   4.183  -6.288  1.00  0.00     0.041 C 
HETATM   20  O   UNL     1      12.272   1.791  -6.199  1.00  0.00    -0.378 OA
HETATM   21  C   UNL     1      11.525   0.591  -5.908  1.00  0.00     0.136 C 
HETATM   22  C   UNL     1      12.433  -0.586  -6.239  1.00  0.00     0.041 C 
HETATM   23  C   UNL     1      11.072   0.546  -4.427  1.00  0.00     0.156 C 
ENDBRANCH   4  16
TORSDOF 3
