REMARK  3 active torsions:
REMARK  status: ('A' for Active; 'I' for Inactive)
REMARK    1  A    between atoms: S_2  and  N_5 
REMARK    2  A    between atoms: C_8  and  N_11 
REMARK       I    between atoms: N_11  and  C_12 
REMARK       I    between atoms: C_12  and  N_14 
REMARK    3  A    between atoms: N_14  and  C_15 
ROOT
HETATM    1  N   UNL     1       2.896   5.000  -0.642  1.00  0.00    -0.338 N 
HETATM    2  C   UNL     1       3.160   6.151   0.072  1.00  0.00     0.321 C 
HETATM    3  O   UNL     1       2.880   6.281   1.256  1.00  0.00    -0.247 OA
HETATM    4  N   UNL     1       3.689   7.133  -0.740  1.00  0.00    -0.308 N 
HETATM    5  H   UNL     1       3.576   4.781  -1.357  1.00  0.00     0.164 HD
HETATM    6  H   UNL     1       3.387   7.067  -1.701  1.00  0.00     0.170 HD
ENDROOT
BRANCH   1   7
HETATM    7  C   UNL     1       2.188   3.895   0.007  1.00  0.00     0.089 C 
HETATM    8  C   UNL     1       3.096   3.090   0.939  1.00  0.00     0.045 C 
HETATM    9  C   UNL     1       4.039   2.180   0.166  1.00  0.00     0.137 C 
HETATM   10  N   UNL     1       3.298   1.305  -0.770  1.00  0.00    -0.311 N 
HETATM   11  C   UNL     1       2.445   2.048  -1.725  1.00  0.00     0.137 C 
HETATM   12  C   UNL     1       1.489   2.991  -1.012  1.00  0.00     0.045 C 
BRANCH  10  13
HETATM   13  S   UNL     1       2.730  -0.185  -0.194  1.00  0.00     0.224 S 
HETATM   14  C   UNL     1       4.248  -1.110  -0.065  1.00  0.00     0.186 C 
HETATM   15  O   UNL     1       1.948  -0.805  -1.242  1.00  0.00    -0.206 OA
HETATM   16  O   UNL     1       2.197   0.011   1.133  1.00  0.00    -0.206 OA
ENDBRANCH  10  13
ENDBRANCH   1   7
BRANCH   4  17
HETATM   17  C   UNL     1       3.946   8.430  -0.246  1.00  0.00     0.051 A 
HETATM   18  C   UNL     1       3.592   9.529  -1.025  1.00  0.00     0.032 A 
HETATM   19  C   UNL     1       3.747  10.813  -0.505  1.00  0.00     0.019 A 
HETATM   20  C   UNL     1       4.306  10.954   0.755  1.00  0.00     0.088 A 
HETATM   21  N   UNL     1       4.714   9.915   1.514  1.00  0.00    -0.373 N 
HETATM   22  C   UNL     1       4.508   8.675   1.005  1.00  0.00     0.117 A 
ATOM     23  HN  UNL     1       5.154  10.055   2.423  1.00  0.00     0.164 HD
ENDBRANCH   4  17
TORSDOF 3
