REMARK  5 active torsions:
REMARK  status: ('A' for Active; 'I' for Inactive)
REMARK    1  A    between atoms: C_5  and  C_6 
REMARK    2  A    between atoms: C_6  and  C_7 
REMARK    3  A    between atoms: C_7  and  N_8 
REMARK       I    between atoms: N_8  and  C_9 
REMARK       I    between atoms: C_9  and  N_11 
REMARK    4  A    between atoms: C_15  and  C_16 
REMARK    5  A    between atoms: C_16  and  N_17 
ROOT
HETATM    1  N   UNL     1       8.905  -1.354  -0.702  1.00  0.00    -0.343 N 
HETATM    2  C   UNL     1       9.611  -2.526  -0.802  1.00  0.00     0.318 C 
HETATM    3  O   UNL     1       9.093  -3.610  -0.546  1.00  0.00    -0.247 OA
HETATM    4  N   UNL     1      10.930  -2.403  -1.214  1.00  0.00    -0.334 N 
HETATM    5  C   UNL     1      11.711  -1.164  -1.276  1.00  0.00     0.127 C 
HETATM    6  C   UNL     1      12.534  -1.089  -2.564  1.00  0.00     0.020 C 
HETATM    7  C   UNL     1      13.366  -2.356  -2.775  1.00  0.00     0.009 C 
HETATM    8  C   UNL     1      12.439  -3.581  -2.758  1.00  0.00     0.032 C 
HETATM    9  C   UNL     1      11.715  -3.631  -1.402  1.00  0.00     0.134 C 
HETATM   10  H   UNL     1       9.182  -0.630  -1.344  1.00  0.00     0.164 HD
ENDROOT
BRANCH   1  11
HETATM   11  C   UNL     1       7.492  -1.373  -0.339  1.00  0.00     0.129 C 
BRANCH  11  12
HETATM   12  C   UNL     1       7.294  -1.459   1.176  1.00  0.00     0.060 C 
BRANCH  12  13
HETATM   13  C   UNL     1       5.850  -1.535   1.593  1.00  0.00    -0.041 A 
HETATM   14  C   UNL     1       5.200  -2.763   1.728  1.00  0.00     0.010 A 
HETATM   15  C   UNL     1       3.885  -2.806   2.190  1.00  0.00     0.025 A 
HETATM   16  C   UNL     1       3.239  -1.611   2.491  1.00  0.00     0.005 A 
HETATM   17  C   UNL     1       1.856  -1.611   3.069  1.00  0.00     0.068 C 
HETATM   18  N   UNL     1       3.833  -0.405   2.330  1.00  0.00    -0.369 N 
HETATM   19  C   UNL     1       5.112  -0.395   1.888  1.00  0.00     0.095 A 
ATOM     20  HN  UNL     1       3.336   0.462   2.534  1.00  0.00     0.165 HD
ENDBRANCH  12  13
ENDBRANCH  11  12
ENDBRANCH   1  11
BRANCH   8  21
HETATM   21  C   UNL     1      13.168  -4.904  -3.066  1.00  0.00     0.278 C 
BRANCH  21  22
HETATM   22  N   UNL     1      13.826  -4.941  -4.386  1.00  0.00     0.092 N 
HETATM   23  C   UNL     1      12.909  -4.733  -5.532  1.00  0.00     0.298 C 
HETATM   24  C   UNL     1      11.960  -5.913  -5.791  1.00  0.00     0.198 C 
HETATM   25  O   UNL     1      12.695  -7.121  -6.019  1.00  0.00    -0.388 OA
HETATM   26  C   UNL     1      13.557  -7.411  -4.911  1.00  0.00     0.198 C 
HETATM   27  C   UNL     1      14.512  -6.239  -4.607  1.00  0.00     0.298 C 
ENDBRANCH  21  22
ENDBRANCH   8  21
TORSDOF 5
