REMARK  7 active torsions:
REMARK  status: ('A' for Active; 'I' for Inactive)
REMARK    1  A    between atoms: N_1  and  C_3 
REMARK    2  A    between atoms: N_4  and  C_15 
REMARK    3  A    between atoms: C_8  and  C_14 
REMARK       I    between atoms: C_14  and  N_24 
REMARK    4  A    between atoms: C_15  and  C_18 
REMARK    5  A    between atoms: C_18  and  C_22 
REMARK    6  A    between atoms: C_18  and  O_25 
REMARK    7  A    between atoms: C_20  and  O_26 
ROOT
HETATM    1  C   UNL     1      -2.767  -1.754  -1.490  1.00  0.00     0.122 A 
HETATM    2  C   UNL     1      -1.600  -1.967  -0.709  1.00  0.00     0.136 A 
HETATM    3  N   UNL     1      -4.454  -2.372  -2.750  1.00  0.00    -0.325 N 
HETATM    4  C   UNL     1      -3.327  -2.851  -2.133  1.00  0.00     0.140 A 
HETATM    5  N   UNL     1      -3.518  -0.620  -1.752  1.00  0.00    -0.346 N 
ATOM      6  HN  UNL     1      -3.337   0.330  -1.427  1.00  0.00     0.167 HD
HETATM    7  C   UNL     1      -4.513  -1.027  -2.509  1.00  0.00     0.185 A 
HETATM    8  N   UNL     1      -1.115  -3.244  -0.698  1.00  0.00    -0.337 N 
ATOM      9  HN  UNL     1      -0.267  -3.464  -0.175  1.00  0.00     0.168 HD
HETATM   10  N   UNL     1      -2.882  -4.117  -2.118  1.00  0.00    -0.336 N 
ATOM     11  HN  UNL     1      -3.332  -4.897  -2.598  1.00  0.00     0.168 HD
HETATM   12  C   UNL     1      -1.760  -4.215  -1.381  1.00  0.00     0.183 A 
ENDROOT
BRANCH   2  13
HETATM   13  N   UNL     1      -0.942  -0.981   0.004  1.00  0.00    -0.349 N 
HETATM   14  C   UNL     1      -1.667   0.167   0.581  1.00  0.00     0.180 C 
HETATM   15  C   UNL     1      -1.096   0.338   2.000  1.00  0.00     0.068 C 
HETATM   16  C   UNL     1      -0.117  -0.814   2.221  1.00  0.00     0.141 C 
HETATM   17  C   UNL     1       0.238  -1.288   0.808  1.00  0.00     0.157 C 
BRANCH  14  18
HETATM   18  C   UNL     1      -1.398   1.438  -0.248  1.00  0.00     0.238 C 
HETATM   19  O   UNL     1      -0.439   2.191  -0.088  1.00  0.00    -0.271 OA
HETATM   20  N   UNL     1      -2.312   1.714  -1.223  1.00  0.00    -0.368 N 
HETATM   21  H   UNL     1      -2.061   2.439  -1.878  1.00  0.00     0.159 HD
HETATM   22  H   UNL     1      -2.862   0.933  -1.590  1.00  0.00     0.159 HD
ENDBRANCH  14  18
BRANCH  16  23
HETATM   23  O   UNL     1       1.061  -0.430   2.932  1.00  0.00    -0.389 OA
HETATM   24  C   UNL     1       0.810   0.086   4.233  1.00  0.00     0.202 C 
ENDBRANCH  16  23
ENDBRANCH   2  13
BRANCH   3  25
HETATM   25  C   UNL     1      -5.510  -3.166  -3.354  1.00  0.00     0.165 C 
BRANCH  25  26
HETATM   26  C   UNL     1      -5.749  -2.889  -4.844  1.00  0.00     0.165 C 
BRANCH  26  27
HETATM   27  C   UNL     1      -6.875  -3.749  -5.446  1.00  0.00     0.151 C 
HETATM   28  O   UNL     1      -8.117  -3.484  -4.757  1.00  0.00    -0.383 OA
HETATM   29  C   UNL     1      -8.965  -4.633  -4.936  1.00  0.00     0.168 C 
HETATM   30  C   UNL     1      -8.136  -5.715  -5.606  1.00  0.00     0.029 C 
HETATM   31  C   UNL     1      -6.714  -5.254  -5.378  1.00  0.00     0.036 C 
ENDBRANCH  26  27
BRANCH  26  32
HETATM   32  O   UNL     1      -6.145  -1.514  -5.015  1.00  0.00    -0.391 OA
HETATM   33  H   UNL     1      -7.096  -1.474  -4.787  1.00  0.00     0.210 HD
ENDBRANCH  26  32
ENDBRANCH  25  26
ENDBRANCH   3  25
TORSDOF 7
