REMARK  6 active torsions:
REMARK  status: ('A' for Active; 'I' for Inactive)
REMARK    1  A    between atoms: C_4  and  O_5 
REMARK    2  A    between atoms: N_9  and  C_10 
REMARK    3  A    between atoms: C_10  and  C_11 
REMARK       I    between atoms: C_11  and  N_13 
REMARK    4  A    between atoms: N_13  and  C_14 
REMARK    5  A    between atoms: C_14  and  C_15 
REMARK    6  A    between atoms: C_14  and  C_20 
ROOT
HETATM    1  C   UNL     1       0.973   2.257  -0.507  1.00  0.00     0.236 C 
HETATM    2  O   UNL     1       0.481   1.181  -0.850  1.00  0.00    -0.272 OA
HETATM    3  N   UNL     1       0.219   3.243   0.098  1.00  0.00    -0.346 N 
HETATM    4  H   UNL     1       0.679   4.117   0.348  1.00  0.00     0.163 HD
ENDROOT
BRANCH   1   5
HETATM    5  C   UNL     1       2.461   2.569  -0.719  1.00  0.00     0.234 C 
BRANCH   5   6
HETATM    6  N   UNL     1       3.336   2.245   0.410  1.00  0.00    -0.310 N 
HETATM    7  C   UNL     1       4.008   1.017   0.511  1.00  0.00     0.014 A 
HETATM    8  C   UNL     1       3.739  -0.085  -0.478  1.00  0.00     0.068 C 
HETATM    9  C   UNL     1       4.897   0.818   1.501  1.00  0.00     0.061 A 
HETATM   10  C   UNL     1       5.190   1.861   2.447  1.00  0.00     0.072 A 
HETATM   11  C   UNL     1       4.549   3.028   2.399  1.00  0.00     0.111 A 
HETATM   12  C   UNL     1       3.525   3.265   1.352  1.00  0.00     0.250 A 
HETATM   13  O   UNL     1       2.908   4.331   1.333  1.00  0.00    -0.268 OA
BRANCH  10  14
HETATM   14  O   UNL     1       6.159   1.617   3.394  1.00  0.00    -0.360 OA
HETATM   15  H   UNL     1       6.521   0.724   3.266  1.00  0.00     0.217 HD
ENDBRANCH  10  14
ENDBRANCH   5   6
ENDBRANCH   1   5
BRANCH   3  16
HETATM   16  C   UNL     1      -1.261   3.129   0.171  1.00  0.00     0.196 C 
BRANCH  16  17
HETATM   17  C   UNL     1      -1.858   3.896   1.371  1.00  0.00     0.017 C 
HETATM   18  C   UNL     1      -1.674   5.422   1.342  1.00  0.00     0.007 C 
HETATM   19  C   UNL     1      -1.341   5.848   2.769  1.00  0.00     0.000 C 
HETATM   20  C   UNL     1      -1.564   4.624   3.642  1.00  0.00     0.000 C 
HETATM   21  C   UNL     1      -1.293   3.448   2.721  1.00  0.00     0.007 C 
ENDBRANCH  16  17
BRANCH  16  22
HETATM   22  C   UNL     1      -2.006   3.457  -1.156  1.00  0.00     0.407 C 
HETATM   23  F   UNL     1      -1.154   3.829  -2.142  1.00  0.00    -0.169 F 
HETATM   24  F   UNL     1      -2.701   2.385  -1.605  1.00  0.00    -0.169 F 
HETATM   25  F   UNL     1      -2.899   4.466  -1.014  1.00  0.00    -0.169 F 
ENDBRANCH  16  22
ENDBRANCH   3  16
TORSDOF 6
