REMARK  6 active torsions:
REMARK  status: ('A' for Active; 'I' for Inactive)
REMARK    1  A    between atoms: N_1  and  C_8 
REMARK    2  A    between atoms: N_2  and  C_7 
REMARK    3  A    between atoms: C_8  and  C_12 
REMARK    4  A    between atoms: C_9  and  N_10 
REMARK       I    between atoms: N_10  and  C_14 
REMARK       I    between atoms: C_12  and  N_17 
REMARK    5  A    between atoms: C_14  and  C_22 
REMARK    6  A    between atoms: N_17  and  C_22 
ROOT
HETATM    1  C   UNL     1      -2.579   2.020   1.269  1.00  0.00     0.236 C 
HETATM    2  N   UNL     1      -3.161   0.818   1.589  1.00  0.00    -0.351 N 
HETATM    3  O   UNL     1      -3.154   3.080   1.546  1.00  0.00    -0.272 OA
HETATM    4  H   UNL     1      -2.813   0.026   1.063  1.00  0.00     0.163 HD
ENDROOT
BRANCH   1   5
HETATM    5  C   UNL     1      -1.253   2.050   0.443  1.00  0.00     0.240 C 
BRANCH   5   6
HETATM    6  N   UNL     1      -0.364   0.892   0.375  1.00  0.00    -0.255 N 
HETATM    7  C   UNL     1      -0.897  -0.297  -0.081  1.00  0.00     0.334 C 
HETATM    8  N   UNL     1      -0.119  -1.420   0.201  1.00  0.00    -0.279 N 
HETATM    9  O   UNL     1      -2.019  -0.364  -0.582  1.00  0.00    -0.246 OA
HETATM   10  C   UNL     1       1.254  -1.319   0.237  1.00  0.00     0.146 C 
HETATM   11  C   UNL     1       1.833  -0.121   0.170  1.00  0.00     0.200 C 
HETATM   12  C   UNL     1       1.000   1.109   0.226  1.00  0.00     0.292 C 
HETATM   13  F   UNL     1       3.169   0.031   0.104  1.00  0.00    -0.199 F 
HETATM   14  O   UNL     1       1.517   2.217   0.108  1.00  0.00    -0.264 OA
BRANCH   8  15
HETATM   15  C   UNL     1      -0.873  -2.632   0.446  1.00  0.00     0.232 C 
HETATM   16  O   UNL     1      -1.844  -2.305   1.462  1.00  0.00    -0.366 OA
HETATM   17  C   UNL     1      -2.092  -3.460   2.265  1.00  0.00     0.170 C 
HETATM   18  C   UNL     1      -1.285  -4.587   1.662  1.00  0.00     0.031 C 
HETATM   19  C   UNL     1      -0.147  -3.848   0.995  1.00  0.00     0.056 C 
ENDBRANCH   8  15
ENDBRANCH   5   6
ENDBRANCH   1   5
BRANCH   2  20
HETATM   20  C   UNL     1      -4.610   0.687   1.815  1.00  0.00     0.225 C 
BRANCH  20  21
HETATM   21  C   UNL     1      -5.365   1.263   3.033  1.00  0.00     0.239 C 
HETATM   22  N   UNL     1      -4.883   2.451   3.536  1.00  0.00    -0.325 N 
HETATM   23  H   UNL     1      -4.219   2.940   2.934  1.00  0.00     0.169 HD
HETATM   24  O   UNL     1      -6.437   0.754   3.370  1.00  0.00    -0.271 OA
BRANCH  22  25
HETATM   25  C   UNL     1      -5.503   3.193   4.569  1.00  0.00     0.041 A 
HETATM   26  C   UNL     1      -5.528   4.609   4.511  1.00  0.00    -0.029 A 
HETATM   27  C   UNL     1      -6.010   5.347   5.613  1.00  0.00    -0.054 A 
HETATM   28  C   UNL     1      -5.133   5.333   3.247  1.00  0.00     0.051 C 
HETATM   29  C   UNL     1      -6.541   4.664   6.724  1.00  0.00     0.007 A 
HETATM   30  C   UNL     1      -6.040   6.850   5.654  1.00  0.00     0.049 C 
HETATM   31  C   UNL     1      -6.573   3.272   6.747  1.00  0.00     0.003 A 
HETATM   32  C   UNL     1      -6.054   2.542   5.680  1.00  0.00     0.030 A 
ENDBRANCH  22  25
ENDBRANCH  20  21
ENDBRANCH   2  20
TORSDOF 6
