REMARK  6 active torsions:
REMARK  status: ('A' for Active; 'I' for Inactive)
REMARK    1  A    between atoms: C_2  and  N_3 
REMARK    2  A    between atoms: C_2  and  C_12 
REMARK    3  A    between atoms: N_3  and  C_4 
REMARK    4  A    between atoms: C_4  and  C_5 
REMARK    5  A    between atoms: C_5  and  N_6 
REMARK    6  A    between atoms: C_12  and  N_14 
ROOT
HETATM    1  C   UNL     1       0.827  -0.117  -0.029  1.00  0.00     0.045 C 
HETATM    2  C   UNL     1       2.362  -0.085   0.065  1.00  0.00     0.240 C 
ENDROOT
BRANCH   2   3
HETATM    3  N   UNL     1       2.808   0.755   1.213  1.00  0.00     0.091 N 
HETATM    4  H   UNL     1       3.830   0.750   1.254  1.00  0.00     0.316 HD
BRANCH   3   5
HETATM    5  C   UNL     1       2.357   2.156   1.107  1.00  0.00     0.290 C 
BRANCH   5   6
HETATM    6  C   UNL     1       2.826   3.013   2.293  1.00  0.00     0.155 C 
BRANCH   6   7
HETATM    7  N   UNL     1       2.322   4.379   2.226  1.00  0.00    -0.350 N 
HETATM    8  C   UNL     1       1.031   4.754   2.743  1.00  0.00     0.126 C 
HETATM    9  C   UNL     1       0.873   6.223   2.389  1.00  0.00     0.029 C 
HETATM   10  C   UNL     1       2.252   6.697   1.948  1.00  0.00     0.104 C 
HETATM   11  C   UNL     1       3.008   5.431   1.652  1.00  0.00     0.219 C 
HETATM   12  O   UNL     1       4.074   5.365   1.061  1.00  0.00    -0.273 OA
ENDBRANCH   6   7
ENDBRANCH   5   6
ENDBRANCH   3   5
ENDBRANCH   2   3
BRANCH   2  13
HETATM   13  C   UNL     1       2.976  -1.524   0.138  1.00  0.00     0.136 C 
HETATM   14  C   UNL     1       2.553  -2.333   1.371  1.00  0.00     0.036 C 
BRANCH  13  15
HETATM   15  N   UNL     1       2.746  -2.264  -1.105  1.00  0.00    -0.297 N 
HETATM   16  C   UNL     1       3.560  -2.275  -2.209  1.00  0.00     0.112 A 
HETATM   17  C   UNL     1       2.928  -3.059  -3.147  1.00  0.00     0.037 A 
HETATM   18  C   UNL     1       1.752  -3.494  -2.512  1.00  0.00     0.108 A 
HETATM   19  N   UNL     1       1.643  -3.029  -1.267  1.00  0.00    -0.310 N 
ATOM     20  HN  UNL     1       0.899  -3.209  -0.593  1.00  0.00     0.186 HD
ENDBRANCH  13  15
ENDBRANCH   2  13
TORSDOF 6
