REMARK  4 active torsions:
REMARK  status: ('A' for Active; 'I' for Inactive)
REMARK    1  A    between atoms: C_2  and  C_5 
REMARK    2  A    between atoms: N_10  and  C_11 
REMARK    3  A    between atoms: C_11  and  C_12 
REMARK       I    between atoms: C_12  and  N_14 
REMARK       I    between atoms: N_14  and  C_15 
REMARK       I    between atoms: C_15  and  N_17 
REMARK    4  A    between atoms: N_17  and  C_18 
ROOT
HETATM    1  C   UNL     1       2.047  -4.882   1.029  1.00  0.00     0.243 C 
HETATM    2  O   UNL     1       2.862  -4.665   1.932  1.00  0.00    -0.271 OA
HETATM    3  N   UNL     1       1.495  -6.137   0.930  1.00  0.00    -0.278 N 
HETATM    4  C   UNL     1       0.883  -6.666  -0.177  1.00  0.00     0.323 C 
HETATM    5  O   UNL     1       0.785  -6.099  -1.252  1.00  0.00    -0.247 OA
HETATM    6  N   UNL     1       0.300  -7.890   0.059  1.00  0.00    -0.338 N 
HETATM    7  H   UNL     1       1.735  -6.759   1.683  1.00  0.00     0.173 HD
HETATM    8  H   UNL     1       0.791  -8.538   0.665  1.00  0.00     0.164 HD
ENDROOT
BRANCH   1   9
HETATM    9  C   UNL     1       1.721  -3.828  -0.038  1.00  0.00     0.234 C 
BRANCH   9  10
HETATM   10  N   UNL     1       2.610  -3.712  -1.196  1.00  0.00    -0.315 N 
HETATM   11  C   UNL     1       2.150  -2.927  -2.256  1.00  0.00     0.247 A 
HETATM   12  C   UNL     1       3.110  -2.714  -3.372  1.00  0.00     0.075 A 
HETATM   13  O   UNL     1       1.050  -2.382  -2.302  1.00  0.00    -0.268 OA
HETATM   14  C   UNL     1       4.342  -3.239  -3.320  1.00  0.00     0.023 A 
HETATM   15  C   UNL     1       4.759  -4.043  -2.188  1.00  0.00     0.063 A 
HETATM   16  C   UNL     1       3.888  -4.249  -1.185  1.00  0.00     0.110 A 
BRANCH  15  17
HETATM   17  C   UNL     1       6.160  -4.580  -2.123  1.00  0.00     0.418 C 
HETATM   18  F   UNL     1       6.961  -4.100  -3.109  1.00  0.00    -0.166 F 
HETATM   19  F   UNL     1       6.185  -5.934  -2.221  1.00  0.00    -0.166 F 
HETATM   20  F   UNL     1       6.762  -4.264  -0.947  1.00  0.00    -0.166 F 
ENDBRANCH  15  17
ENDBRANCH   9  10
ENDBRANCH   1   9
BRANCH   6  21
HETATM   21  C   UNL     1      -0.530  -8.441  -0.987  1.00  0.00     0.086 C 
HETATM   22  C   UNL     1      -1.523  -9.491  -0.499  1.00  0.00     0.025 C 
HETATM   23  C   UNL     1      -1.693 -10.463  -1.669  1.00  0.00     0.002 C 
HETATM   24  C   UNL     1      -0.814  -9.936  -2.799  1.00  0.00     0.002 C 
HETATM   25  C   UNL     1       0.262  -9.133  -2.090  1.00  0.00     0.025 C 
ENDBRANCH   6  21
TORSDOF 4
