REMARK  3 active torsions:
REMARK  status: ('A' for Active; 'I' for Inactive)
REMARK    1  A    between atoms: C_9  and  N_10 
REMARK       I    between atoms: N_10  and  C_11 
REMARK       I    between atoms: C_11  and  N_13 
REMARK    2  A    between atoms: N_13  and  C_14 
REMARK    3  A    between atoms: C_14  and  C_15 
ROOT
HETATM    1  N   UNL     1       2.415  -2.358  -0.206  1.00  0.00    -0.307 N 
HETATM    2  C   UNL     1       2.963  -3.639  -0.327  1.00  0.00     0.320 C 
HETATM    3  O   UNL     1       4.160  -3.862  -0.470  1.00  0.00    -0.247 OA
HETATM    4  N   UNL     1       2.072  -4.712  -0.249  1.00  0.00    -0.342 N 
HETATM    5  H   UNL     1       1.426  -2.299  -0.039  1.00  0.00     0.170 HD
HETATM    6  H   UNL     1       1.149  -4.582  -0.629  1.00  0.00     0.164 HD
ENDROOT
BRANCH   1   7
HETATM    7  C   UNL     1       3.159  -1.164  -0.219  1.00  0.00     0.058 A 
HETATM    8  C   UNL     1       2.495   0.146  -0.068  1.00  0.00    -0.029 A 
HETATM    9  C   UNL     1       1.002   0.281   0.049  1.00  0.00     0.050 C 
HETATM   10  C   UNL     1       3.236   1.274  -0.048  1.00  0.00     0.083 A 
HETATM   11  C   UNL     1       4.710   1.264  -0.201  1.00  0.00     0.247 A 
HETATM   12  O   UNL     1       5.329   2.320  -0.173  1.00  0.00    -0.268 OA
HETATM   13  N   UNL     1       5.265   0.012  -0.380  1.00  0.00    -0.327 N 
HETATM   14  C   UNL     1       6.702  -0.125  -0.571  1.00  0.00     0.159 C 
HETATM   15  C   UNL     1       4.499  -1.139  -0.369  1.00  0.00     0.123 A 
ENDBRANCH   1   7
BRANCH   4  16
HETATM   16  C   UNL     1       2.743  -5.989  -0.456  1.00  0.00     0.129 C 
BRANCH  16  17
HETATM   17  C   UNL     1       1.993  -7.270  -0.334  1.00  0.00     0.003 A 
HETATM   18  C   UNL     1       0.964  -7.681  -1.358  1.00  0.00     0.007 A 
HETATM   19  C   UNL     1       0.559  -7.462   0.075  1.00  0.00     0.007 A 
ENDBRANCH  16  17
ENDBRANCH   4  16
TORSDOF 3
