REMARK  5 active torsions:
REMARK  status: ('A' for Active; 'I' for Inactive)
REMARK    1  A    between atoms: N_4  and  C_5 
REMARK    2  A    between atoms: C_5  and  C_6 
REMARK    3  A    between atoms: C_6  and  C_7 
REMARK    4  A    between atoms: C_7  and  N_8 
REMARK       I    between atoms: N_8  and  C_9 
REMARK       I    between atoms: C_9  and  N_11 
REMARK    5  A    between atoms: N_11  and  C_12 
ROOT
HETATM    1  N   UNL     1       2.864   3.739  -5.453  1.00  0.00    -0.343 N 
HETATM    2  C   UNL     1       3.360   4.561  -6.441  1.00  0.00     0.320 C 
HETATM    3  O   UNL     1       4.028   5.555  -6.183  1.00  0.00    -0.247 OA
HETATM    4  N   UNL     1       3.009   4.129  -7.696  1.00  0.00    -0.306 N 
HETATM    5  H   UNL     1       2.669   2.788  -5.723  1.00  0.00     0.164 HD
HETATM    6  H   UNL     1       2.394   3.338  -7.787  1.00  0.00     0.171 HD
ENDROOT
BRANCH   1   7
HETATM    7  C   UNL     1       3.252   4.005  -4.083  1.00  0.00     0.126 C 
BRANCH   7   8
HETATM    8  C   UNL     1       2.672   3.015  -3.083  1.00  0.00     0.050 C 
BRANCH   8   9
HETATM    9  C   UNL     1       3.256   1.608  -3.267  1.00  0.00     0.274 C 
BRANCH   9  10
HETATM   10  N   UNL     1       2.695   0.622  -2.334  1.00  0.00     0.093 N 
HETATM   11  C   UNL     1       3.031   0.924  -0.926  1.00  0.00     0.303 C 
HETATM   12  C   UNL     1       2.466  -0.139   0.038  1.00  0.00     0.146 C 
HETATM   13  C   UNL     1       0.941  -0.096   0.128  1.00  0.00     0.041 C 
HETATM   14  O   UNL     1       2.942  -1.451  -0.305  1.00  0.00    -0.378 OA
HETATM   15  C   UNL     1       2.669  -1.795  -1.673  1.00  0.00     0.146 C 
HETATM   16  C   UNL     1       3.219  -0.729  -2.646  1.00  0.00     0.303 C 
HETATM   17  C   UNL     1       3.313  -3.151  -1.937  1.00  0.00     0.041 C 
ENDBRANCH   9  10
ENDBRANCH   8   9
ENDBRANCH   7   8
ENDBRANCH   1   7
BRANCH   4  18
HETATM   18  C   UNL     1       3.378   4.789  -8.851  1.00  0.00     0.070 A 
HETATM   19  C   UNL     1       4.164   5.945  -9.048  1.00  0.00     0.138 A 
HETATM   20  N   UNL     1       4.280   6.267 -10.341  1.00  0.00    -0.310 N 
HETATM   21  N   UNL     1       3.566   5.319 -10.964  1.00  0.00    -0.310 N 
ATOM     22  HN  UNL     1       4.790   7.048 -10.754  1.00  0.00     0.186 HD
HETATM   23  C   UNL     1       3.010   4.404 -10.117  1.00  0.00     0.138 A 
HETATM   24  H   UNL     1       3.501   5.361 -11.977  1.00  0.00     0.186 HD
ENDBRANCH   4  18
TORSDOF 5
