REMARK  6 active torsions:
REMARK  status: ('A' for Active; 'I' for Inactive)
REMARK    1  A    between atoms: O_1  and  C_2 
REMARK    2  A    between atoms: C_2  and  C_3 
REMARK    3  A    between atoms: C_2  and  C_14 
REMARK    4  A    between atoms: C_3  and  N_4 
REMARK       I    between atoms: N_4  and  C_5 
REMARK       I    between atoms: C_5  and  N_7 
REMARK    5  A    between atoms: N_7  and  C_8 
REMARK    6  A    between atoms: C_14  and  N_15 
ROOT
HETATM    1  N   UNL     1       1.494   2.494  -0.193  1.00  0.00    -0.340 N 
HETATM    2  C   UNL     1       1.964   2.699  -1.474  1.00  0.00     0.322 C 
HETATM    3  O   UNL     1       3.019   2.201  -1.851  1.00  0.00    -0.247 OA
HETATM    4  N   UNL     1       1.127   3.497  -2.210  1.00  0.00    -0.289 N 
HETATM    5  H   UNL     1       0.515   2.650  -0.010  1.00  0.00     0.164 HD
HETATM    6  H   UNL     1       0.648   4.241  -1.725  1.00  0.00     0.172 HD
ENDROOT
BRANCH   1   7
HETATM    7  C   UNL     1       2.221   1.586   0.699  1.00  0.00     0.157 C 
BRANCH   7   8
HETATM    8  C   UNL     1       2.111   0.114   0.249  1.00  0.00     0.164 C 
BRANCH   8   9
HETATM    9  O   UNL     1       0.738  -0.280   0.377  1.00  0.00    -0.392 OA
HETATM   10  H   UNL     1       0.265   0.162  -0.348  1.00  0.00     0.210 HD
ENDBRANCH   8   9
BRANCH   8  11
HETATM   11  C   UNL     1       3.030  -0.805   1.096  1.00  0.00     0.305 C 
BRANCH  11  12
HETATM   12  N   UNL     1       3.007  -2.245   0.747  1.00  0.00     0.090 N 
HETATM   13  C   UNL     1       3.860  -3.047   1.638  1.00  0.00     0.272 C 
HETATM   14  C   UNL     1       5.362  -2.911   1.365  1.00  0.00     0.030 C 
HETATM   15  C   UNL     1       5.703  -3.138  -0.106  1.00  0.00     0.003 C 
HETATM   16  C   UNL     1       4.785  -2.335  -1.022  1.00  0.00     0.030 C 
HETATM   17  C   UNL     1       3.316  -2.550  -0.656  1.00  0.00     0.272 C 
ENDBRANCH  11  12
ENDBRANCH   8  11
ENDBRANCH   7   8
ENDBRANCH   1   7
BRANCH   4  18
HETATM   18  C   UNL     1       1.313   3.746  -3.550  1.00  0.00     0.152 A 
HETATM   19  N   UNL     1       0.882   4.843  -4.130  1.00  0.00    -0.346 N 
HETATM   20  C   UNL     1       1.244   4.824  -5.466  1.00  0.00     0.097 A 
ATOM     21  HN  UNL     1       0.363   5.590  -3.669  1.00  0.00     0.167 HD
HETATM   22  C   UNL     1       1.879   3.678  -5.895  1.00  0.00     0.070 A 
HETATM   23  S   UNL     1       2.012   2.580  -4.589  1.00  0.00    -0.064 SA
ENDBRANCH   4  18
TORSDOF 6
