REMARK  3 active torsions:
REMARK  status: ('A' for Active; 'I' for Inactive)
REMARK       I    between atoms: C_2  and  N_4 
REMARK    1  A    between atoms: C_7  and  N_10 
REMARK       I    between atoms: N_10  and  C_11 
REMARK    2  A    between atoms: C_11  and  C_13 
REMARK    3  A    between atoms: C_13  and  N_14 
ROOT
HETATM    1  N   UNL     1       5.740   3.882  -0.313  1.00  0.00    -0.355 N 
HETATM    2  C   UNL     1       6.069   4.957   0.496  1.00  0.00     0.237 C 
HETATM    3  O   UNL     1       5.307   5.896   0.719  1.00  0.00    -0.272 OA
HETATM    4  H   UNL     1       6.540   3.346  -0.662  1.00  0.00     0.162 HD
ENDROOT
BRANCH   1   5
HETATM    5  C   UNL     1       4.481   3.815  -1.047  1.00  0.00     0.087 C 
HETATM    6  C   UNL     1       3.273   3.726  -0.106  1.00  0.00     0.045 C 
HETATM    7  C   UNL     1       3.255   2.400   0.643  1.00  0.00     0.127 C 
HETATM    8  N   UNL     1       3.289   1.267  -0.281  1.00  0.00    -0.352 N 
HETATM    9  C   UNL     1       2.658   0.051  -0.031  1.00  0.00     0.215 C 
HETATM   10  C   UNL     1       4.359   1.287  -1.277  1.00  0.00     0.127 C 
HETATM   11  C   UNL     1       1.757  -0.021   1.176  1.00  0.00     0.117 C 
HETATM   12  O   UNL     1       2.810  -0.940  -0.746  1.00  0.00    -0.274 OA
HETATM   13  C   UNL     1       4.452   2.624  -2.010  1.00  0.00     0.045 C 
ENDBRANCH   1   5
BRANCH   2  14
HETATM   14  C   UNL     1       7.423   4.857   1.156  1.00  0.00     0.251 C 
BRANCH  14  15
HETATM   15  N   UNL     1       8.469   4.833   0.159  1.00  0.00    -0.288 N 
HETATM   16  N   UNL     1       8.743   3.662  -0.458  1.00  0.00    -0.303 N 
HETATM   17  C   UNL     1       9.679   3.979  -1.360  1.00  0.00     0.024 A 
ATOM     18  HN  UNL     1       8.331   2.747  -0.277  1.00  0.00     0.186 HD
HETATM   19  C   UNL     1      10.247   2.945  -2.256  1.00  0.00     0.070 C 
HETATM   20  C   UNL     1       9.987   5.357  -1.327  1.00  0.00     0.052 A 
HETATM   21  C   UNL     1       9.189   5.890  -0.338  1.00  0.00     0.027 A 
HETATM   22  C   UNL     1       9.043   7.286   0.144  1.00  0.00     0.070 C 
ENDBRANCH  14  15
ENDBRANCH   2  14
TORSDOF 3
