REMARK  1 active torsions:
REMARK  status: ('A' for Active; 'I' for Inactive)
REMARK    1  A    between atoms: C_12  and  C_13 
ROOT
HETATM    1  C   UNL     3       1.395  -0.024   0.881  1.00  0.00     0.158 C 
HETATM    2  N   UNL     3       2.798  -0.104   0.478  1.00  0.00    -0.333 N 
HETATM    3  C   UNL     3       3.612   0.937   0.247  1.00  0.00     0.200 A 
HETATM    4  N   UNL     3       4.847   0.516  -0.079  1.00  0.00    -0.295 N 
ATOM      5  HN  UNL     3       5.647   1.107  -0.305  1.00  0.00     0.187 HD
HETATM    6  N   UNL     3       4.832  -0.810  -0.052  1.00  0.00    -0.286 N 
ATOM      7  HN  UNL     3       5.620  -1.428  -0.246  1.00  0.00     0.188 HD
HETATM    8  C   UNL     3       3.581  -1.188   0.279  1.00  0.00     0.130 A 
ENDROOT
BRANCH   8   9
HETATM    9  C   UNL     3       3.159  -2.628   0.431  1.00  0.00     0.218 C 
HETATM   10  C   UNL     3       3.464  -3.447  -0.841  1.00  0.00     0.309 C 
HETATM   11  N   UNL     3       2.992  -4.824  -0.646  1.00  0.00     0.088 N 
HETATM   12  C   UNL     3       3.604  -5.413   0.551  1.00  0.00     0.295 C 
HETATM   13  H   UNL     3       3.248  -5.402  -1.480  1.00  0.00     0.316 HD
HETATM   14  C   UNL     3       3.348  -4.508   1.765  1.00  0.00     0.198 C 
HETATM   15  O   UNL     3       3.850  -3.203   1.528  1.00  0.00    -0.375 OA
ENDBRANCH   8   9
TORSDOF 1
