REMARK  4 active torsions:
REMARK  status: ('A' for Active; 'I' for Inactive)
REMARK    1  A    between atoms: C_9  and  N_10 
REMARK    2  A    between atoms: N_10  and  C_11 
REMARK    3  A    between atoms: C_11  and  C_12 
REMARK    4  A    between atoms: C_12  and  C_13 
ROOT
HETATM    1  N   UNL     1       2.412  -2.431   0.585  1.00  0.00     0.088 N 
HETATM    2  H   UNL     1       1.400  -2.533   0.493  1.00  0.00     0.316 HD
ENDROOT
BRANCH   1   3
HETATM    3  C   UNL     1       2.874  -1.398  -0.362  1.00  0.00     0.228 C 
HETATM    4  C   UNL     1       2.331   0.010  -0.011  1.00  0.00     0.043 C 
HETATM    5  C   UNL     1       0.802   0.102   0.069  1.00  0.00     0.014 C 
HETATM    6  C   UNL     1       2.888   1.029  -1.031  1.00  0.00     0.278 C 
HETATM    7  N   UNL     1       2.594   0.651  -2.420  1.00  0.00     0.088 N 
HETATM    8  C   UNL     1       3.010   1.695  -3.354  1.00  0.00     0.310 C 
HETATM    9  C   UNL     1       3.115  -0.677  -2.789  1.00  0.00     0.220 C 
HETATM   10  C   UNL     1       4.646  -0.787  -2.891  1.00  0.00     0.043 C 
HETATM   11  C   UNL     1       2.560  -1.739  -1.827  1.00  0.00     0.071 C 
ENDBRANCH   1   3
BRANCH   1  12
HETATM   12  C   UNL     1       3.024  -3.758   0.372  1.00  0.00     0.276 C 
BRANCH  12  13
HETATM   13  C   UNL     1       4.553  -3.776   0.498  1.00  0.00     0.087 C 
BRANCH  13  14
HETATM   14  C   UNL     1       5.131  -5.127   0.174  1.00  0.00     0.010 A 
HETATM   15  C   UNL     1       5.313  -6.081   1.169  1.00  0.00     0.025 A 
HETATM   16  C   UNL     1       5.890  -7.301   0.829  1.00  0.00     0.003 A 
HETATM   17  C   UNL     1       6.263  -7.535  -0.490  1.00  0.00     0.017 A 
HETATM   18  C   UNL     1       6.034  -6.538  -1.421  1.00  0.00     0.088 A 
HETATM   19  N   UNL     1       5.474  -5.347  -1.121  1.00  0.00    -0.369 N 
ATOM     20  HN  UNL     1       5.315  -4.640  -1.839  1.00  0.00     0.165 HD
ENDBRANCH  13  14
ENDBRANCH  12  13
ENDBRANCH   1  12
TORSDOF 4
