REMARK  8 active torsions:
REMARK  status: ('A' for Active; 'I' for Inactive)
REMARK    1  A    between atoms: N_2  and  C_14 
REMARK    2  A    between atoms: C_3  and  N_7 
REMARK    3  A    between atoms: N_7  and  C_15 
REMARK    4  A    between atoms: N_7  and  C_21 
REMARK    5  A    between atoms: C_13  and  C_14 
REMARK    6  A    between atoms: C_13  and  C_24 
REMARK    7  A    between atoms: C_15  and  C_17 
REMARK    8  A    between atoms: C_24  and  O_25 
ROOT
HETATM    1  C   UNL     1      -1.680  -0.359   0.383  1.00  0.00     0.122 C 
HETATM    2  N   UNL     1      -2.789   1.424   0.978  1.00  0.00    -0.326 N 
HETATM    3  C   UNL     1      -0.848  -1.461   0.698  1.00  0.00     0.135 C 
HETATM    4  C   UNL     1      -1.687   0.682   1.292  1.00  0.00     0.140 C 
HETATM    5  N   UNL     1      -2.634  -0.129  -0.598  1.00  0.00    -0.346 N 
ATOM      6  HN  UNL     1      -2.792  -0.670  -1.448  1.00  0.00     0.167 HD
HETATM    7  C   UNL     1      -3.290   0.938  -0.195  1.00  0.00     0.185 C 
HETATM    8  N   UNL     1       0.063  -1.265   1.699  1.00  0.00    -0.337 N 
ATOM      9  HN  UNL     1       0.781  -1.966   1.882  1.00  0.00     0.168 HD
HETATM   10  N   UNL     1      -0.880   0.853   2.353  1.00  0.00    -0.336 N 
ATOM     11  HN  UNL     1      -0.936   1.637   3.003  1.00  0.00     0.168 HD
HETATM   12  C   UNL     1       0.009  -0.146   2.441  1.00  0.00     0.183 C 
ENDROOT
BRANCH   3  13
HETATM   13  N   UNL     1      -0.983  -2.747   0.188  1.00  0.00    -0.360 N 
BRANCH  13  14
HETATM   14  C   UNL     1       0.271  -3.489   0.019  1.00  0.00     0.129 C 
BRANCH  14  15
HETATM   15  C   UNL     1       0.723  -3.674  -1.410  1.00  0.00     0.004 A 
HETATM   16  C   UNL     1       1.486  -2.572  -2.115  1.00  0.00     0.007 A 
HETATM   17  C   UNL     1       0.131  -2.979  -2.613  1.00  0.00     0.007 A 
ENDBRANCH  14  15
ENDBRANCH  13  14
BRANCH  13  18
HETATM   18  C   UNL     1      -2.318  -3.317  -0.141  1.00  0.00     0.086 C 
HETATM   19  C   UNL     1      -3.527  -2.810   0.705  1.00  0.00     0.025 C 
HETATM   20  C   UNL     1      -3.612  -3.331   2.138  1.00  0.00     0.002 C 
HETATM   21  C   UNL     1      -3.529  -4.846   2.191  1.00  0.00     0.000 C 
HETATM   22  C   UNL     1      -2.312  -5.342   1.425  1.00  0.00     0.002 C 
HETATM   23  C   UNL     1      -2.342  -4.858  -0.030  1.00  0.00     0.025 C 
ENDBRANCH  13  18
ENDBRANCH   3  13
BRANCH   2  24
HETATM   24  C   UNL     1      -3.445   2.356   1.879  1.00  0.00     0.147 C 
BRANCH  24  25
HETATM   25  C   UNL     1      -3.005   3.798   1.707  1.00  0.00     0.040 C 
HETATM   26  C   UNL     1      -1.542   4.128   2.065  1.00  0.00     0.183 C 
HETATM   27  O   UNL     1      -1.961   5.120   3.031  1.00  0.00    -0.389 OA
HETATM   28  C   UNL     1      -3.330   4.662   2.942  1.00  0.00     0.183 C 
BRANCH  25  29
HETATM   29  C   UNL     1      -3.442   4.424   0.390  1.00  0.00     0.179 C 
BRANCH  29  30
HETATM   30  O   UNL     1      -4.862   4.377   0.293  1.00  0.00    -0.400 OA
HETATM   31  H   UNL     1      -5.113   3.598  -0.233  1.00  0.00     0.209 HD
ENDBRANCH  29  30
ENDBRANCH  25  29
ENDBRANCH  24  25
ENDBRANCH   2  24
TORSDOF 8
