REMARK  2 active torsions:
REMARK  status: ('A' for Active; 'I' for Inactive)
REMARK    1  A    between atoms: C_4  and  N_5 
REMARK       I    between atoms: N_5  and  C_6 
REMARK       I    between atoms: C_6  and  N_8 
REMARK    2  A    between atoms: N_8  and  C_9 
ROOT
HETATM    1  N   UNL     1       6.110   1.551   0.599  1.00  0.00    -0.293 N 
HETATM    2  C   UNL     1       5.937   2.895   0.737  1.00  0.00     0.322 C 
HETATM    3  O   UNL     1       4.976   3.326   1.372  1.00  0.00    -0.247 OA
HETATM    4  N   UNL     1       6.799   3.695   0.050  1.00  0.00    -0.330 N 
HETATM    5  H   UNL     1       5.366   0.997   0.996  1.00  0.00     0.172 HD
HETATM    6  H   UNL     1       7.731   3.317  -0.093  1.00  0.00     0.165 HD
ENDROOT
BRANCH   1   7
HETATM    7  C   UNL     1       7.088   0.904  -0.124  1.00  0.00     0.132 A 
HETATM    8  C   UNL     1       7.046  -0.463  -0.484  1.00  0.00     0.084 A 
HETATM    9  C   UNL     1       8.188  -0.660  -1.220  1.00  0.00     0.076 A 
HETATM   10  C   UNL     1       8.772  -1.798  -1.945  1.00  0.00     0.079 C 
HETATM   11  O   UNL     1       8.891   0.499  -1.270  1.00  0.00    -0.241 OA
HETATM   12  N   UNL     1       8.204   1.479  -0.593  1.00  0.00    -0.245 N 
ATOM     13  HN  UNL     1       8.488   2.451  -0.472  1.00  0.00     0.196 HD
ENDBRANCH   1   7
BRANCH   4  14
HETATM   14  C   UNL     1       6.636   5.131   0.025  1.00  0.00     0.172 C 
HETATM   15  C   UNL     1       7.155   5.702  -1.303  1.00  0.00     0.034 C 
HETATM   16  C   UNL     1       6.468   7.022  -1.639  1.00  0.00     0.004 C 
HETATM   17  C   UNL     1       6.956   8.265  -0.881  1.00  0.00     0.015 C 
HETATM   18  C   UNL     1       7.664   8.077   0.464  1.00  0.00     0.095 C 
HETATM   19  N   UNL     1       7.001   7.138   1.344  1.00  0.00    -0.261 NA
HETATM   20  C   UNL     1       7.376   5.810   1.181  1.00  0.00     0.220 C 
HETATM   21  H   UNL     1       5.998   7.272   1.360  1.00  0.00     0.130 HD
HETATM   22  O   UNL     1       8.319   5.310   1.789  1.00  0.00    -0.278 OA
ENDBRANCH   4  14
TORSDOF 2
