REMARK  10 active torsions:
REMARK  status: ('A' for Active; 'I' for Inactive)
REMARK    1  A    between atoms: N_1  and  C_3 
REMARK    2  A    between atoms: C_2  and  S_9 
REMARK    3  A    between atoms: C_8  and  O_16 
REMARK    4  A    between atoms: C_11  and  O_19 
REMARK    5  A    between atoms: C_12  and  C_26 
REMARK    6  A    between atoms: C_15  and  N_31 
REMARK    7  A    between atoms: O_16  and  C_21 
REMARK    8  A    between atoms: O_19  and  C_22 
REMARK    9  A    between atoms: C_25  and  O_27 
REMARK   10  A    between atoms: C_26  and  O_27 
ROOT
HETATM    1  N   UNL     1       1.473   1.183  -0.092  1.00  0.00    -0.277 N 
HETATM    2  C   UNL     1       0.282   0.690   0.407  1.00  0.00     0.209 A 
HETATM    3  C   UNL     1       1.952   0.242  -0.983  1.00  0.00     0.143 A 
HETATM    4  N   UNL     1      -0.070  -0.433  -0.215  1.00  0.00    -0.327 N 
ATOM      5  HN  UNL     1      -0.936  -0.959  -0.096  1.00  0.00     0.168 HD
HETATM    6  C   UNL     1       0.978  -0.735  -1.050  1.00  0.00     0.117 A 
HETATM    7  N   UNL     1       3.120   0.263  -1.653  1.00  0.00    -0.336 N 
ATOM      8  HN  UNL     1       3.817   1.003  -1.574  1.00  0.00     0.168 HD
HETATM    9  C   UNL     1       1.216  -1.812  -1.923  1.00  0.00     0.109 A 
HETATM   10  N   UNL     1       2.370  -1.833  -2.625  1.00  0.00    -0.341 N 
ATOM     11  HN  UNL     1       2.573  -2.592  -3.276  1.00  0.00     0.167 HD
HETATM   12  C   UNL     1       3.247  -0.824  -2.443  1.00  0.00     0.183 A 
ENDROOT
BRANCH   1  13
HETATM   13  C   UNL     1       2.188   2.414   0.185  1.00  0.00     0.264 C 
HETATM   14  C   UNL     1       2.594   2.767   1.613  1.00  0.00     0.213 C 
HETATM   15  C   UNL     1       2.584   4.306   1.625  1.00  0.00     0.197 C 
HETATM   16  C   UNL     1       2.103   4.715   0.220  1.00  0.00     0.180 C 
HETATM   17  O   UNL     1       1.462   3.540  -0.334  1.00  0.00    -0.353 OA
BRANCH  14  18
HETATM   18  O   UNL     1       3.899   2.253   1.931  1.00  0.00    -0.309 OA
BRANCH  18  19
HETATM   19  C   UNL     1       3.952   0.927   2.226  1.00  0.00     0.255 C 
HETATM   20  O   UNL     1       3.011   0.152   2.167  1.00  0.00    -0.266 OA
HETATM   21  C   UNL     1       5.362   0.540   2.535  1.00  0.00     0.126 C 
ENDBRANCH  18  19
ENDBRANCH  14  18
BRANCH  15  22
HETATM   22  O   UNL     1       3.864   4.863   1.956  1.00  0.00    -0.311 OA
BRANCH  22  23
HETATM   23  C   UNL     1       4.200   4.831   3.273  1.00  0.00     0.255 C 
HETATM   24  O   UNL     1       3.470   4.454   4.178  1.00  0.00    -0.266 OA
HETATM   25  C   UNL     1       5.625   5.254   3.460  1.00  0.00     0.126 C 
ENDBRANCH  22  23
ENDBRANCH  15  22
BRANCH  16  26
HETATM   26  C   UNL     1       3.208   5.220  -0.732  1.00  0.00     0.213 C 
BRANCH  26  27
HETATM   27  O   UNL     1       3.901   6.384  -0.248  1.00  0.00    -0.319 OA
BRANCH  27  28
HETATM   28  C   UNL     1       3.280   7.577  -0.432  1.00  0.00     0.254 C 
HETATM   29  O   UNL     1       2.184   7.725  -0.950  1.00  0.00    -0.266 OA
HETATM   30  C   UNL     1       4.112   8.701   0.114  1.00  0.00     0.126 C 
ENDBRANCH  27  28
ENDBRANCH  26  27
ENDBRANCH  16  26
ENDBRANCH   1  13
BRANCH   2  31
HETATM   31  S   UNL     1      -0.675   1.380   1.734  1.00  0.00     0.203 S 
HETATM   32  O   UNL     1       0.124   1.222   2.933  1.00  0.00    -0.220 OA
HETATM   33  O   UNL     1      -1.083   2.690   1.271  1.00  0.00    -0.220 OA
HETATM   34  C   UNL     1      -2.082   0.323   1.886  1.00  0.00     0.170 C 
ENDBRANCH   2  31
BRANCH   9  35
HETATM   35  N   UNL     1       0.315  -2.852  -2.113  1.00  0.00    -0.287 NA
HETATM   36  H   UNL     1      -0.637  -2.613  -1.863  1.00  0.00     0.125 HD
HETATM   37  H   UNL     1       0.462  -3.322  -2.998  1.00  0.00     0.125 HD
ENDBRANCH   9  35
TORSDOF 10
