REMARK  3 active torsions:
REMARK  status: ('A' for Active; 'I' for Inactive)
REMARK    1  A    between atoms: N_7  and  C_8 
REMARK    2  A    between atoms: C_8  and  C_9 
REMARK       I    between atoms: C_9  and  N_11 
REMARK    3  A    between atoms: N_11  and  C_12 
ROOT
HETATM    1  C   UNL     1       2.472  -2.601  -0.295  1.00  0.00     0.233 C 
ENDROOT
BRANCH   1   2
HETATM    2  N   UNL     1       3.121  -3.428  -1.301  1.00  0.00    -0.329 N 
HETATM    3  C   UNL     1       2.906  -4.787  -1.371  1.00  0.00     0.144 A 
HETATM    4  N   UNL     1       2.110  -5.533  -0.692  1.00  0.00    -0.379 N 
HETATM    5  S   UNL     1       3.972  -5.498  -2.600  1.00  0.00    -0.065 SA
HETATM    6  H   UNL     1       2.249  -6.489  -1.049  1.00  0.00     0.158 HD
ATOM      7  HN  UNL     1       1.472  -5.239   0.048  1.00  0.00     0.158 HD
HETATM    8  C   UNL     1       4.676  -3.927  -2.923  1.00  0.00     0.070 A 
HETATM    9  C   UNL     1       4.113  -2.979  -2.163  1.00  0.00     0.101 A 
ENDBRANCH   1   2
BRANCH   1  10
HETATM   10  C   UNL     1       0.957  -2.546  -0.494  1.00  0.00     0.236 C 
HETATM   11  O   UNL     1       0.417  -1.687  -1.188  1.00  0.00    -0.272 OA
HETATM   12  N   UNL     1       0.264  -3.509   0.214  1.00  0.00    -0.355 N 
HETATM   13  H   UNL     1       0.784  -4.379   0.353  1.00  0.00     0.162 HD
BRANCH  12  14
HETATM   14  C   UNL     1      -1.179  -3.616   0.145  1.00  0.00     0.084 C 
HETATM   15  C   UNL     1      -1.779  -4.165   1.443  1.00  0.00     0.025 C 
HETATM   16  C   UNL     1      -2.913  -5.102   1.030  1.00  0.00     0.002 C 
HETATM   17  C   UNL     1      -3.034  -4.977  -0.483  1.00  0.00     0.002 C 
HETATM   18  C   UNL     1      -1.637  -4.589  -0.936  1.00  0.00     0.025 C 
ENDBRANCH  12  14
ENDBRANCH   1  10
TORSDOF 3
