REMARK  5 active torsions:
REMARK  status: ('A' for Active; 'I' for Inactive)
REMARK    1  A    between atoms: C_8  and  C_9 
REMARK    2  A    between atoms: C_9  and  N_10 
REMARK    3  A    between atoms: N_10  and  C_11 
REMARK    4  A    between atoms: C_11  and  C_12 
REMARK    5  A    between atoms: C_12  and  N_13 
ROOT
HETATM    1  N   UNL     1       0.728  -1.617  -2.146  1.00  0.00     0.085 N 
HETATM    2  H   UNL     1       1.385  -1.573  -2.927  1.00  0.00     0.315 HD
ENDROOT
BRANCH   1   3
HETATM    3  C   UNL     1       1.447  -2.087  -0.958  1.00  0.00     0.279 C 
BRANCH   3   4
HETATM    4  C   UNL     1       2.707  -1.227  -0.641  1.00  0.00     0.045 C 
HETATM    5  C   UNL     1       2.417   0.188  -0.028  1.00  0.00    -0.009 C 
HETATM    6  C   UNL     1       0.959   0.450   0.392  1.00  0.00     0.011 C 
HETATM    7  C   UNL     1       2.944   1.431  -0.769  1.00  0.00     0.009 C 
HETATM    8  C   UNL     1       3.856   1.253  -1.971  1.00  0.00     0.028 C 
HETATM    9  C   UNL     1       4.202  -0.138  -2.356  1.00  0.00    -0.024 C 
HETATM   10  C   UNL     1       3.715  -1.249  -1.787  1.00  0.00    -0.081 C 
HETATM   11  C   UNL     1       4.176  -2.597  -2.284  1.00  0.00     0.043 C 
ENDBRANCH   3   4
ENDBRANCH   1   3
BRANCH   1  12
HETATM   12  C   UNL     1      -0.399  -2.492  -2.478  1.00  0.00     0.289 C 
BRANCH  12  13
HETATM   13  C   UNL     1      -1.118  -1.955  -3.719  1.00  0.00     0.159 C 
BRANCH  13  14
HETATM   14  N   UNL     1      -2.256  -2.772  -4.093  1.00  0.00    -0.350 N 
HETATM   15  C   UNL     1      -2.238  -3.836  -4.949  1.00  0.00     0.108 A 
HETATM   16  C   UNL     1      -3.549  -4.248  -5.023  1.00  0.00     0.106 A 
HETATM   17  N   UNL     1      -4.349  -3.465  -4.232  1.00  0.00    -0.361 N 
HETATM   18  C   UNL     1      -3.547  -2.578  -3.691  1.00  0.00     0.182 A 
ATOM     19  HN  UNL     1      -5.356  -3.553  -4.093  1.00  0.00     0.166 HD
ENDBRANCH  13  14
ENDBRANCH  12  13
ENDBRANCH   1  12
TORSDOF 5
