REMARK  5 active torsions:
REMARK  status: ('A' for Active; 'I' for Inactive)
REMARK    1  A    between atoms: C_2  and  N_3 
REMARK    2  A    between atoms: C_2  and  C_14 
REMARK    3  A    between atoms: N_3  and  C_4 
REMARK    4  A    between atoms: C_4  and  C_5 
REMARK    5  A    between atoms: C_5  and  C_6 
ROOT
HETATM    1  N   UNL     1       3.003   0.650   1.278  1.00  0.00     0.088 N 
HETATM    2  H   UNL     1       4.019   0.645   1.323  1.00  0.00     0.316 HD
ENDROOT
BRANCH   1   3
HETATM    3  C   UNL     1       2.566   0.123  -0.027  1.00  0.00     0.220 C 
HETATM    4  C   UNL     1       1.031   0.019  -0.068  1.00  0.00     0.043 C 
BRANCH   3   5
HETATM    5  C   UNL     1       3.235  -1.281  -0.245  1.00  0.00     0.022 C 
HETATM    6  C   UNL     1       4.781  -1.261  -0.205  1.00  0.00     0.033 C 
HETATM    7  C   UNL     1       5.379  -0.645  -1.466  1.00  0.00     0.168 C 
HETATM    8  O   UNL     1       4.925  -1.327  -2.632  1.00  0.00    -0.391 OA
HETATM    9  C   UNL     1       3.506  -1.294  -2.768  1.00  0.00     0.168 C 
HETATM   10  C   UNL     1       2.839  -1.961  -1.572  1.00  0.00     0.033 C 
ENDBRANCH   3   5
ENDBRANCH   1   3
BRANCH   1  11
HETATM   11  C   UNL     1       2.561   2.014   1.580  1.00  0.00     0.274 C 
BRANCH  11  12
HETATM   12  C   UNL     1       3.209   2.459   2.903  1.00  0.00     0.070 C 
BRANCH  12  13
HETATM   13  C   UNL     1       2.788   3.852   3.273  1.00  0.00    -0.041 A 
HETATM   14  C   UNL     1       1.669   4.080   4.073  1.00  0.00     0.010 A 
HETATM   15  C   UNL     1       1.253   5.386   4.312  1.00  0.00     0.025 A 
HETATM   16  C   UNL     1       1.969   6.434   3.743  1.00  0.00     0.005 A 
HETATM   17  C   UNL     1       1.507   7.851   3.893  1.00  0.00     0.068 C 
HETATM   18  N   UNL     1       3.075   6.236   2.988  1.00  0.00    -0.369 N 
HETATM   19  C   UNL     1       3.460   4.960   2.774  1.00  0.00     0.095 A 
ATOM     20  HN  UNL     1       3.597   7.020   2.596  1.00  0.00     0.165 HD
ENDBRANCH  12  13
ENDBRANCH  11  12
ENDBRANCH   1  11
TORSDOF 5
