REMARK  3 active torsions:
REMARK  status: ('A' for Active; 'I' for Inactive)
REMARK    1  A    between atoms: O_2  and  C_3 
REMARK    2  A    between atoms: C_6  and  N_7 
REMARK       I    between atoms: N_7  and  C_8 
REMARK       I    between atoms: C_8  and  N_10 
REMARK    3  A    between atoms: N_10  and  C_11 
ROOT
HETATM    1  N   UNL     1       4.500  -3.449  -3.877  1.00  0.00    -0.308 N 
HETATM    2  C   UNL     1       4.216  -4.790  -3.870  1.00  0.00     0.321 C 
HETATM    3  O   UNL     1       3.798  -5.428  -2.911  1.00  0.00    -0.247 OA
HETATM    4  N   UNL     1       4.458  -5.416  -5.068  1.00  0.00    -0.330 N 
HETATM    5  H   UNL     1       4.762  -3.040  -4.762  1.00  0.00     0.170 HD
HETATM    6  H   UNL     1       4.489  -4.891  -5.931  1.00  0.00     0.165 HD
ENDROOT
BRANCH   1   7
HETATM    7  C   UNL     1       4.371  -2.586  -2.762  1.00  0.00     0.051 A 
HETATM    8  C   UNL     1       4.136  -3.031  -1.460  1.00  0.00     0.035 A 
HETATM    9  C   UNL     1       4.006  -2.119  -0.417  1.00  0.00     0.058 A 
HETATM   10  C   UNL     1       4.127  -0.774  -0.703  1.00  0.00     0.141 A 
HETATM   11  N   UNL     1       4.366  -0.290  -1.941  1.00  0.00    -0.345 N 
HETATM   12  C   UNL     1       4.483  -1.208  -2.935  1.00  0.00     0.119 A 
ATOM     13  HN  UNL     1       4.454   0.710  -2.120  1.00  0.00     0.167 HD
BRANCH  10  14
HETATM   14  O   UNL     1       3.989   0.081   0.371  1.00  0.00    -0.341 OA
HETATM   15  C   UNL     1       4.189   1.445   0.027  1.00  0.00     0.211 C 
ENDBRANCH  10  14
ENDBRANCH   1   7
BRANCH   4  16
HETATM   16  C   UNL     1       4.103  -6.828  -5.167  1.00  0.00     0.172 C 
HETATM   17  C   UNL     1       5.233  -7.723  -4.635  1.00  0.00     0.034 C 
HETATM   18  C   UNL     1       4.712  -9.094  -4.205  1.00  0.00     0.004 C 
HETATM   19  C   UNL     1       4.473 -10.108  -5.328  1.00  0.00     0.015 C 
HETATM   20  C   UNL     1       4.148  -9.573  -6.725  1.00  0.00     0.095 C 
HETATM   21  N   UNL     1       3.200  -8.478  -6.726  1.00  0.00    -0.261 NA
HETATM   22  C   UNL     1       3.740  -7.206  -6.604  1.00  0.00     0.220 C 
HETATM   23  H   UNL     1       2.443  -8.653  -6.075  1.00  0.00     0.130 HD
HETATM   24  O   UNL     1       3.924  -6.460  -7.561  1.00  0.00    -0.278 OA
ENDBRANCH   4  16
TORSDOF 3
