REMARK  4 active torsions:
REMARK  status: ('A' for Active; 'I' for Inactive)
REMARK    1  A    between atoms: C_4  and  N_5 
REMARK       I    between atoms: N_5  and  C_6 
REMARK       I    between atoms: C_6  and  N_8 
REMARK    2  A    between atoms: N_8  and  C_9 
REMARK    3  A    between atoms: C_9  and  C_10 
REMARK    4  A    between atoms: C_10  and  N_11 
ROOT
HETATM    1  N   UNL     1       7.017   1.655   0.665  1.00  0.00    -0.293 N 
HETATM    2  C   UNL     1       6.971   3.004   0.878  1.00  0.00     0.321 C 
HETATM    3  O   UNL     1       6.974   3.439   2.029  1.00  0.00    -0.247 OA
HETATM    4  N   UNL     1       6.868   3.798  -0.220  1.00  0.00    -0.341 N 
HETATM    5  H   UNL     1       7.039   1.105   1.510  1.00  0.00     0.172 HD
HETATM    6  H   UNL     1       7.163   3.378  -1.097  1.00  0.00     0.164 HD
ENDROOT
BRANCH   1   7
HETATM    7  C   UNL     1       6.973   0.985  -0.542  1.00  0.00     0.132 A 
HETATM    8  C   UNL     1       6.934  -0.424  -0.686  1.00  0.00     0.084 A 
HETATM    9  C   UNL     1       6.873  -0.632  -2.043  1.00  0.00     0.076 A 
HETATM   10  C   UNL     1       6.795  -1.810  -2.919  1.00  0.00     0.079 C 
HETATM   11  O   UNL     1       6.887   0.569  -2.675  1.00  0.00    -0.241 OA
HETATM   12  N   UNL     1       6.954   1.576  -1.743  1.00  0.00    -0.245 N 
ATOM     13  HN  UNL     1       6.984   2.578  -1.930  1.00  0.00     0.196 HD
ENDBRANCH   1   7
BRANCH   4  14
HETATM   14  C   UNL     1       6.792   5.242  -0.179  1.00  0.00     0.154 C 
BRANCH  14  15
HETATM   15  C   UNL     1       8.173   5.921  -0.215  1.00  0.00     0.292 C 
BRANCH  15  16
HETATM   16  N   UNL     1       9.020   5.532  -1.361  1.00  0.00     0.094 N 
HETATM   17  C   UNL     1       8.494   5.998  -2.662  1.00  0.00     0.298 C 
HETATM   18  C   UNL     1       9.434   5.587  -3.813  1.00  0.00     0.198 C 
HETATM   19  O   UNL     1      10.765   6.084  -3.615  1.00  0.00    -0.388 OA
HETATM   20  C   UNL     1      11.281   5.622  -2.359  1.00  0.00     0.198 C 
HETATM   21  C   UNL     1      10.385   6.081  -1.201  1.00  0.00     0.298 C 
ENDBRANCH  15  16
ENDBRANCH  14  15
ENDBRANCH   4  14
TORSDOF 4
