REMARK  5 active torsions:
REMARK  status: ('A' for Active; 'I' for Inactive)
REMARK    1  A    between atoms: C_4  and  N_5 
REMARK       I    between atoms: N_5  and  C_6 
REMARK       I    between atoms: C_6  and  N_8 
REMARK    2  A    between atoms: N_8  and  C_9 
REMARK    3  A    between atoms: C_9  and  C_10 
REMARK    4  A    between atoms: C_10  and  C_11 
REMARK    5  A    between atoms: C_11  and  N_12 
ROOT
HETATM    1  N   UNL     1       5.625   1.647   0.378  1.00  0.00    -0.293 N 
HETATM    2  C   UNL     1       5.504   3.062   0.276  1.00  0.00     0.321 C 
HETATM    3  O   UNL     1       4.434   3.636   0.192  1.00  0.00    -0.247 OA
HETATM    4  N   UNL     1       6.719   3.673   0.281  1.00  0.00    -0.343 N 
HETATM    5  H   UNL     1       6.544   1.242   0.436  1.00  0.00     0.172 HD
HETATM    6  H   UNL     1       7.585   3.165   0.371  1.00  0.00     0.164 HD
ENDROOT
BRANCH   1   7
HETATM    7  C   UNL     1       4.514   0.805   0.399  1.00  0.00     0.127 A 
HETATM    8  C   UNL     1       3.186   1.168   0.338  1.00  0.00     0.076 A 
HETATM    9  C   UNL     1       2.449  -0.030   0.397  1.00  0.00     0.025 A 
HETATM   10  C   UNL     1       0.973  -0.170   0.371  1.00  0.00     0.070 C 
HETATM   11  N   UNL     1       3.252  -1.094   0.488  1.00  0.00    -0.302 N 
HETATM   12  N   UNL     1       4.495  -0.570   0.486  1.00  0.00    -0.281 N 
ATOM     13  HN  UNL     1       2.986  -2.077   0.546  1.00  0.00     0.186 HD
HETATM   14  C   UNL     1       5.606  -1.487   0.574  1.00  0.00     0.179 C 
ENDBRANCH   1   7
BRANCH   4  15
HETATM   15  C   UNL     1       6.748   5.122   0.191  1.00  0.00     0.126 C 
BRANCH  15  16
HETATM   16  C   UNL     1       8.167   5.659   0.156  1.00  0.00     0.050 C 
BRANCH  16  17
HETATM   17  C   UNL     1       8.182   7.189   0.019  1.00  0.00     0.274 C 
BRANCH  17  18
HETATM   18  N   UNL     1       9.540   7.777   0.041  1.00  0.00     0.088 N 
HETATM   19  C   UNL     1       9.430   9.246  -0.070  1.00  0.00     0.272 C 
HETATM   20  C   UNL     1      10.702   9.984   0.352  1.00  0.00     0.030 C 
HETATM   21  C   UNL     1      11.730  10.202  -0.754  1.00  0.00     0.002 C 
HETATM   22  C   UNL     1      11.916   9.055  -1.736  1.00  0.00     0.002 C 
HETATM   23  C   UNL     1      11.837   7.683  -1.088  1.00  0.00     0.030 C 
HETATM   24  C   UNL     1      10.403   7.165  -0.980  1.00  0.00     0.272 C 
ENDBRANCH  17  18
ENDBRANCH  16  17
ENDBRANCH  15  16
ENDBRANCH   4  15
TORSDOF 5
