REMARK  4 active torsions:
REMARK  status: ('A' for Active; 'I' for Inactive)
REMARK    1  A    between atoms: C_2  and  C_3 
REMARK    2  A    between atoms: C_2  and  N_16 
REMARK    3  A    between atoms: C_3  and  N_4 
REMARK       I    between atoms: N_4  and  C_5 
REMARK       I    between atoms: C_5  and  N_7 
REMARK    4  A    between atoms: N_7  and  C_8 
ROOT
HETATM    1  N   UNL     1       2.447   2.255  -1.613  1.00  0.00    -0.341 N 
HETATM    2  C   UNL     1       3.217   2.066  -2.741  1.00  0.00     0.322 C 
HETATM    3  O   UNL     1       4.268   1.437  -2.699  1.00  0.00    -0.247 OA
HETATM    4  N   UNL     1       2.645   2.633  -3.849  1.00  0.00    -0.288 N 
HETATM    5  H   UNL     1       1.694   2.926  -1.632  1.00  0.00     0.164 HD
HETATM    6  H   UNL     1       1.644   2.752  -3.863  1.00  0.00     0.172 HD
ENDROOT
BRANCH   1   7
HETATM    7  C   UNL     1       2.875   1.727  -0.325  1.00  0.00     0.159 C 
BRANCH   7   8
HETATM    8  C   UNL     1       2.447   0.242  -0.111  1.00  0.00     0.236 C 
HETATM    9  C   UNL     1       0.903   0.213  -0.087  1.00  0.00     0.044 C 
BRANCH   8  10
HETATM   10  N   UNL     1       3.015  -0.352   1.134  1.00  0.00     0.098 N 
HETATM   11  C   UNL     1       4.505  -0.378   1.141  1.00  0.00     0.299 C 
HETATM   12  C   UNL     1       5.115  -1.382   0.147  1.00  0.00     0.198 C 
HETATM   13  O   UNL     1       4.642  -2.712   0.398  1.00  0.00    -0.388 OA
HETATM   14  C   UNL     1       3.210  -2.763   0.369  1.00  0.00     0.198 C 
HETATM   15  C   UNL     1       2.595  -1.761   1.363  1.00  0.00     0.299 C 
ENDBRANCH   8  10
ENDBRANCH   7   8
ENDBRANCH   1   7
BRANCH   4  16
HETATM   16  C   UNL     1       3.234   2.697  -5.087  1.00  0.00     0.169 A 
HETATM   17  N   UNL     1       2.555   2.917  -6.194  1.00  0.00    -0.279 N 
HETATM   18  N   UNL     1       3.372   2.944  -7.308  1.00  0.00    -0.296 N 
ATOM     19  HN  UNL     1       1.544   3.052  -6.225  1.00  0.00     0.189 HD
HETATM   20  C   UNL     1       4.641   2.791  -6.990  1.00  0.00     0.066 A 
ATOM     21  HN  UNL     1       3.033   3.068  -8.262  1.00  0.00     0.187 HD
HETATM   22  C   UNL     1       5.772   2.776  -7.949  1.00  0.00     0.078 C 
HETATM   23  S   UNL     1       4.923   2.619  -5.308  1.00  0.00    -0.038 SA
ENDBRANCH   4  16
TORSDOF 4
