REMARK  5 active torsions:
REMARK  status: ('A' for Active; 'I' for Inactive)
REMARK    1  A    between atoms: C_2  and  C_3 
REMARK    2  A    between atoms: C_2  and  N_15 
REMARK       I    between atoms: C_3  and  N_5 
REMARK    3  A    between atoms: N_5  and  C_6 
REMARK    4  A    between atoms: C_9  and  C_12 
REMARK    5  A    between atoms: C_12  and  O_14 
ROOT
HETATM    1  C   UNL     1       1.456   0.507   2.187  1.00  0.00     0.242 C 
HETATM    2  O   UNL     1       0.660   0.664   3.112  1.00  0.00    -0.271 OA
HETATM    3  N   UNL     1       2.693  -0.091   2.374  1.00  0.00    -0.355 N 
HETATM    4  H   UNL     1       3.255  -0.302   1.550  1.00  0.00     0.162 HD
ENDROOT
BRANCH   3   5
HETATM    5  C   UNL     1       3.089  -0.641   3.668  1.00  0.00     0.084 C 
HETATM    6  C   UNL     1       4.610  -0.753   3.799  1.00  0.00     0.026 C 
HETATM    7  C   UNL     1       5.220  -1.874   2.955  1.00  0.00     0.017 C 
HETATM    8  C   UNL     1       4.497  -3.227   3.052  1.00  0.00     0.084 C 
HETATM    9  C   UNL     1       2.971  -3.113   3.047  1.00  0.00     0.017 C 
HETATM   10  C   UNL     1       2.434  -1.998   3.944  1.00  0.00     0.026 C 
BRANCH   8  11
HETATM   11  C   UNL     1       4.964  -4.039   4.252  1.00  0.00     0.143 C 
HETATM   12  O   UNL     1       5.354  -3.561   5.305  1.00  0.00    -0.650 OA
BRANCH  11  13
HETATM   13  O   UNL     1       4.886  -5.375   4.050  1.00  0.00    -0.776 OA
HETATM   14  H   UNL     1       4.548  -5.634   3.172  1.00  0.00     0.167 HD
ENDBRANCH  11  13
ENDBRANCH   8  11
ENDBRANCH   3   5
BRANCH   1  15
HETATM   15  C   UNL     1       1.169   0.994   0.768  1.00  0.00     0.195 C 
HETATM   16  C   UNL     1      -0.143   1.774   0.675  1.00  0.00     0.044 C 
BRANCH  15  17
HETATM   17  N   UNL     1       1.167  -0.124  -0.167  1.00  0.00    -0.290 N 
HETATM   18  C   UNL     1       0.331  -1.207  -0.170  1.00  0.00     0.112 A 
HETATM   19  C   UNL     1       0.640  -1.925  -1.301  1.00  0.00     0.037 A 
HETATM   20  C   UNL     1       1.692  -1.210  -1.901  1.00  0.00     0.108 A 
HETATM   21  N   UNL     1       2.043  -0.133  -1.194  1.00  0.00    -0.309 N 
ATOM     22  HN  UNL     1       2.796   0.528  -1.385  1.00  0.00     0.186 HD
ENDBRANCH  15  17
ENDBRANCH   1  15
TORSDOF 5
