REMARK  8 active torsions:
REMARK  status: ('A' for Active; 'I' for Inactive)
REMARK    1  A    between atoms: O_2  and  C_3 
REMARK    2  A    between atoms: C_3  and  C_4 
REMARK    3  A    between atoms: C_4  and  N_5 
REMARK    4  A    between atoms: C_6  and  S_7 
REMARK    5  A    between atoms: S_7  and  C_8 
REMARK    6  A    between atoms: C_8  and  C_9 
REMARK    7  A    between atoms: C_9  and  C_11 
REMARK    8  A    between atoms: C_12  and  N_14 
ROOT
HETATM    1  C   UNL     1       4.549  -0.409  -7.808  1.00  0.00     0.107 C 
HETATM    2  C   UNL     1       3.422  -0.214  -8.541  1.00  0.00     0.004 C 
HETATM    3  C   UNL     1       3.412  -0.229 -10.059  1.00  0.00     0.063 C 
HETATM    4  C   UNL     1       5.817  -0.598  -8.430  1.00  0.00     0.104 C 
HETATM    5  N   UNL     1       6.862  -0.726  -8.917  1.00  0.00    -0.191 NA
ENDROOT
BRANCH   1   6
HETATM    6  C   UNL     1       4.520  -0.382  -6.291  1.00  0.00     0.181 C 
HETATM    7  O   UNL     1       3.450  -0.524  -5.692  1.00  0.00    -0.291 OA
BRANCH   6   8
HETATM    8  C   UNL     1       5.855  -0.137  -5.580  1.00  0.00     0.167 C 
BRANCH   8   9
HETATM    9  S   UNL     1       5.701   0.081  -3.783  1.00  0.00    -0.086 SA
BRANCH   9  10
HETATM   10  C   UNL     1       5.370  -1.537  -3.253  1.00  0.00     0.148 A 
HETATM   11  N   UNL     1       4.821  -1.835  -2.027  1.00  0.00    -0.324 N 
HETATM   12  C   UNL     1       4.616  -3.202  -1.994  1.00  0.00     0.063 A 
HETATM   13  C   UNL     1       5.123  -3.657  -3.209  1.00  0.00     0.061 A 
HETATM   14  C   UNL     1       4.039  -4.062  -1.049  1.00  0.00     0.032 A 
HETATM   15  N   UNL     1       5.602  -2.615  -3.966  1.00  0.00    -0.335 N 
HETATM   16  C   UNL     1       5.068  -5.028  -3.503  1.00  0.00     0.032 A 
ATOM     17  HN  UNL     1       6.043  -2.668  -4.884  1.00  0.00     0.168 HD
HETATM   18  C   UNL     1       4.500  -5.903  -2.568  1.00  0.00     0.002 A 
HETATM   19  C   UNL     1       3.996  -5.425  -1.360  1.00  0.00     0.002 A 
BRANCH  11  20
HETATM   20  C   UNL     1       4.406  -0.927  -0.976  1.00  0.00     0.157 C 
BRANCH  20  21
HETATM   21  C   UNL     1       5.151  -1.125   0.345  1.00  0.00     0.187 C 
BRANCH  21  22
HETATM   22  O   UNL     1       4.548  -0.292   1.342  1.00  0.00    -0.394 OA
HETATM   23  C   UNL     1       5.112  -0.518   2.629  1.00  0.00     0.201 C 
ENDBRANCH  21  22
ENDBRANCH  20  21
ENDBRANCH  11  20
ENDBRANCH   9  10
ENDBRANCH   8   9
ENDBRANCH   6   8
ENDBRANCH   1   6
BRANCH   2  24
HETATM   24  N   UNL     1       2.165   0.038  -7.997  1.00  0.00    -0.305 NA
HETATM   25  H   UNL     1       2.070  -0.277  -7.021  1.00  0.00     0.124 HD
HETATM   26  H   UNL     1       1.373  -0.227  -8.578  1.00  0.00     0.124 HD
ENDBRANCH   2  24
TORSDOF 8
