REMARK  4 active torsions:
REMARK  status: ('A' for Active; 'I' for Inactive)
REMARK    1  A    between atoms: C_4  and  N_5 
REMARK       I    between atoms: N_5  and  C_6 
REMARK       I    between atoms: C_6  and  N_8 
REMARK    2  A    between atoms: N_8  and  C_9 
REMARK    3  A    between atoms: N_12  and  C_13 
REMARK    4  A    between atoms: C_13  and  C_14 
REMARK       I    between atoms: C_14  and  N_16 
ROOT
HETATM    1  N   UNL     1       7.491   1.878  -1.724  1.00  0.00    -0.293 N 
HETATM    2  C   UNL     1       7.854   3.106  -1.228  1.00  0.00     0.322 C 
HETATM    3  O   UNL     1       8.882   3.723  -1.485  1.00  0.00    -0.247 OA
HETATM    4  N   UNL     1       6.921   3.604  -0.330  1.00  0.00    -0.338 N 
HETATM    5  H   UNL     1       6.673   1.427  -1.355  1.00  0.00     0.172 HD
HETATM    6  H   UNL     1       5.962   3.318  -0.461  1.00  0.00     0.164 HD
ENDROOT
BRANCH   4   7
HETATM    7  C   UNL     1       7.155   4.904   0.293  1.00  0.00     0.089 C 
HETATM    8  C   UNL     1       6.568   6.053  -0.529  1.00  0.00     0.055 C 
HETATM    9  C   UNL     1       6.850   7.390   0.164  1.00  0.00     0.275 C 
HETATM   10  N   UNL     1       6.396   7.464   1.568  1.00  0.00     0.097 N 
HETATM   11  C   UNL     1       6.910   6.319   2.340  1.00  0.00     0.275 C 
HETATM   12  C   UNL     1       6.607   4.952   1.716  1.00  0.00     0.055 C 
BRANCH  10  13
HETATM   13  C   UNL     1       4.924   7.572   1.696  1.00  0.00     0.374 C 
BRANCH  13  14
HETATM   14  C   UNL     1       4.404   8.872   1.083  1.00  0.00     0.243 C 
HETATM   15  O   UNL     1       3.567   8.910   0.186  1.00  0.00    -0.272 OA
HETATM   16  N   UNL     1       4.915  10.016   1.629  1.00  0.00    -0.369 N 
HETATM   17  H   UNL     1       5.801   9.957   2.120  1.00  0.00     0.159 HD
HETATM   18  H   UNL     1       4.684  10.883   1.163  1.00  0.00     0.159 HD
ENDBRANCH  13  14
ENDBRANCH  10  13
ENDBRANCH   4   7
BRANCH   1  19
HETATM   19  C   UNL     1       8.243   1.173  -2.651  1.00  0.00     0.132 A 
HETATM   20  C   UNL     1       7.891  -0.104  -3.163  1.00  0.00     0.084 A 
HETATM   21  C   UNL     1       8.869  -0.391  -4.085  1.00  0.00     0.076 A 
HETATM   22  C   UNL     1       9.124  -1.490  -5.031  1.00  0.00     0.079 C 
HETATM   23  O   UNL     1       9.773   0.620  -4.098  1.00  0.00    -0.241 OA
HETATM   24  N   UNL     1       9.382   1.594  -3.208  1.00  0.00    -0.245 N 
ATOM     25  HN  UNL     1       9.868   2.469  -3.011  1.00  0.00     0.196 HD
ENDBRANCH   1  19
TORSDOF 4
