REMARK  4 active torsions:
REMARK  status: ('A' for Active; 'I' for Inactive)
REMARK    1  A    between atoms: O_1  and  C_2 
REMARK    2  A    between atoms: C_2  and  C_3 
REMARK    3  A    between atoms: C_3  and  N_4 
REMARK       I    between atoms: N_4  and  C_5 
REMARK       I    between atoms: C_5  and  N_7 
REMARK    4  A    between atoms: N_7  and  C_8 
ROOT
HETATM    1  N   UNL     1       4.123  -0.144  -1.956  1.00  0.00    -0.340 N 
HETATM    2  C   UNL     1       4.440  -0.115  -3.304  1.00  0.00     0.322 C 
HETATM    3  O   UNL     1       3.564  -0.039  -4.154  1.00  0.00    -0.247 OA
HETATM    4  N   UNL     1       5.786  -0.237  -3.518  1.00  0.00    -0.289 N 
HETATM    5  H   UNL     1       4.752   0.360  -1.340  1.00  0.00     0.164 HD
HETATM    6  H   UNL     1       6.361  -0.646  -2.800  1.00  0.00     0.172 HD
ENDROOT
BRANCH   1   7
HETATM    7  C   UNL     1       2.713  -0.086  -1.616  1.00  0.00     0.162 C 
BRANCH   7   8
HETATM    8  C   UNL     1       2.570  -0.066  -0.096  1.00  0.00     0.074 C 
HETATM    9  C   UNL     1       1.097  -0.257   0.371  1.00  0.00     0.040 C 
HETATM   10  C   UNL     1       1.402  -1.741   0.630  1.00  0.00     0.006 C 
HETATM   11  C   UNL     1       2.898  -1.393   0.647  1.00  0.00     0.040 C 
BRANCH   8  12
HETATM   12  O   UNL     1       3.241   1.099   0.449  1.00  0.00    -0.388 OA
HETATM   13  H   UNL     1       2.724   1.860   0.127  1.00  0.00     0.210 HD
ENDBRANCH   8  12
ENDBRANCH   7   8
ENDBRANCH   1   7
BRANCH   4  14
HETATM   14  C   UNL     1       6.288  -0.209  -4.792  1.00  0.00     0.152 A 
HETATM   15  N   UNL     1       5.715   0.221  -5.889  1.00  0.00    -0.346 N 
HETATM   16  C   UNL     1       6.555   0.017  -6.961  1.00  0.00     0.097 A 
ATOM     17  HN  UNL     1       4.788   0.643  -5.941  1.00  0.00     0.167 HD
HETATM   18  C   UNL     1       7.775  -0.549  -6.656  1.00  0.00     0.070 A 
HETATM   19  S   UNL     1       7.877  -0.814  -4.960  1.00  0.00    -0.064 SA
ENDBRANCH   4  14
TORSDOF 4
