REMARK  4 active torsions:
REMARK  status: ('A' for Active; 'I' for Inactive)
REMARK    1  A    between atoms: C_2  and  C_3 
REMARK       I    between atoms: N_5  and  C_9 
REMARK       I    between atoms: C_9  and  N_11 
REMARK    2  A    between atoms: N_11  and  C_12 
REMARK    3  A    between atoms: C_12  and  C_13 
REMARK    4  A    between atoms: C_13  and  C_14 
ROOT
HETATM    1  C   UNL     1       2.970   0.980   1.185  1.00  0.00     0.139 C 
HETATM    2  C   UNL     1       2.877   2.492   0.892  1.00  0.00     0.159 C 
HETATM    3  N   UNL     1       3.675   2.844  -0.284  1.00  0.00    -0.330 N 
HETATM    4  C   UNL     1       5.066   2.394  -0.187  1.00  0.00     0.153 C 
HETATM    5  C   UNL     1       5.127   0.896   0.131  1.00  0.00     0.188 C 
HETATM    6  O   UNL     1       4.346   0.565   1.292  1.00  0.00    -0.383 OA
HETATM    7  C   UNL     1       3.201   3.278  -1.504  1.00  0.00     0.318 C 
HETATM    8  O   UNL     1       3.909   3.353  -2.503  1.00  0.00    -0.247 OA
HETATM    9  N   UNL     1       1.870   3.615  -1.534  1.00  0.00    -0.343 N 
HETATM   10  H   UNL     1       1.550   4.066  -0.693  1.00  0.00     0.164 HD
ENDROOT
BRANCH   9  11
HETATM   11  C   UNL     1       1.315   4.135  -2.774  1.00  0.00     0.129 C 
BRANCH  11  12
HETATM   12  C   UNL     1      -0.201   4.320  -2.709  1.00  0.00     0.061 C 
BRANCH  12  13
HETATM   13  C   UNL     1      -0.748   4.871  -3.980  1.00  0.00    -0.023 A 
HETATM   14  C   UNL     1      -1.253   4.154  -5.089  1.00  0.00     0.115 A 
HETATM   15  N   UNL     1      -1.637   4.953  -6.086  1.00  0.00    -0.310 N 
HETATM   16  N   UNL     1      -1.371   6.186  -5.626  1.00  0.00    -0.308 N 
ATOM     17  HN  UNL     1      -2.038   4.689  -6.986  1.00  0.00     0.186 HD
HETATM   18  C   UNL     1      -1.612   7.341  -6.458  1.00  0.00     0.177 C 
HETATM   19  C   UNL     1      -0.859   6.193  -4.361  1.00  0.00     0.118 A 
ENDBRANCH  12  13
ENDBRANCH  11  12
ENDBRANCH   9  11
BRANCH   1  20
HETATM   20  C   UNL     1       2.180   0.141   0.166  1.00  0.00     0.029 C 
HETATM   21  C   UNL     1       2.247  -1.349   0.469  1.00  0.00     0.007 C 
ENDBRANCH   1  20
TORSDOF 4
