REMARK  6 active torsions:
REMARK  status: ('A' for Active; 'I' for Inactive)
REMARK    1  A    between atoms: C_2  and  C_3 
REMARK    2  A    between atoms: C_3  and  C_4 
REMARK    3  A    between atoms: C_6  and  N_11 
REMARK    4  A    between atoms: C_8  and  O_9 
REMARK       I    between atoms: N_11  and  C_12 
REMARK    5  A    between atoms: C_12  and  C_14 
REMARK    6  A    between atoms: C_14  and  C_15 
ROOT
HETATM    1  N   UNL     1       5.549   1.125  -1.280  1.00  0.00    -0.355 N 
HETATM    2  C   UNL     1       6.590   0.406  -0.718  1.00  0.00     0.223 C 
HETATM    3  O   UNL     1       6.658   0.137   0.480  1.00  0.00    -0.273 OA
HETATM    4  H   UNL     1       5.656   1.405  -2.250  1.00  0.00     0.162 HD
ENDROOT
BRANCH   1   5
HETATM    5  C   UNL     1       4.425   1.632  -0.474  1.00  0.00     0.097 C 
HETATM    6  C   UNL     1       2.998   1.076  -0.847  1.00  0.00     0.006 C 
HETATM    7  C   UNL     1       2.491   2.541  -0.499  1.00  0.00     0.133 C 
HETATM    8  C   UNL     1       3.918   3.033  -0.876  1.00  0.00     0.058 C 
BRANCH   6   9
HETATM    9  C   UNL     1       2.520  -0.026   0.118  1.00  0.00     0.009 C 
HETATM   10  C   UNL     1       3.259  -1.344  -0.049  1.00  0.00     0.006 C 
ENDBRANCH   6   9
BRANCH   6  11
HETATM   11  C   UNL     1       2.809   0.707  -2.345  1.00  0.00     0.009 C 
HETATM   12  C   UNL     1       1.371   0.382  -2.722  1.00  0.00     0.006 C 
ENDBRANCH   6  11
BRANCH   7  13
HETATM   13  O   UNL     1       2.154   2.845   0.878  1.00  0.00    -0.390 OA
HETATM   14  C   UNL     1       0.837   2.558   1.320  1.00  0.00     0.202 C 
ENDBRANCH   7  13
ENDBRANCH   1   5
BRANCH   2  15
HETATM   15  C   UNL     1       7.649  -0.043  -1.700  1.00  0.00     0.161 C 
BRANCH  15  16
HETATM   16  C   UNL     1       8.759   0.944  -1.788  1.00  0.00     0.036 A 
HETATM   17  C   UNL     1       9.587   1.424  -0.747  1.00  0.00     0.053 A 
HETATM   18  C   UNL     1      10.497   2.250  -1.366  1.00  0.00     0.024 A 
HETATM   19  C   UNL     1      11.641   3.027  -0.842  1.00  0.00     0.070 C 
HETATM   20  N   UNL     1      10.168   2.237  -2.692  1.00  0.00    -0.305 N 
HETATM   21  N   UNL     1       9.109   1.461  -2.974  1.00  0.00    -0.304 N 
HETATM   22  H   UNL     1      10.625   2.723  -3.457  1.00  0.00     0.186 HD
ATOM     23  HN  UNL     1       8.672   1.302  -3.882  1.00  0.00     0.186 HD
ENDBRANCH  15  16
ENDBRANCH   2  15
TORSDOF 6
