REMARK  4 active torsions:
REMARK  status: ('A' for Active; 'I' for Inactive)
REMARK    1  A    between atoms: N_6  and  C_7 
REMARK    2  A    between atoms: C_7  and  C_8 
REMARK    3  A    between atoms: C_8  and  O_9 
REMARK    4  A    between atoms: C_8  and  C_10 
ROOT
HETATM    1  C   UNL     1       6.593   0.164  -0.065  1.00  0.00     0.169 C 
ENDROOT
BRANCH   1   2
HETATM    2  N   UNL     1       5.138   0.082   0.029  1.00  0.00    -0.307 N 
HETATM    3  C   UNL     1       4.374   0.034  -1.105  1.00  0.00     0.186 A 
HETATM    4  N   UNL     1       3.085   0.027  -1.126  1.00  0.00    -0.355 N 
HETATM    5  C   UNL     1       2.434   0.063   0.082  1.00  0.00     0.017 A 
ATOM      6  HN  UNL     1       2.569  -0.004  -2.005  1.00  0.00     0.166 HD
HETATM    7  C   UNL     1       0.932   0.121  -0.021  1.00  0.00     0.069 C 
HETATM    8  C   UNL     1       3.059   0.054   1.275  1.00  0.00     0.028 A 
HETATM    9  C   UNL     1       4.545   0.026   1.270  1.00  0.00     0.256 A 
HETATM   10  C   UNL     1       2.362   0.091   2.600  1.00  0.00     0.056 C 
HETATM   11  O   UNL     1       5.187  -0.025   2.317  1.00  0.00    -0.267 OA
ENDBRANCH   1   2
BRANCH   1  12
HETATM   12  C   UNL     1       7.294  -1.212  -0.096  1.00  0.00     0.169 C 
BRANCH  12  13
HETATM   13  O   UNL     1       6.847  -1.904  -1.272  1.00  0.00    -0.389 OA
HETATM   14  H   UNL     1       7.467  -1.700  -1.994  1.00  0.00     0.210 HD
ENDBRANCH  12  13
BRANCH  12  15
HETATM   15  C   UNL     1       8.818  -1.161  -0.131  1.00  0.00    -0.025 A 
HETATM   16  C   UNL     1       9.554   0.037  -0.118  1.00  0.00     0.010 A 
HETATM   17  C   UNL     1      10.952   0.029  -0.185  1.00  0.00     0.004 A 
HETATM   18  C   UNL     1      11.641  -1.177  -0.264  1.00  0.00     0.042 A 
HETATM   19  C   UNL     1      10.927  -2.367  -0.263  1.00  0.00     0.117 A 
HETATM   20  F   UNL     1      11.588  -3.529  -0.340  1.00  0.00    -0.206 F 
HETATM   21  C   UNL     1       9.535  -2.371  -0.193  1.00  0.00     0.052 A 
ENDBRANCH  12  15
ENDBRANCH   1  12
TORSDOF 4
