REMARK  6 active torsions:
REMARK  status: ('A' for Active; 'I' for Inactive)
REMARK    1  A    between atoms: O_1  and  C_2 
REMARK    2  A    between atoms: C_2  and  C_3 
REMARK    3  A    between atoms: C_2  and  C_21 
REMARK       I    between atoms: N_6  and  C_9 
REMARK       I    between atoms: C_9  and  N_11 
REMARK    4  A    between atoms: N_11  and  C_12 
REMARK    5  A    between atoms: C_12  and  C_13 
REMARK    6  A    between atoms: C_13  and  C_14 
ROOT
HETATM    1  C   UNL     1       2.975   1.045  -0.928  1.00  0.00     0.026 C 
HETATM    2  C   UNL     1       3.551   2.341  -0.323  1.00  0.00     0.027 C 
HETATM    3  C   UNL     1       2.494   3.339   0.147  1.00  0.00     0.128 C 
HETATM    4  N   UNL     1       1.517   3.618  -0.904  1.00  0.00    -0.334 N 
HETATM    5  C   UNL     1       0.890   2.453  -1.516  1.00  0.00     0.128 C 
HETATM    6  C   UNL     1       1.914   1.417  -1.982  1.00  0.00     0.027 C 
HETATM    7  C   UNL     1       1.025   4.871  -1.234  1.00  0.00     0.318 C 
HETATM    8  O   UNL     1       0.242   5.058  -2.162  1.00  0.00    -0.247 OA
HETATM    9  N   UNL     1       1.480   5.908  -0.456  1.00  0.00    -0.343 N 
HETATM   10  H   UNL     1       1.584   5.667   0.517  1.00  0.00     0.164 HD
ENDROOT
BRANCH   9  11
HETATM   11  C   UNL     1       0.999   7.255  -0.721  1.00  0.00     0.130 C 
BRANCH  11  12
HETATM   12  C   UNL     1       1.692   8.291   0.161  1.00  0.00     0.076 C 
BRANCH  12  13
HETATM   13  C   UNL     1       1.220   9.699  -0.100  1.00  0.00     0.010 A 
HETATM   14  C   UNL     1       1.409  10.301  -1.343  1.00  0.00     0.025 A 
HETATM   15  C   UNL     1       0.991  11.617  -1.525  1.00  0.00     0.003 A 
HETATM   16  C   UNL     1       0.408  12.300  -0.465  1.00  0.00     0.017 A 
HETATM   17  C   UNL     1       0.258  11.631   0.736  1.00  0.00     0.088 A 
HETATM   18  N   UNL     1       0.647  10.352   0.940  1.00  0.00    -0.369 N 
ATOM     19  HN  UNL     1       0.514   9.896   1.843  1.00  0.00     0.165 HD
ENDBRANCH  12  13
ENDBRANCH  11  12
ENDBRANCH   9  11
BRANCH   1  20
HETATM   20  C   UNL     1       2.455   0.027   0.121  1.00  0.00     0.229 C 
BRANCH  20  21
HETATM   21  O   UNL     1       1.456   0.623   0.955  1.00  0.00    -0.386 OA
HETATM   22  H   UNL     1       0.583   0.386   0.597  1.00  0.00     0.210 HD
ENDBRANCH  20  21
BRANCH  20  23
HETATM   23  C   UNL     1       3.597  -0.646   0.935  1.00  0.00     0.413 C 
HETATM   24  F   UNL     1       3.333  -0.664   2.261  1.00  0.00    -0.168 F 
HETATM   25  F   UNL     1       3.744  -1.937   0.545  1.00  0.00    -0.168 F 
HETATM   26  F   UNL     1       4.796  -0.048   0.767  1.00  0.00    -0.168 F 
ENDBRANCH  20  23
ENDBRANCH   1  20
TORSDOF 6
