REMARK  4 active torsions:
REMARK  status: ('A' for Active; 'I' for Inactive)
REMARK       I    between atoms: C_2  and  N_3 
REMARK       I    between atoms: C_2  and  N_13 
REMARK    1  A    between atoms: N_3  and  C_4 
REMARK    2  A    between atoms: C_8  and  C_10 
REMARK    3  A    between atoms: N_13  and  C_14 
REMARK    4  A    between atoms: C_18  and  C_22 
ROOT
HETATM    1  O   UNL     1       1.102  -0.400  -0.141  1.00  0.00    -0.247 OA
HETATM    2  C   UNL     1       2.310  -0.232  -0.047  1.00  0.00     0.321 C 
HETATM    3  N   UNL     1       3.010   0.616  -0.881  1.00  0.00    -0.338 N 
HETATM    4  N   UNL     1       3.126  -0.812   0.895  1.00  0.00    -0.306 N 
HETATM    5  H   UNL     1       3.907   0.243  -1.158  1.00  0.00     0.164 HD
HETATM    6  H   UNL     1       4.039  -0.394   1.018  1.00  0.00     0.171 HD
ENDROOT
BRANCH   3   7
HETATM    7  C   UNL     1       2.282   1.371  -1.911  1.00  0.00     0.090 C 
HETATM    8  C   UNL     1       3.247   2.146  -2.816  1.00  0.00     0.051 C 
HETATM    9  C   UNL     1       3.831   3.363  -2.107  1.00  0.00     0.170 C 
HETATM   10  O   UNL     1       2.807   4.191  -1.557  1.00  0.00    -0.385 OA
HETATM   11  C   UNL     1       2.016   3.485  -0.594  1.00  0.00     0.127 C 
HETATM   12  C   UNL     1       1.272   2.358  -1.305  1.00  0.00     0.057 C 
BRANCH  11  13
HETATM   13  C   UNL     1       1.059   4.449   0.049  1.00  0.00     0.015 A 
HETATM   14  C   UNL     1       1.568   5.560   0.931  1.00  0.00     0.007 A 
HETATM   15  C   UNL     1       0.835   4.398   1.542  1.00  0.00     0.007 A 
ENDBRANCH  11  13
ENDBRANCH   3   7
BRANCH   4  16
HETATM   16  C   UNL     1       2.700  -1.762   1.848  1.00  0.00     0.067 A 
HETATM   17  C   UNL     1       1.482  -2.409   1.836  1.00  0.00     0.120 A 
HETATM   18  N   UNL     1       1.107  -3.334   2.746  1.00  0.00    -0.353 N 
HETATM   19  C   UNL     1       1.984  -3.644   3.719  1.00  0.00     0.085 A 
ATOM     20  HN  UNL     1       0.192  -3.782   2.698  1.00  0.00     0.166 HD
HETATM   21  N   UNL     1       3.194  -3.057   3.828  1.00  0.00    -0.353 N 
HETATM   22  C   UNL     1       3.521  -2.136   2.892  1.00  0.00     0.120 A 
ATOM     23  HN  UNL     1       3.835  -3.297   4.584  1.00  0.00     0.166 HD
BRANCH  19  24
HETATM   24  C   UNL     1       1.584  -4.703   4.712  1.00  0.00     0.053 A 
HETATM   25  C   UNL     1       2.383  -5.981   4.822  1.00  0.00     0.013 A 
HETATM   26  C   UNL     1       1.014  -6.015   4.213  1.00  0.00     0.013 A 
ENDBRANCH  19  24
ENDBRANCH   4  16
TORSDOF 4
