REMARK  4 active torsions:
REMARK  status: ('A' for Active; 'I' for Inactive)
REMARK    1  A    between atoms: C_8  and  C_9 
REMARK    2  A    between atoms: C_9  and  C_10 
REMARK       I    between atoms: C_10  and  N_12 
REMARK    3  A    between atoms: N_12  and  C_13 
REMARK    4  A    between atoms: C_13  and  C_14 
ROOT
HETATM    1  C   UNL     1       1.731   3.079  -0.287  1.00  0.00     0.222 C 
HETATM    2  O   UNL     1       0.917   2.186  -0.526  1.00  0.00    -0.273 OA
HETATM    3  N   UNL     1       1.353   4.410  -0.177  1.00  0.00    -0.358 N 
HETATM    4  H   UNL     1       1.954   5.048   0.334  1.00  0.00     0.162 HD
ENDROOT
BRANCH   1   5
HETATM    5  C   UNL     1       3.204   2.773  -0.102  1.00  0.00     0.146 C 
BRANCH   5   6
HETATM    6  C   UNL     1       3.981   2.617  -1.371  1.00  0.00     0.006 A 
HETATM    7  C   UNL     1       3.580   2.215  -2.682  1.00  0.00     0.038 A 
HETATM    8  C   UNL     1       2.244   1.830  -3.200  1.00  0.00     0.071 C 
HETATM    9  N   UNL     1       4.621   2.189  -3.523  1.00  0.00    -0.265 N 
HETATM   10  O   UNL     1       5.724   2.536  -2.779  1.00  0.00    -0.242 OA
ATOM     11  HN  UNL     1       4.600   1.958  -4.516  1.00  0.00     0.194 HD
HETATM   12  C   UNL     1       5.349   2.778  -1.499  1.00  0.00     0.081 A 
HETATM   13  C   UNL     1       6.438   3.120  -0.564  1.00  0.00     0.079 C 
ENDBRANCH   5   6
ENDBRANCH   1   5
BRANCH   3  14
HETATM   14  C   UNL     1      -0.068   4.708  -0.205  1.00  0.00     0.154 C 
BRANCH  14  15
HETATM   15  C   UNL     1      -0.469   6.183  -0.181  1.00  0.00     0.139 C 
HETATM   16  C   UNL     1       0.098   7.079  -1.266  1.00  0.00     0.035 C 
HETATM   17  C   UNL     1      -0.013   8.469  -0.657  1.00  0.00     0.029 C 
HETATM   18  C   UNL     1      -0.354   8.227   0.804  1.00  0.00     0.168 C 
HETATM   19  O   UNL     1      -0.087   6.836   1.041  1.00  0.00    -0.384 OA
ENDBRANCH  14  15
ENDBRANCH   3  14
TORSDOF 4
