REMARK  3 active torsions:
REMARK  status: ('A' for Active; 'I' for Inactive)
REMARK    1  A    between atoms: C_2  and  N_3 
REMARK    2  A    between atoms: C_2  and  C_14 
REMARK       I    between atoms: N_3  and  C_4 
REMARK       I    between atoms: C_4  and  N_6 
REMARK    3  A    between atoms: N_6  and  C_7 
ROOT
HETATM    1  N   UNL     1       2.887   1.295   0.251  1.00  0.00    -0.336 N 
HETATM    2  C   UNL     1       4.089   1.831  -0.075  1.00  0.00     0.322 C 
HETATM    3  O   UNL     1       4.955   1.221  -0.699  1.00  0.00    -0.247 OA
HETATM    4  N   UNL     1       4.318   3.110   0.349  1.00  0.00    -0.295 N 
HETATM    5  H   UNL     1       2.335   1.852   0.898  1.00  0.00     0.164 HD
HETATM    6  H   UNL     1       5.249   3.439   0.144  1.00  0.00     0.172 HD
ENDROOT
BRANCH   1   7
HETATM    7  C   UNL     1       2.456  -0.070  -0.012  1.00  0.00     0.111 C 
HETATM    8  C   UNL     1       0.926  -0.076  -0.025  1.00  0.00     0.035 C 
BRANCH   7   9
HETATM    9  C   UNL     1       3.045  -1.064   1.016  1.00  0.00     0.143 C 
HETATM   10  C   UNL     1       2.830  -2.529   0.644  1.00  0.00     0.036 C 
HETATM   11  C   UNL     1       2.399  -3.206   1.929  1.00  0.00     0.029 C 
HETATM   12  C   UNL     1       2.554  -2.146   2.995  1.00  0.00     0.168 C 
HETATM   13  O   UNL     1       2.443  -0.894   2.316  1.00  0.00    -0.384 OA
ENDBRANCH   7   9
ENDBRANCH   1   7
BRANCH   4  14
HETATM   14  C   UNL     1       3.437   3.970   1.020  1.00  0.00     0.108 A 
HETATM   15  C   UNL     1       3.933   5.168   1.518  1.00  0.00     0.049 A 
HETATM   16  C   UNL     1       3.071   6.012   2.219  1.00  0.00     0.005 A 
HETATM   17  C   UNL     1       1.735   5.654   2.371  1.00  0.00     0.017 A 
HETATM   18  C   UNL     1       1.319   4.459   1.825  1.00  0.00     0.089 A 
HETATM   19  N   UNL     1       2.143   3.611   1.176  1.00  0.00    -0.352 N 
ATOM     20  HN  UNL     1       1.799   2.722   0.812  1.00  0.00     0.166 HD
ENDBRANCH   4  14
TORSDOF 3
