REMARK  4 active torsions:
REMARK  status: ('A' for Active; 'I' for Inactive)
REMARK    1  A    between atoms: C_2  and  C_3 
REMARK    2  A    between atoms: C_2  and  N_10 
REMARK    3  A    between atoms: C_3  and  N_4 
REMARK       I    between atoms: N_10  and  C_11 
REMARK       I    between atoms: C_11  and  N_13 
REMARK    4  A    between atoms: N_13  and  C_14 
ROOT
HETATM    1  N   UNL     1       3.164  -1.573  -0.602  1.00  0.00    -0.337 N 
HETATM    2  C   UNL     1       4.459  -1.394  -1.063  1.00  0.00     0.322 C 
HETATM    3  O   UNL     1       4.998  -0.298  -1.070  1.00  0.00    -0.247 OA
HETATM    4  N   UNL     1       5.002  -2.600  -1.431  1.00  0.00    -0.289 N 
HETATM    5  H   UNL     1       2.655  -2.328  -1.039  1.00  0.00     0.164 HD
HETATM    6  H   UNL     1       4.622  -3.441  -1.035  1.00  0.00     0.172 HD
ENDROOT
BRANCH   1   7
HETATM    7  C   UNL     1       2.375  -0.433  -0.117  1.00  0.00     0.110 C 
HETATM    8  C   UNL     1       0.891  -0.795  -0.195  1.00  0.00     0.034 C 
BRANCH   7   9
HETATM    9  C   UNL     1       2.818  -0.043   1.327  1.00  0.00     0.297 C 
BRANCH   9  10
HETATM   10  N   UNL     1       2.070   1.055   1.977  1.00  0.00     0.094 N 
HETATM   11  C   UNL     1       2.249   2.367   1.312  1.00  0.00     0.298 C 
HETATM   12  C   UNL     1       3.624   3.021   1.539  1.00  0.00     0.198 C 
HETATM   13  O   UNL     1       3.914   3.152   2.937  1.00  0.00    -0.388 OA
HETATM   14  C   UNL     1       3.865   1.875   3.582  1.00  0.00     0.198 C 
HETATM   15  C   UNL     1       2.486   1.213   3.394  1.00  0.00     0.298 C 
ENDBRANCH   9  10
ENDBRANCH   7   9
ENDBRANCH   1   7
BRANCH   4  16
HETATM   16  C   UNL     1       6.247  -2.689  -1.987  1.00  0.00     0.152 A 
HETATM   17  N   UNL     1       6.969  -1.765  -2.565  1.00  0.00    -0.346 N 
HETATM   18  C   UNL     1       8.178  -2.307  -2.951  1.00  0.00     0.097 A 
ATOM     19  HN  UNL     1       6.684  -0.796  -2.708  1.00  0.00     0.167 HD
HETATM   20  C   UNL     1       8.350  -3.644  -2.660  1.00  0.00     0.070 A 
HETATM   21  S   UNL     1       6.925  -4.258  -1.926  1.00  0.00    -0.064 SA
ENDBRANCH   4  16
TORSDOF 4
