REMARK  5 active torsions:
REMARK  status: ('A' for Active; 'I' for Inactive)
REMARK    1  A    between atoms: C_2  and  C_3 
REMARK    2  A    between atoms: C_3  and  C_4 
REMARK    3  A    between atoms: C_4  and  N_6 
REMARK       I    between atoms: N_6  and  C_7 
REMARK    4  A    between atoms: C_7  and  C_9 
REMARK    5  A    between atoms: C_9  and  N_10 
ROOT
HETATM    1  C   UNL     1       6.960  -0.858   4.285  1.00  0.00     0.255 C 
ENDROOT
BRANCH   1   2
HETATM    2  C   UNL     1       6.523  -0.649   2.834  1.00  0.00     0.237 C 
HETATM    3  N   UNL     1       5.155  -0.545   2.646  1.00  0.00    -0.355 N 
HETATM    4  H   UNL     1       4.591  -0.308   3.455  1.00  0.00     0.162 HD
HETATM    5  O   UNL     1       7.335  -0.606   1.910  1.00  0.00    -0.272 OA
BRANCH   3   6
HETATM    6  C   UNL     1       4.599  -0.223   1.332  1.00  0.00     0.080 C 
HETATM    7  C   UNL     1       4.716   1.281   1.071  1.00  0.00     0.032 C 
BRANCH   6   8
HETATM    8  C   UNL     1       3.144  -0.719   1.233  1.00  0.00     0.024 C 
BRANCH   8   9
HETATM    9  C   UNL     1       2.550  -0.551  -0.170  1.00  0.00    -0.003 C 
HETATM   10  C   UNL     1       1.130  -1.087  -0.260  1.00  0.00     0.005 C 
ENDBRANCH   8   9
ENDBRANCH   6   8
ENDBRANCH   3   6
ENDBRANCH   1   2
BRANCH   1  11
HETATM   11  N   UNL     1       7.956   0.130   4.663  1.00  0.00    -0.246 N 
HETATM   12  N   UNL     1       9.289  -0.301   4.661  1.00  0.00    -0.261 N 
HETATM   13  C   UNL     1      10.318   0.474   5.120  1.00  0.00     0.260 A 
HETATM   14  H   UNL     1       9.530  -1.175   4.204  1.00  0.00     0.190 HD
HETATM   15  O   UNL     1      11.484   0.096   5.130  1.00  0.00    -0.267 OA
HETATM   16  C   UNL     1       9.956   1.816   5.611  1.00  0.00     0.081 A 
HETATM   17  C   UNL     1       8.689   2.240   5.596  1.00  0.00     0.081 A 
HETATM   18  C   UNL     1       7.587   1.374   5.122  1.00  0.00     0.262 A 
HETATM   19  O   UNL     1       6.429   1.776   5.170  1.00  0.00    -0.267 OA
ENDBRANCH   1  11
TORSDOF 5
