REMARK  6 active torsions:
REMARK  status: ('A' for Active; 'I' for Inactive)
REMARK    1  A    between atoms: N_6  and  C_7 
REMARK    2  A    between atoms: C_7  and  C_8 
REMARK    3  A    between atoms: C_8  and  O_9 
REMARK    4  A    between atoms: C_8  and  C_10 
REMARK    5  A    between atoms: C_13  and  O_14 
REMARK    6  A    between atoms: O_14  and  C_15 
ROOT
HETATM    1  C   UNL     1       7.345  -1.117   0.019  1.00  0.00     0.169 C 
ENDROOT
BRANCH   1   2
HETATM    2  C   UNL     1       6.630   0.253   0.043  1.00  0.00     0.169 C 
BRANCH   2   3
HETATM    3  N   UNL     1       5.177   0.156   0.126  1.00  0.00    -0.307 N 
HETATM    4  C   UNL     1       4.418   0.103  -1.011  1.00  0.00     0.186 A 
HETATM    5  N   UNL     1       3.129   0.078  -1.037  1.00  0.00    -0.355 N 
HETATM    6  C   UNL     1       2.473   0.102   0.169  1.00  0.00     0.017 A 
ATOM      7  HN  UNL     1       2.617   0.042  -1.918  1.00  0.00     0.166 HD
HETATM    8  C   UNL     1       0.972   0.148   0.059  1.00  0.00     0.069 C 
HETATM    9  C   UNL     1       3.094   0.093   1.364  1.00  0.00     0.028 A 
HETATM   10  C   UNL     1       4.579   0.075   1.361  1.00  0.00     0.256 A 
HETATM   11  C   UNL     1       2.393   0.112   2.685  1.00  0.00     0.056 C 
HETATM   12  O   UNL     1       5.219   0.014   2.409  1.00  0.00    -0.267 OA
ENDBRANCH   2   3
ENDBRANCH   1   2
BRANCH   1  13
HETATM   13  O   UNL     1       6.907  -1.814  -1.159  1.00  0.00    -0.389 OA
HETATM   14  H   UNL     1       7.537  -1.613  -1.873  1.00  0.00     0.210 HD
ENDBRANCH   1  13
BRANCH   1  15
HETATM   15  C   UNL     1       8.867  -1.050  -0.015  1.00  0.00    -0.028 A 
HETATM   16  C   UNL     1       9.581   0.154  -0.005  1.00  0.00     0.012 A 
HETATM   17  C   UNL     1      10.976   0.159  -0.089  1.00  0.00     0.037 A 
HETATM   18  C   UNL     1      11.699  -1.031  -0.170  1.00  0.00     0.078 A 
HETATM   19  C   UNL     1      11.006  -2.237  -0.191  1.00  0.00     0.037 A 
HETATM   20  C   UNL     1       9.605  -2.246  -0.095  1.00  0.00     0.012 A 
BRANCH  18  21
HETATM   21  O   UNL     1      13.042  -0.857  -0.281  1.00  0.00    -0.255 OA
BRANCH  21  22
HETATM   22  C   UNL     1      13.935  -1.857   0.181  1.00  0.00     0.530 C 
HETATM   23  F   UNL     1      13.351  -2.829   0.910  1.00  0.00    -0.144 F 
HETATM   24  F   UNL     1      14.564  -2.416  -0.875  1.00  0.00    -0.144 F 
HETATM   25  F   UNL     1      14.869  -1.262   0.959  1.00  0.00    -0.144 F 
ENDBRANCH  21  22
ENDBRANCH  18  21
ENDBRANCH   1  15
TORSDOF 6
