REMARK  7 active torsions:
REMARK  status: ('A' for Active; 'I' for Inactive)
REMARK    1  A    between atoms: C_2  and  N_3 
REMARK    2  A    between atoms: N_3  and  C_4 
REMARK       I    between atoms: N_3  and  C_10 
REMARK    3  A    between atoms: C_10  and  C_12 
REMARK    4  A    between atoms: C_12  and  N_13 
REMARK    5  A    between atoms: N_13  and  C_14 
REMARK    6  A    between atoms: C_14  and  C_15 
REMARK    7  A    between atoms: C_15  and  N_16 
ROOT
HETATM    1  C   UNL     1       4.928   2.823  -1.025  1.00  0.00     0.372 C 
ENDROOT
BRANCH   1   2
HETATM    2  C   UNL     1       4.354   1.473  -0.567  1.00  0.00     0.248 C 
HETATM    3  N   UNL     1       2.958   1.366  -0.358  1.00  0.00    -0.346 N 
HETATM    4  O   UNL     1       5.104   0.498  -0.451  1.00  0.00    -0.271 OA
BRANCH   3   5
HETATM    5  C   UNL     1       2.456   0.012  -0.123  1.00  0.00     0.122 C 
HETATM    6  C   UNL     1       2.599  -0.428   1.326  1.00  0.00     0.026 C 
ENDBRANCH   3   5
BRANCH   3   7
HETATM    7  C   UNL     1       2.004   2.507  -0.463  1.00  0.00     0.087 C 
HETATM    8  C   UNL     1       0.773   2.495   0.469  1.00  0.00     0.025 C 
HETATM    9  C   UNL     1      -0.511   1.880  -0.086  1.00  0.00     0.002 C 
HETATM   10  C   UNL     1      -0.788   2.274  -1.530  1.00  0.00     0.000 C 
HETATM   11  C   UNL     1       0.422   2.021  -2.418  1.00  0.00     0.002 C 
HETATM   12  C   UNL     1       1.630   2.811  -1.924  1.00  0.00     0.025 C 
ENDBRANCH   3   7
ENDBRANCH   1   2
BRANCH   1  13
HETATM   13  N   UNL     1       6.209   3.114  -0.350  1.00  0.00     0.093 N 
HETATM   14  H   UNL     1       6.840   2.329  -0.541  1.00  0.00     0.316 HD
BRANCH  13  15
HETATM   15  C   UNL     1       6.801   4.369  -0.851  1.00  0.00     0.291 C 
BRANCH  15  16
HETATM   16  C   UNL     1       5.974   5.609  -0.485  1.00  0.00     0.178 C 
BRANCH  16  17
HETATM   17  N   UNL     1       6.539   6.832  -1.015  1.00  0.00    -0.302 N 
HETATM   18  C   UNL     1       7.310   7.734  -0.344  1.00  0.00     0.118 A 
HETATM   19  C   UNL     1       7.502   8.794  -1.205  1.00  0.00    -0.028 A 
HETATM   20  C   UNL     1       8.256  10.042  -0.964  1.00  0.00     0.051 C 
HETATM   21  C   UNL     1       6.802   8.419  -2.374  1.00  0.00     0.115 A 
HETATM   22  N   UNL     1       6.219   7.224  -2.262  1.00  0.00    -0.310 N 
ATOM     23  HN  UNL     1       5.663   6.726  -2.957  1.00  0.00     0.186 HD
ENDBRANCH  16  17
ENDBRANCH  15  16
ENDBRANCH  13  15
ENDBRANCH   1  13
TORSDOF 7
