REMARK  6 active torsions:
REMARK  status: ('A' for Active; 'I' for Inactive)
REMARK    1  A    between atoms: C_2  and  C_3 
REMARK    2  A    between atoms: C_2  and  N_5 
REMARK    3  A    between atoms: C_2  and  C_19 
REMARK    4  A    between atoms: C_3  and  O_4 
REMARK       I    between atoms: N_5  and  C_6 
REMARK       I    between atoms: C_6  and  N_8 
REMARK    5  A    between atoms: N_8  and  C_9 
REMARK    6  A    between atoms: C_14  and  C_16 
ROOT
HETATM    1  N   UNL     1       3.012  -0.043  -1.368  1.00  0.00    -0.331 N 
HETATM    2  C   UNL     1       4.287  -0.072  -1.857  1.00  0.00     0.322 C 
HETATM    3  O   UNL     1       5.299  -0.101  -1.159  1.00  0.00    -0.247 OA
HETATM    4  N   UNL     1       4.418   0.049  -3.213  1.00  0.00    -0.288 N 
HETATM    5  H   UNL     1       2.311  -0.349  -2.033  1.00  0.00     0.165 HD
HETATM    6  H   UNL     1       5.352   0.206  -3.559  1.00  0.00     0.172 HD
ENDROOT
BRANCH   1   7
HETATM    7  C   UNL     1       2.600  -0.138   0.041  1.00  0.00     0.055 C 
HETATM    8  C   UNL     1       1.054  -0.118   0.032  1.00  0.00     0.041 C 
BRANCH   7   9
HETATM    9  C   UNL     1       3.097  -1.470   0.677  1.00  0.00     0.195 C 
BRANCH   9  10
HETATM   10  O   UNL     1       2.562  -2.626   0.026  1.00  0.00    -0.398 OA
HETATM   11  H   UNL     1       1.651  -2.746   0.342  1.00  0.00     0.209 HD
ENDBRANCH   9  10
ENDBRANCH   7   9
BRANCH   7  12
HETATM   12  C   UNL     1       3.181   1.057   0.799  1.00  0.00     0.015 A 
HETATM   13  C   UNL     1       2.863   1.309   2.255  1.00  0.00     0.007 A 
HETATM   14  C   UNL     1       2.384   2.278   1.212  1.00  0.00     0.007 A 
ENDBRANCH   7  12
ENDBRANCH   1   7
BRANCH   4  15
HETATM   15  C   UNL     1       3.370   0.058  -4.090  1.00  0.00     0.169 A 
HETATM   16  N   UNL     1       2.118  -0.259  -3.852  1.00  0.00    -0.279 N 
HETATM   17  N   UNL     1       1.316  -0.050  -4.946  1.00  0.00    -0.291 N 
ATOM     18  HN  UNL     1       1.781  -0.618  -2.959  1.00  0.00     0.189 HD
HETATM   19  C   UNL     1       1.996   0.432  -5.968  1.00  0.00     0.134 A 
ATOM     20  HN  UNL     1       0.315  -0.244  -4.966  1.00  0.00     0.187 HD
HETATM   21  S   UNL     1       3.693   0.574  -5.678  1.00  0.00    -0.032 SA
BRANCH  19  22
HETATM   22  C   UNL     1       1.389   0.857  -7.256  1.00  0.00     0.411 C 
HETATM   23  F   UNL     1       1.572   2.189  -7.477  1.00  0.00    -0.207 F 
HETATM   24  F   UNL     1       1.946   0.214  -8.318  1.00  0.00    -0.207 F 
ENDBRANCH  19  22
ENDBRANCH   4  15
TORSDOF 6
