REMARK  4 active torsions:
REMARK  status: ('A' for Active; 'I' for Inactive)
REMARK    1  A    between atoms: C_2  and  C_3 
REMARK    2  A    between atoms: C_2  and  N_10 
REMARK    3  A    between atoms: C_3  and  N_4 
REMARK       I    between atoms: N_10  and  C_11 
REMARK       I    between atoms: C_11  and  N_13 
REMARK    4  A    between atoms: C_17  and  N_19 
REMARK       I    between atoms: N_19  and  C_20 
ROOT
HETATM    1  N   UNL     1       3.253   1.378   0.603  1.00  0.00    -0.337 N 
HETATM    2  C   UNL     1       4.571   1.425   0.984  1.00  0.00     0.318 C 
HETATM    3  O   UNL     1       5.359   0.533   0.682  1.00  0.00    -0.247 OA
HETATM    4  N   UNL     1       4.951   2.559   1.673  1.00  0.00    -0.332 N 
HETATM    5  C   UNL     1       4.085   3.662   2.096  1.00  0.00     0.127 C 
HETATM    6  C   UNL     1       4.652   5.006   1.646  1.00  0.00     0.022 C 
HETATM    7  C   UNL     1       6.088   5.194   2.128  1.00  0.00     0.028 C 
HETATM    8  C   UNL     1       6.974   4.014   1.701  1.00  0.00     0.102 C 
HETATM    9  C   UNL     1       6.345   2.668   2.120  1.00  0.00     0.152 C 
HETATM   10  H   UNL     1       2.634   1.704   1.330  1.00  0.00     0.164 HD
ENDROOT
BRANCH   1  11
HETATM   11  C   UNL     1       2.730   0.248  -0.178  1.00  0.00     0.100 C 
HETATM   12  C   UNL     1       1.227   0.459  -0.397  1.00  0.00     0.034 C 
BRANCH  11  13
HETATM   13  C   UNL     1       3.463   0.072  -1.529  1.00  0.00     0.153 C 
BRANCH  13  14
HETATM   14  N   UNL     1       3.014  -1.067  -2.304  1.00  0.00    -0.350 N 
HETATM   15  C   UNL     1       2.512  -1.032  -3.574  1.00  0.00     0.108 A 
HETATM   16  C   UNL     1       2.248  -2.345  -3.886  1.00  0.00     0.106 A 
HETATM   17  N   UNL     1       2.583  -3.169  -2.843  1.00  0.00    -0.361 N 
HETATM   18  C   UNL     1       3.063  -2.375  -1.913  1.00  0.00     0.182 A 
ATOM     19  HN  UNL     1       2.481  -4.183  -2.798  1.00  0.00     0.166 HD
ENDBRANCH  13  14
ENDBRANCH  11  13
ENDBRANCH   1  11
BRANCH   8  20
HETATM   20  N   UNL     1       8.354   4.178   2.154  1.00  0.00    -0.355 N 
HETATM   21  C   UNL     1       8.718   4.178   3.481  1.00  0.00     0.213 C 
HETATM   22  O   UNL     1       7.927   4.034   4.406  1.00  0.00    -0.274 OA
HETATM   23  C   UNL     1      10.190   4.361   3.725  1.00  0.00     0.117 C 
HETATM   24  H   UNL     1       9.066   4.315   1.448  1.00  0.00     0.162 HD
ENDBRANCH   8  20
TORSDOF 4
