REMARK  4 active torsions:
REMARK  status: ('A' for Active; 'I' for Inactive)
REMARK    1  A    between atoms: C_6  and  N_7 
REMARK       I    between atoms: N_7  and  C_8 
REMARK       I    between atoms: C_8  and  N_10 
REMARK    2  A    between atoms: N_10  and  C_11 
REMARK    3  A    between atoms: C_11  and  C_12 
REMARK    4  A    between atoms: C_12  and  C_13 
ROOT
HETATM    1  N   UNL     1       5.101  -2.476  -0.018  1.00  0.00    -0.304 N 
HETATM    2  C   UNL     1       4.450  -3.683  -0.082  1.00  0.00     0.320 C 
HETATM    3  O   UNL     1       3.234  -3.823   0.023  1.00  0.00    -0.247 OA
HETATM    4  N   UNL     1       5.285  -4.763  -0.264  1.00  0.00    -0.343 N 
HETATM    5  H   UNL     1       6.039  -2.409  -0.396  1.00  0.00     0.171 HD
HETATM    6  H   UNL     1       6.207  -4.596  -0.637  1.00  0.00     0.164 HD
ENDROOT
BRANCH   1   7
HETATM    7  C   UNL     1       4.518  -1.260   0.307  1.00  0.00     0.105 A 
HETATM    8  C   UNL     1       3.326  -1.109   0.907  1.00  0.00     0.037 A 
HETATM    9  C   UNL     1       2.800   0.186   1.246  1.00  0.00     0.020 A 
HETATM   10  C   UNL     1       3.522   1.285   1.006  1.00  0.00     0.094 A 
HETATM   11  N   UNL     1       4.763   1.206   0.407  1.00  0.00    -0.327 N 
HETATM   12  C   UNL     1       5.515   2.423   0.163  1.00  0.00     0.159 C 
HETATM   13  C   UNL     1       5.314  -0.009  -0.014  1.00  0.00     0.274 A 
HETATM   14  O   UNL     1       6.386  -0.115  -0.615  1.00  0.00    -0.266 OA
ENDBRANCH   1   7
BRANCH   4  15
HETATM   15  C   UNL     1       4.642  -6.044  -0.503  1.00  0.00     0.128 C 
BRANCH  15  16
HETATM   16  C   UNL     1       5.592  -7.231  -0.657  1.00  0.00     0.053 C 
BRANCH  16  17
HETATM   17  C   UNL     1       4.847  -8.543  -0.868  1.00  0.00    -0.082 A 
HETATM   18  C   UNL     1       4.967  -9.559  -0.002  1.00  0.00    -0.024 A 
HETATM   19  C   UNL     1       4.293 -10.883  -0.133  1.00  0.00     0.027 A 
HETATM   20  C   UNL     1       3.373 -11.086  -1.331  1.00  0.00     0.004 A 
HETATM   21  C   UNL     1       3.204  -9.940  -2.322  1.00  0.00     0.005 A 
HETATM   22  C   UNL     1       3.989  -8.647  -2.098  1.00  0.00     0.034 A 
ENDBRANCH  16  17
ENDBRANCH  15  16
ENDBRANCH   4  15
TORSDOF 4
