REMARK  5 active torsions:
REMARK  status: ('A' for Active; 'I' for Inactive)
REMARK    1  A    between atoms: O_2  and  C_3 
REMARK    2  A    between atoms: C_6  and  N_7 
REMARK       I    between atoms: N_7  and  C_8 
REMARK       I    between atoms: C_8  and  N_10 
REMARK    3  A    between atoms: N_10  and  C_11 
REMARK    4  A    between atoms: C_11  and  C_12 
REMARK    5  A    between atoms: C_12  and  N_13 
ROOT
HETATM    1  N   UNL     1       5.194   3.850   3.163  1.00  0.00    -0.308 N 
HETATM    2  C   UNL     1       6.218   3.560   4.036  1.00  0.00     0.320 C 
HETATM    3  O   UNL     1       6.618   2.439   4.319  1.00  0.00    -0.247 OA
HETATM    4  N   UNL     1       6.802   4.687   4.588  1.00  0.00    -0.341 N 
HETATM    5  H   UNL     1       5.040   4.820   2.933  1.00  0.00     0.170 HD
HETATM    6  H   UNL     1       6.817   5.512   4.007  1.00  0.00     0.164 HD
ENDROOT
BRANCH   1   7
HETATM    7  C   UNL     1       4.400   2.883   2.501  1.00  0.00     0.051 A 
HETATM    8  C   UNL     1       4.381   1.532   2.850  1.00  0.00     0.035 A 
HETATM    9  C   UNL     1       3.573   0.638   2.154  1.00  0.00     0.058 A 
HETATM   10  C   UNL     1       2.794   1.123   1.121  1.00  0.00     0.141 A 
HETATM   11  N   UNL     1       2.772   2.420   0.746  1.00  0.00    -0.345 N 
HETATM   12  C   UNL     1       3.570   3.265   1.449  1.00  0.00     0.119 A 
ATOM     13  HN  UNL     1       2.188   2.747  -0.023  1.00  0.00     0.167 HD
BRANCH  10  14
HETATM   14  O   UNL     1       1.994   0.194   0.488  1.00  0.00    -0.341 OA
HETATM   15  C   UNL     1       1.245   0.740  -0.589  1.00  0.00     0.211 C 
ENDBRANCH  10  14
ENDBRANCH   1   7
BRANCH   4  16
HETATM   16  C   UNL     1       7.966   4.429   5.422  1.00  0.00     0.154 C 
BRANCH  16  17
HETATM   17  C   UNL     1       8.594   5.668   6.073  1.00  0.00     0.292 C 
BRANCH  17  18
HETATM   18  N   UNL     1       9.706   5.340   6.989  1.00  0.00     0.094 N 
HETATM   19  C   UNL     1      10.281   6.558   7.604  1.00  0.00     0.298 C 
HETATM   20  C   UNL     1      11.159   7.382   6.645  1.00  0.00     0.198 C 
HETATM   21  O   UNL     1      12.200   6.588   6.061  1.00  0.00    -0.388 OA
HETATM   22  C   UNL     1      11.662   5.437   5.398  1.00  0.00     0.198 C 
HETATM   23  C   UNL     1      10.819   4.591   6.363  1.00  0.00     0.298 C 
ENDBRANCH  17  18
ENDBRANCH  16  17
ENDBRANCH   4  16
TORSDOF 5
