REMARK  2 active torsions:
REMARK  status: ('A' for Active; 'I' for Inactive)
REMARK    1  A    between atoms: C_2  and  C_4 
REMARK    2  A    between atoms: C_9  and  C_11 
ROOT
HETATM    1  C   UNL     1       3.094   1.370   1.094  1.00  0.00     0.143 A 
HETATM    2  N   UNL     1       3.844   1.169   2.155  1.00  0.00    -0.281 N 
ATOM      3  HN  UNL     1       4.200   0.273   2.489  1.00  0.00     0.189 HD
HETATM    4  N   UNL     1       4.055   2.403   2.726  1.00  0.00    -0.279 N 
ATOM      5  HN  UNL     1       4.608   2.601   3.560  1.00  0.00     0.189 HD
HETATM    6  C   UNL     1       3.404   3.281   1.987  1.00  0.00     0.171 A 
HETATM    7  O   UNL     1       2.784   2.693   0.905  1.00  0.00    -0.279 OA
ENDROOT
BRANCH   6   8
HETATM    8  C   UNL     1       3.354   4.770   2.133  1.00  0.00     0.225 C 
HETATM    9  C   UNL     1       3.417   5.251   3.605  1.00  0.00     0.310 C 
HETATM   10  N   UNL     1       2.154   5.104   4.356  1.00  0.00     0.088 N 
HETATM   11  C   UNL     1       1.060   5.708   3.586  1.00  0.00     0.295 C 
HETATM   12  H   UNL     1       2.239   5.568   5.260  1.00  0.00     0.316 HD
HETATM   13  C   UNL     1       0.989   5.133   2.165  1.00  0.00     0.199 C 
HETATM   14  O   UNL     1       2.213   5.330   1.443  1.00  0.00    -0.374 OA
ENDBRANCH   6   8
BRANCH   1  15
HETATM   15  C   UNL     1       2.570   0.359   0.132  1.00  0.00     0.054 C 
HETATM   16  C   UNL     1       1.051   0.429  -0.001  1.00  0.00     0.018 C 
HETATM   17  C   UNL     1       3.245   0.473  -1.232  1.00  0.00     0.018 C 
ENDBRANCH   1  15
TORSDOF 2
