REMARK  5 active torsions:
REMARK  status: ('A' for Active; 'I' for Inactive)
REMARK    1  A    between atoms: N_5  and  C_6 
REMARK    2  A    between atoms: C_6  and  C_7 
REMARK    3  A    between atoms: C_7  and  N_8 
REMARK       I    between atoms: N_8  and  C_9 
REMARK    4  A    between atoms: C_9  and  C_11 
REMARK    5  A    between atoms: C_11  and  C_12 
ROOT
HETATM    1  N   UNL     1       6.664   0.222  -4.051  1.00  0.00    -0.359 N 
HETATM    2  C   UNL     1       7.304  -0.734  -4.811  1.00  0.00     0.222 C 
HETATM    3  O   UNL     1       6.710  -1.635  -5.397  1.00  0.00    -0.273 OA
HETATM    4  H   UNL     1       7.200   0.979  -3.649  1.00  0.00     0.162 HD
ENDROOT
BRANCH   1   5
HETATM    5  C   UNL     1       5.216   0.275  -3.966  1.00  0.00     0.152 C 
BRANCH   5   6
HETATM    6  C   UNL     1       4.644  -0.687  -2.906  1.00  0.00     0.292 C 
BRANCH   6   7
HETATM    7  N   UNL     1       3.168  -0.700  -2.832  1.00  0.00     0.093 N 
HETATM    8  C   UNL     1       2.579   0.614  -2.507  1.00  0.00     0.302 C 
HETATM    9  C   UNL     1       2.815   1.074  -1.050  1.00  0.00     0.302 C 
HETATM   10  N   UNL     1       2.371   0.109  -0.025  1.00  0.00     0.087 N 
HETATM   11  C   UNL     1       0.913   0.104   0.095  1.00  0.00     0.310 C 
HETATM   12  C   UNL     1       2.886  -1.239  -0.349  1.00  0.00     0.302 C 
HETATM   13  C   UNL     1       2.702  -1.682  -1.825  1.00  0.00     0.302 C 
ENDBRANCH   6   7
ENDBRANCH   5   6
ENDBRANCH   1   5
BRANCH   2  14
HETATM   14  C   UNL     1       8.812  -0.578  -4.883  1.00  0.00     0.146 C 
BRANCH  14  15
HETATM   15  C   UNL     1       9.222   0.412  -5.916  1.00  0.00     0.006 A 
HETATM   16  C   UNL     1       9.020   0.362  -7.327  1.00  0.00     0.038 A 
HETATM   17  C   UNL     1       8.335  -0.667  -8.146  1.00  0.00     0.071 C 
HETATM   18  N   UNL     1       9.542   1.436  -7.931  1.00  0.00    -0.265 N 
HETATM   19  O   UNL     1      10.102   2.201  -6.931  1.00  0.00    -0.242 OA
ATOM     20  HN  UNL     1       9.528   1.646  -8.929  1.00  0.00     0.194 HD
HETATM   21  C   UNL     1       9.912   1.593  -5.733  1.00  0.00     0.081 A 
HETATM   22  C   UNL     1      10.465   2.292  -4.557  1.00  0.00     0.079 C 
ENDBRANCH  14  15
ENDBRANCH   2  14
TORSDOF 5
