REMARK  5 active torsions:
REMARK  status: ('A' for Active; 'I' for Inactive)
REMARK    1  A    between atoms: C_2  and  C_3 
REMARK       I    between atoms: C_2  and  N_15 
REMARK    2  A    between atoms: C_3  and  N_4 
REMARK    3  A    between atoms: N_15  and  C_16 
REMARK    4  A    between atoms: C_16  and  C_17 
REMARK    5  A    between atoms: C_17  and  C_18 
ROOT
HETATM    1  O   UNL     1       1.880  -1.004   0.041  1.00  0.00    -0.272 OA
HETATM    2  C   UNL     1       2.401   0.109   0.038  1.00  0.00     0.236 C 
HETATM    3  N   UNL     1       2.286   0.983   1.105  1.00  0.00    -0.359 N 
HETATM    4  H   UNL     1       2.524   1.960   0.957  1.00  0.00     0.162 HD
ENDROOT
BRANCH   2   5
HETATM    5  C   UNL     1       3.115   0.676  -1.197  1.00  0.00     0.237 C 
BRANCH   5   6
HETATM    6  N   UNL     1       2.085   1.232  -2.053  1.00  0.00    -0.279 N 
HETATM    7  C   UNL     1       1.459   0.533  -3.041  1.00  0.00     0.232 C 
HETATM    8  O   UNL     1       1.790  -0.559  -3.477  1.00  0.00    -0.272 OA
HETATM    9  C   UNL     1       0.242   1.318  -3.481  1.00  0.00     0.095 C 
HETATM   10  C   UNL     1      -0.016   1.237  -4.983  1.00  0.00     0.041 C 
HETATM   11  C   UNL     1       0.427   2.692  -2.827  1.00  0.00     0.095 C 
HETATM   12  C   UNL     1       0.164   2.507  -5.746  1.00  0.00    -0.030 C 
HETATM   13  C   UNL     1       0.375   3.700  -5.185  1.00  0.00    -0.030 C 
HETATM   14  C   UNL     1       0.462   3.936  -3.714  1.00  0.00     0.041 C 
HETATM   15  C   UNL     1       1.673   2.527  -1.987  1.00  0.00     0.232 C 
HETATM   16  O   UNL     1       2.195   3.403  -1.312  1.00  0.00    -0.272 OA
ENDBRANCH   5   6
ENDBRANCH   2   5
BRANCH   3  17
HETATM   17  C   UNL     1       1.514   0.610   2.281  1.00  0.00     0.128 C 
BRANCH  17  18
HETATM   18  C   UNL     1       1.448   1.721   3.333  1.00  0.00     0.076 C 
BRANCH  18  19
HETATM   19  C   UNL     1       0.693   1.283   4.565  1.00  0.00     0.010 A 
HETATM   20  C   UNL     1       1.361   0.687   5.632  1.00  0.00     0.025 A 
HETATM   21  C   UNL     1       0.627   0.282   6.748  1.00  0.00     0.003 A 
HETATM   22  C   UNL     1      -0.746   0.482   6.768  1.00  0.00     0.017 A 
HETATM   23  C   UNL     1      -1.332   1.079   5.664  1.00  0.00     0.088 A 
HETATM   24  N   UNL     1      -0.647   1.480   4.570  1.00  0.00    -0.369 N 
ATOM     25  HN  UNL     1      -1.121   1.914   3.778  1.00  0.00     0.165 HD
ENDBRANCH  18  19
ENDBRANCH  17  18
ENDBRANCH   3  17
TORSDOF 5
