REMARK  6 active torsions:
REMARK  status: ('A' for Active; 'I' for Inactive)
REMARK    1  A    between atoms: C_2  and  N_4 
REMARK    2  A    between atoms: N_3  and  C_15 
REMARK    3  A    between atoms: C_9  and  C_10 
REMARK    4  A    between atoms: C_15  and  C_16 
REMARK    5  A    between atoms: C_16  and  O_24 
REMARK    6  A    between atoms: C_18  and  O_27 
ROOT
HETATM    1  C   UNL     1      -0.807  -0.629   0.968  1.00  0.00     0.122 A 
HETATM    2  C   UNL     1      -0.926  -1.526  -0.127  1.00  0.00     0.136 A 
HETATM    3  N   UNL     1      -0.787   1.357   1.894  1.00  0.00    -0.324 N 
HETATM    4  C   UNL     1      -0.784   0.730   0.682  1.00  0.00     0.140 A 
HETATM    5  N   UNL     1      -0.780  -0.813   2.344  1.00  0.00    -0.346 N 
ATOM      6  HN  UNL     1      -0.785  -1.700   2.847  1.00  0.00     0.167 HD
HETATM    7  C   UNL     1      -0.746   0.394   2.864  1.00  0.00     0.185 A 
HETATM    8  N   UNL     1      -0.918  -0.958  -1.371  1.00  0.00    -0.337 N 
ATOM      9  HN  UNL     1      -0.966  -1.548  -2.201  1.00  0.00     0.168 HD
HETATM   10  N   UNL     1      -0.793   1.308  -0.529  1.00  0.00    -0.336 N 
ATOM     11  HN  UNL     1      -0.763   2.315  -0.689  1.00  0.00     0.168 HD
HETATM   12  C   UNL     1      -0.847   0.385  -1.500  1.00  0.00     0.183 A 
ENDROOT
BRANCH   2  13
HETATM   13  N   UNL     1      -1.076  -2.907  -0.034  1.00  0.00    -0.356 N 
HETATM   14  C   UNL     1      -1.628  -3.538   1.188  1.00  0.00     0.116 C 
HETATM   15  C   UNL     1      -1.072  -4.990   1.242  1.00  0.00     0.193 C 
HETATM   16  O   UNL     1      -1.425  -5.733   0.064  1.00  0.00    -0.387 OA
HETATM   17  C   UNL     1      -0.809  -5.137  -1.087  1.00  0.00     0.187 C 
HETATM   18  C   UNL     1      -1.229  -3.672  -1.284  1.00  0.00     0.151 C 
BRANCH  14  19
HETATM   19  C   UNL     1      -3.186  -3.533   1.215  1.00  0.00     0.039 C 
HETATM   20  C   UNL     1      -3.871  -2.150   1.127  1.00  0.00     0.124 C 
HETATM   21  C   UNL     1      -5.046  -2.159   2.108  1.00  0.00     0.032 C 
HETATM   22  C   UNL     1      -5.172  -3.603   2.557  1.00  0.00     0.003 C 
HETATM   23  C   UNL     1      -3.739  -4.107   2.527  1.00  0.00     0.009 C 
BRANCH  20  24
HETATM   24  O   UNL     1      -4.390  -1.910  -0.177  1.00  0.00    -0.395 OA
HETATM   25  H   UNL     1      -3.745  -2.253  -0.818  1.00  0.00     0.210 HD
ENDBRANCH  20  24
ENDBRANCH  14  19
ENDBRANCH   2  13
BRANCH   3  26
HETATM   26  C   UNL     1      -0.815   2.787   2.123  1.00  0.00     0.171 C 
BRANCH  26  27
HETATM   27  C   UNL     1      -2.225   3.382   2.249  1.00  0.00     0.097 C 
HETATM   28  C   UNL     1      -3.133   3.237   1.041  1.00  0.00     0.068 C 
HETATM   29  C   UNL     1      -4.063   4.434   1.147  1.00  0.00     0.170 C 
HETATM   30  O   UNL     1      -3.400   5.438   1.921  1.00  0.00    -0.388 OA
HETATM   31  C   UNL     1      -2.149   4.906   2.383  1.00  0.00     0.207 C 
BRANCH  27  32
HETATM   32  O   UNL     1      -2.872   2.852   3.417  1.00  0.00    -0.386 OA
HETATM   33  H   UNL     1      -3.142   1.934   3.237  1.00  0.00     0.210 HD
ENDBRANCH  27  32
ENDBRANCH  26  27
ENDBRANCH   3  26
TORSDOF 6
