REMARK  5 active torsions:
REMARK  status: ('A' for Active; 'I' for Inactive)
REMARK    1  A    between atoms: N_8  and  C_9 
REMARK    2  A    between atoms: C_9  and  C_10 
REMARK    3  A    between atoms: C_10  and  O_11 
REMARK    4  A    between atoms: C_10  and  C_12 
REMARK    5  A    between atoms: C_12  and  N_13 
ROOT
HETATM    1  C   UNL     1       7.655   0.887   0.182  1.00  0.00     0.163 C 
ENDROOT
BRANCH   1   2
HETATM    2  N   UNL     1       6.535  -0.030   0.118  1.00  0.00    -0.339 N 
HETATM    3  C   UNL     1       5.934  -0.624   1.193  1.00  0.00     0.184 A 
HETATM    4  N   UNL     1       4.915  -1.368   0.827  1.00  0.00    -0.350 N 
HETATM    5  C   UNL     1       4.880  -1.282  -0.543  1.00  0.00     0.060 A 
ATOM      6  HN  UNL     1       4.285  -1.896   1.431  1.00  0.00     0.166 HD
HETATM    7  C   UNL     1       3.992  -1.878  -1.454  1.00  0.00     0.039 A 
HETATM    8  C   UNL     1       5.901  -0.471  -1.020  1.00  0.00     0.062 A 
HETATM    9  C   UNL     1       4.147  -1.641  -2.833  1.00  0.00    -0.054 A 
HETATM   10  C   UNL     1       3.162  -2.265  -3.786  1.00  0.00     0.049 C 
HETATM   11  C   UNL     1       5.203  -0.827  -3.296  1.00  0.00    -0.054 A 
HETATM   12  C   UNL     1       6.101  -0.235  -2.386  1.00  0.00     0.039 A 
HETATM   13  C   UNL     1       5.388  -0.562  -4.768  1.00  0.00     0.049 C 
ENDBRANCH   1   2
BRANCH   1  14
HETATM   14  C   UNL     1       7.261   2.378   0.238  1.00  0.00     0.164 C 
BRANCH  14  15
HETATM   15  O   UNL     1       6.548   2.775  -0.939  1.00  0.00    -0.392 OA
HETATM   16  H   UNL     1       5.729   2.246  -0.996  1.00  0.00     0.210 HD
ENDBRANCH  14  15
BRANCH  14  17
HETATM   17  C   UNL     1       6.475   2.795   1.506  1.00  0.00     0.306 C 
BRANCH  17  18
HETATM   18  N   UNL     1       7.148   2.425   2.756  1.00  0.00     0.101 N 
HETATM   19  C   UNL     1       8.390   3.180   3.007  1.00  0.00     0.292 C 
HETATM   20  C   UNL     1       9.126   2.499   4.167  1.00  0.00     0.152 C 
HETATM   21  N   UNL     1       8.290   2.321   5.335  1.00  0.00    -0.358 N 
HETATM   22  C   UNL     1       6.932   2.135   5.227  1.00  0.00     0.246 C 
HETATM   23  H   UNL     1       8.691   1.920   6.175  1.00  0.00     0.162 HD
HETATM   24  O   UNL     1       6.296   1.691   6.183  1.00  0.00    -0.272 OA
HETATM   25  C   UNL     1       6.257   2.616   3.930  1.00  0.00     0.374 C 
ENDBRANCH  17  18
ENDBRANCH  14  17
ENDBRANCH   1  14
TORSDOF 5
