REMARK  6 active torsions:
REMARK  status: ('A' for Active; 'I' for Inactive)
REMARK    1  A    between atoms: C_2  and  N_4 
REMARK       I    between atoms: N_4  and  C_5 
REMARK    2  A    between atoms: C_5  and  C_7 
REMARK    3  A    between atoms: C_7  and  N_8 
REMARK    4  A    between atoms: C_11  and  C_12 
REMARK    5  A    between atoms: C_12  and  N_13 
REMARK    6  A    between atoms: N_17  and  C_18 
ROOT
HETATM    1  N   UNL     1       6.341   2.432  -1.921  1.00  0.00    -0.256 N 
HETATM    2  C   UNL     1       6.997   1.215  -2.055  1.00  0.00     0.273 A 
HETATM    3  O   UNL     1       6.421   0.155  -2.293  1.00  0.00    -0.266 OA
HETATM    4  C   UNL     1       8.465   1.257  -1.933  1.00  0.00     0.110 A 
HETATM    5  C   UNL     1       9.076   2.438  -1.821  1.00  0.00     0.123 A 
HETATM    6  N   UNL     1       8.378   3.625  -1.783  1.00  0.00    -0.303 N 
HETATM    7  C   UNL     1       6.977   3.672  -1.832  1.00  0.00     0.332 A 
HETATM    8  O   UNL     1       6.348   4.732  -1.836  1.00  0.00    -0.246 OA
ENDROOT
BRANCH   1   9
HETATM    9  C   UNL     1       4.885   2.404  -1.883  1.00  0.00     0.239 C 
BRANCH   9  10
HETATM   10  C   UNL     1       4.403   2.094  -0.459  1.00  0.00     0.236 C 
HETATM   11  N   UNL     1       3.024   2.020  -0.343  1.00  0.00    -0.356 N 
HETATM   12  H   UNL     1       2.466   1.986  -1.187  1.00  0.00     0.162 HD
HETATM   13  O   UNL     1       5.166   1.939   0.491  1.00  0.00    -0.272 OA
BRANCH  11  14
HETATM   14  C   UNL     1       2.371   1.679   0.916  1.00  0.00     0.076 C 
HETATM   15  C   UNL     1       0.997   2.340   0.991  1.00  0.00     0.032 C 
HETATM   16  C   UNL     1       2.245   0.165   1.071  1.00  0.00     0.032 C 
ENDBRANCH  11  14
ENDBRANCH   9  10
ENDBRANCH   1   9
BRANCH   4  17
HETATM   17  C   UNL     1       9.277  -0.028  -1.928  1.00  0.00    -0.030 C 
BRANCH  17  18
HETATM   18  N   UNL     1       9.951  -1.094  -1.923  1.00  0.00    -0.365 N 
ATOM     19  HN2 UNL     1       9.418  -0.225  -1.892  1.00  0.00     0.165 HD
ATOM     20  HN1 UNL     1      10.496  -1.956  -1.920  1.00  0.00     0.165 HD
ENDBRANCH  17  18
ENDBRANCH   4  17
BRANCH   6  21
HETATM   21  C   UNL     1       9.151   4.849  -1.785  1.00  0.00     0.094 A 
HETATM   22  C   UNL     1      10.209   5.147  -0.746  1.00  0.00     0.028 A 
HETATM   23  C   UNL     1       8.935   5.932  -0.758  1.00  0.00     0.028 A 
ENDBRANCH   6  21
TORSDOF 6
