REMARK  7 active torsions:
REMARK  status: ('A' for Active; 'I' for Inactive)
REMARK    1  A    between atoms: O_2  and  C_3 
REMARK    2  A    between atoms: C_3  and  C_4 
REMARK    3  A    between atoms: C_4  and  N_5 
REMARK    4  A    between atoms: C_6  and  S_7 
REMARK    5  A    between atoms: S_7  and  C_8 
REMARK    6  A    between atoms: C_8  and  C_9 
REMARK       I    between atoms: C_9  and  N_11 
REMARK    7  A    between atoms: N_11  and  C_12 
ROOT
HETATM    1  N   UNL     1       4.833  -2.317  -1.325  1.00  0.00    -0.324 N 
HETATM    2  C   UNL     1       5.601  -2.367  -2.463  1.00  0.00     0.148 A 
HETATM    3  N   UNL     1       5.769  -3.595  -2.892  1.00  0.00    -0.335 N 
ATOM      4  HN  UNL     1       6.302  -3.899  -3.707  1.00  0.00     0.168 HD
HETATM    5  C   UNL     1       5.071  -4.387  -2.007  1.00  0.00     0.061 A 
HETATM    6  C   UNL     1       4.896  -5.780  -1.991  1.00  0.00     0.032 A 
HETATM    7  C   UNL     1       4.129  -6.358  -0.969  1.00  0.00     0.002 A 
HETATM    8  C   UNL     1       3.543  -5.567   0.017  1.00  0.00     0.002 A 
HETATM    9  C   UNL     1       3.696  -4.178   0.012  1.00  0.00     0.032 A 
HETATM   10  C   UNL     1       4.474  -3.617  -1.013  1.00  0.00     0.063 A 
ENDROOT
BRANCH   2  11
HETATM   11  S   UNL     1       6.296  -0.960  -3.208  1.00  0.00    -0.084 SA
BRANCH  11  12
HETATM   12  C   UNL     1       6.547  -1.535  -4.926  1.00  0.00     0.185 C 
BRANCH  12  13
HETATM   13  C   UNL     1       7.171  -0.448  -5.809  1.00  0.00     0.233 C 
HETATM   14  O   UNL     1       6.856  -0.363  -6.995  1.00  0.00    -0.272 OA
HETATM   15  N   UNL     1       8.128   0.320  -5.165  1.00  0.00    -0.311 N 
HETATM   16  H   UNL     1       8.270   0.158  -4.179  1.00  0.00     0.170 HD
BRANCH  15  17
HETATM   17  C   UNL     1       8.818   1.379  -5.724  1.00  0.00     0.130 A 
HETATM   18  C   UNL     1       9.717   2.195  -4.989  1.00  0.00     0.084 A 
HETATM   19  C   UNL     1      10.149   3.138  -5.886  1.00  0.00     0.076 A 
HETATM   20  C   UNL     1      11.050   4.302  -5.814  1.00  0.00     0.079 C 
HETATM   21  O   UNL     1       9.572   2.896  -7.092  1.00  0.00    -0.241 OA
HETATM   22  N   UNL     1       8.742   1.797  -6.990  1.00  0.00    -0.245 N 
ATOM     23  HN  UNL     1       8.181   1.385  -7.736  1.00  0.00     0.196 HD
ENDBRANCH  15  17
ENDBRANCH  12  13
ENDBRANCH  11  12
ENDBRANCH   2  11
BRANCH   1  24
HETATM   24  C   UNL     1       4.367  -1.155  -0.598  1.00  0.00     0.157 C 
BRANCH  24  25
HETATM   25  C   UNL     1       4.903  -1.061   0.829  1.00  0.00     0.187 C 
BRANCH  25  26
HETATM   26  O   UNL     1       4.287   0.058   1.475  1.00  0.00    -0.394 OA
HETATM   27  C   UNL     1       4.651   0.136   2.849  1.00  0.00     0.201 C 
ENDBRANCH  25  26
ENDBRANCH  24  25
ENDBRANCH   1  24
TORSDOF 7
