REMARK  7 active torsions:
REMARK  status: ('A' for Active; 'I' for Inactive)
REMARK    1  A    between atoms: C_2  and  C_4 
REMARK    2  A    between atoms: C_4  and  O_5 
REMARK    3  A    between atoms: O_5  and  C_6 
REMARK    4  A    between atoms: C_6  and  C_8 
REMARK       I    between atoms: C_8  and  N_10 
REMARK    5  A    between atoms: N_10  and  C_11 
REMARK    6  A    between atoms: C_11  and  C_12 
REMARK    7  A    between atoms: C_18  and  N_19 
ROOT
HETATM    1  C   UNL     1       8.909   3.461   4.193  1.00  0.00     0.004 A 
HETATM    2  C   UNL     1       8.142   3.466   5.371  1.00  0.00     0.014 A 
HETATM    3  C   UNL     1       8.584   4.155   6.486  1.00  0.00     0.018 A 
HETATM    4  C   UNL     1       9.794   4.811   6.393  1.00  0.00     0.089 A 
HETATM    5  N   UNL     1      10.573   4.808   5.286  1.00  0.00    -0.352 N 
ATOM      6  HN  UNL     1      11.458   5.315   5.272  1.00  0.00     0.166 HD
HETATM    7  C   UNL     1      10.156   4.119   4.198  1.00  0.00     0.111 A 
ENDROOT
BRANCH   1   8
HETATM    8  C   UNL     1       8.396   2.757   2.962  1.00  0.00     0.165 C 
BRANCH   8   9
HETATM    9  N   UNL     1       6.965   2.642   2.898  1.00  0.00    -0.355 N 
HETATM   10  C   UNL     1       6.310   1.434   2.894  1.00  0.00     0.246 C 
HETATM   11  O   UNL     1       6.875   0.350   3.011  1.00  0.00    -0.271 OA
HETATM   12  H   UNL     1       6.393   3.473   2.755  1.00  0.00     0.162 HD
BRANCH  10  13
HETATM   13  C   UNL     1       4.788   1.570   2.737  1.00  0.00     0.209 C 
HETATM   14  C   UNL     1       4.348   0.746   1.534  1.00  0.00     0.049 C 
BRANCH  13  15
HETATM   15  O   UNL     1       4.444   2.956   2.578  1.00  0.00    -0.377 OA
BRANCH  15  16
HETATM   16  C   UNL     1       3.043   3.201   2.656  1.00  0.00     0.172 C 
BRANCH  16  17
HETATM   17  C   UNL     1       2.783   4.710   2.586  1.00  0.00     0.001 C 
HETATM   18  C   UNL     1       1.279   4.970   2.532  1.00  0.00     0.011 C 
HETATM   19  C   UNL     1       3.417   5.450   3.765  1.00  0.00     0.011 C 
ENDBRANCH  16  17
ENDBRANCH  15  16
ENDBRANCH  13  15
ENDBRANCH  10  13
ENDBRANCH   8   9
ENDBRANCH   1   8
BRANCH   7  20
HETATM   20  N   UNL     1      10.931   4.175   3.056  1.00  0.00    -0.363 N 
HETATM   21  C   UNL     1      11.864   5.293   2.865  1.00  0.00     0.150 C 
HETATM   22  C   UNL     1      11.984   5.516   1.340  1.00  0.00     0.187 C 
HETATM   23  O   UNL     1      12.387   4.321   0.636  1.00  0.00    -0.388 OA
HETATM   24  C   UNL     1      11.498   3.223   0.923  1.00  0.00     0.187 C 
HETATM   25  C   UNL     1      11.449   2.949   2.435  1.00  0.00     0.150 C 
ENDBRANCH   7  20
TORSDOF 7
