REMARK  4 active torsions:
REMARK  status: ('A' for Active; 'I' for Inactive)
REMARK    1  A    between atoms: C_2  and  O_3 
REMARK    2  A    between atoms: O_3  and  C_4 
REMARK    3  A    between atoms: C_6  and  N_7 
REMARK       I    between atoms: N_7  and  C_8 
REMARK       I    between atoms: C_8  and  N_10 
REMARK    4  A    between atoms: N_10  and  C_11 
ROOT
HETATM    1  N   UNL     1       6.329   3.555  -1.489  1.00  0.00    -0.337 N 
HETATM    2  C   UNL     1       6.382   4.598  -2.392  1.00  0.00     0.322 C 
HETATM    3  O   UNL     1       5.415   4.949  -3.058  1.00  0.00    -0.247 OA
HETATM    4  N   UNL     1       7.648   5.122  -2.489  1.00  0.00    -0.293 N 
HETATM    5  H   UNL     1       6.941   3.653  -0.689  1.00  0.00     0.164 HD
HETATM    6  H   UNL     1       8.418   4.486  -2.348  1.00  0.00     0.172 HD
ENDROOT
BRANCH   1   7
HETATM    7  C   UNL     1       5.122   2.708  -1.400  1.00  0.00     0.099 C 
HETATM    8  C   UNL     1       5.101   1.695  -0.226  1.00  0.00     0.059 C 
HETATM    9  C   UNL     1       4.460   0.663  -1.207  1.00  0.00     0.133 C 
HETATM   10  C   UNL     1       5.086   1.506  -2.312  1.00  0.00     0.006 C 
HETATM   11  C   UNL     1       6.350   0.936  -2.940  1.00  0.00     0.014 C 
HETATM   12  C   UNL     1       4.457   1.623  -3.680  1.00  0.00     0.014 C 
HETATM   13  C   UNL     1       5.434   0.500  -4.116  1.00  0.00     0.002 C 
BRANCH   9  14
HETATM   14  O   UNL     1       3.012   0.610  -1.144  1.00  0.00    -0.385 OA
BRANCH  14  15
HETATM   15  C   UNL     1       2.380  -0.450  -1.859  1.00  0.00     0.163 C 
HETATM   16  C   UNL     1       0.881  -0.289  -1.733  1.00  0.00     0.033 C 
ENDBRANCH  14  15
ENDBRANCH   9  14
ENDBRANCH   1   7
BRANCH   4  17
HETATM   17  C   UNL     1       7.937   6.164  -3.346  1.00  0.00     0.132 A 
HETATM   18  C   UNL     1       7.110   7.246  -3.719  1.00  0.00     0.084 A 
HETATM   19  C   UNL     1       7.871   7.970  -4.601  1.00  0.00     0.076 A 
HETATM   20  C   UNL     1       7.655   9.206  -5.370  1.00  0.00     0.079 C 
HETATM   21  O   UNL     1       9.080   7.365  -4.747  1.00  0.00    -0.241 OA
HETATM   22  N   UNL     1       9.139   6.253  -3.923  1.00  0.00    -0.245 N 
ATOM     23  HN  UNL     1       9.935   5.631  -3.785  1.00  0.00     0.196 HD
ENDBRANCH   4  17
TORSDOF 4
