REMARK  7 active torsions:
REMARK  status: ('A' for Active; 'I' for Inactive)
REMARK    1  A    between atoms: C_2  and  N_4 
REMARK    2  A    between atoms: N_3  and  C_15 
REMARK    3  A    between atoms: C_9  and  C_10 
REMARK       I    between atoms: C_9  and  N_16 
REMARK    4  A    between atoms: C_15  and  C_18 
REMARK    5  A    between atoms: N_16  and  C_17 
REMARK    6  A    between atoms: C_18  and  C_23 
REMARK    7  A    between atoms: C_18  and  O_26 
ROOT
HETATM    1  C   UNL     1       0.419  -0.775  -0.188  1.00  0.00     0.122 A 
HETATM    2  C   UNL     1      -0.774  -1.535  -0.107  1.00  0.00     0.136 A 
HETATM    3  N   UNL     1       1.578   1.075  -0.329  1.00  0.00    -0.325 N 
HETATM    4  C   UNL     1       0.293   0.599  -0.342  1.00  0.00     0.140 A 
HETATM    5  N   UNL     1       1.752  -1.134  -0.130  1.00  0.00    -0.346 N 
ATOM      6  HN  UNL     1       2.138  -2.073  -0.034  1.00  0.00     0.167 HD
HETATM    7  C   UNL     1       2.415  -0.004  -0.226  1.00  0.00     0.185 A 
HETATM    8  N   UNL     1      -1.948  -0.851  -0.262  1.00  0.00    -0.337 N 
ATOM      9  HN  UNL     1      -2.837  -1.350  -0.278  1.00  0.00     0.168 HD
HETATM   10  N   UNL     1      -0.844   1.306  -0.438  1.00  0.00    -0.336 N 
ATOM     11  HN  UNL     1      -0.890   2.321  -0.532  1.00  0.00     0.168 HD
HETATM   12  C   UNL     1      -1.916   0.493  -0.393  1.00  0.00     0.183 A 
ENDROOT
BRANCH   2  13
HETATM   13  N   UNL     1      -0.803  -2.912   0.078  1.00  0.00    -0.352 N 
HETATM   14  C   UNL     1      -2.097  -3.624   0.167  1.00  0.00     0.178 C 
HETATM   15  C   UNL     1      -1.785  -4.871   1.024  1.00  0.00     0.037 C 
HETATM   16  C   UNL     1      -0.269  -4.905   1.156  1.00  0.00     0.022 C 
HETATM   17  C   UNL     1       0.120  -3.440   1.082  1.00  0.00     0.125 C 
BRANCH  14  18
HETATM   18  C   UNL     1      -2.675  -3.969  -1.225  1.00  0.00     0.240 C 
HETATM   19  N   UNL     1      -3.028  -2.852  -1.965  1.00  0.00    -0.355 N 
HETATM   20  H   UNL     1      -2.749  -1.948  -1.580  1.00  0.00     0.162 HD
HETATM   21  O   UNL     1      -2.887  -5.114  -1.610  1.00  0.00    -0.271 OA
BRANCH  19  22
HETATM   22  C   UNL     1      -3.686  -2.906  -3.230  1.00  0.00     0.084 A 
HETATM   23  C   UNL     1      -3.939  -1.666  -4.047  1.00  0.00     0.027 A 
HETATM   24  C   UNL     1      -5.081  -2.358  -3.365  1.00  0.00     0.027 A 
ENDBRANCH  19  22
ENDBRANCH  14  18
ENDBRANCH   2  13
BRANCH   3  25
HETATM   25  C   UNL     1       1.982   2.464  -0.210  1.00  0.00     0.165 C 
BRANCH  25  26
HETATM   26  C   UNL     1       2.789   3.004  -1.398  1.00  0.00     0.165 C 
BRANCH  26  27
HETATM   27  C   UNL     1       3.240   4.463  -1.208  1.00  0.00     0.151 C 
HETATM   28  O   UNL     1       4.047   4.575  -0.013  1.00  0.00    -0.383 OA
HETATM   29  C   UNL     1       3.912   5.919   0.485  1.00  0.00     0.168 C 
HETATM   30  C   UNL     1       2.953   6.648  -0.438  1.00  0.00     0.029 C 
HETATM   31  C   UNL     1       2.164   5.519  -1.060  1.00  0.00     0.036 C 
ENDBRANCH  26  27
BRANCH  26  32
HETATM   32  O   UNL     1       3.986   2.221  -1.572  1.00  0.00    -0.391 OA
HETATM   33  H   UNL     1       4.687   2.657  -1.047  1.00  0.00     0.210 HD
ENDBRANCH  26  32
ENDBRANCH  25  26
ENDBRANCH   3  25
TORSDOF 7
