REMARK  5 active torsions:
REMARK  status: ('A' for Active; 'I' for Inactive)
REMARK    1  A    between atoms: S_2  and  N_5 
REMARK    2  A    between atoms: C_11  and  N_13 
REMARK    3  A    between atoms: N_13  and  C_14 
REMARK    4  A    between atoms: C_14  and  C_15 
REMARK    5  A    between atoms: C_15  and  C_16 
ROOT
HETATM    1  N   UNL     1       3.015   0.227  -1.275  1.00  0.00    -0.304 N 
HETATM    2  C   UNL     1       2.135   0.708  -2.343  1.00  0.00     0.135 C 
HETATM    3  C   UNL     1       1.041  -0.308  -2.613  1.00  0.00     0.021 C 
HETATM    4  C   UNL     1       1.515  -1.761  -2.750  1.00  0.00     0.012 C 
HETATM    5  C   UNL     1       2.981  -2.051  -2.403  1.00  0.00     0.181 A 
HETATM    6  C   UNL     1       3.760  -1.001  -1.600  1.00  0.00     0.139 A 
HETATM    7  C   UNL     1       3.361  -3.402  -1.781  1.00  0.00     0.162 A 
HETATM    8  O   UNL     1       4.510  -3.827  -1.948  1.00  0.00    -0.282 OA
ENDROOT
BRANCH   7   9
HETATM    9  N   UNL     1       2.491  -4.037  -0.922  1.00  0.00    -0.367 N 
HETATM   10  H   UNL     1       1.583  -3.635  -0.723  1.00  0.00     0.162 HD
BRANCH   9  11
HETATM   11  C   UNL     1       3.047  -4.991   0.038  1.00  0.00     0.127 C 
BRANCH  11  12
HETATM   12  C   UNL     1       2.023  -5.806   0.833  1.00  0.00     0.059 C 
BRANCH  12  13
HETATM   13  C   UNL     1       1.144  -5.001   1.752  1.00  0.00    -0.041 A 
HETATM   14  C   UNL     1       1.658  -4.257   2.817  1.00  0.00     0.010 A 
HETATM   15  C   UNL     1       0.794  -3.538   3.640  1.00  0.00     0.018 A 
HETATM   16  C   UNL     1      -0.564  -3.594   3.374  1.00  0.00     0.087 A 
HETATM   17  N   UNL     1      -1.101  -4.318   2.370  1.00  0.00    -0.375 N 
HETATM   18  C   UNL     1      -0.239  -5.006   1.590  1.00  0.00     0.094 A 
ATOM     19  HN  UNL     1      -2.108  -4.344   2.208  1.00  0.00     0.164 HD
ENDBRANCH  12  13
ENDBRANCH  11  12
ENDBRANCH   9  11
ENDBRANCH   7   9
BRANCH   1  20
HETATM   20  S   UNL     1       2.659   0.551   0.345  1.00  0.00     0.225 S 
HETATM   21  C   UNL     1       3.091   2.273   0.478  1.00  0.00     0.186 C 
HETATM   22  O   UNL     1       3.579  -0.177   1.185  1.00  0.00    -0.206 OA
HETATM   23  O   UNL     1       1.225   0.434   0.510  1.00  0.00    -0.206 OA
ENDBRANCH   1  20
TORSDOF 5
