REMARK  5 active torsions:
REMARK  status: ('A' for Active; 'I' for Inactive)
REMARK    1  A    between atoms: C_2  and  N_3 
REMARK    2  A    between atoms: C_6  and  C_7 
REMARK    3  A    between atoms: C_7  and  N_8 
REMARK       I    between atoms: N_8  and  C_9 
REMARK       I    between atoms: C_9  and  N_11 
REMARK    4  A    between atoms: N_11  and  C_12 
REMARK    5  A    between atoms: C_18  and  O_19 
ROOT
HETATM    1  N   UNL     1       5.758   4.835  -0.157  1.00  0.00    -0.342 N 
HETATM    2  C   UNL     1       6.940   5.440  -0.522  1.00  0.00     0.320 C 
HETATM    3  O   UNL     1       8.004   4.832  -0.507  1.00  0.00    -0.247 OA
HETATM    4  N   UNL     1       6.781   6.764  -0.895  1.00  0.00    -0.305 N 
HETATM    5  H   UNL     1       4.998   5.442   0.105  1.00  0.00     0.164 HD
HETATM    6  H   UNL     1       5.904   7.028  -1.323  1.00  0.00     0.171 HD
ENDROOT
BRANCH   1   7
HETATM    7  C   UNL     1       5.764   3.479   0.397  1.00  0.00     0.129 C 
BRANCH   7   8
HETATM    8  C   UNL     1       5.042   2.466  -0.510  1.00  0.00     0.007 C 
HETATM    9  C   UNL     1       3.542   2.770  -0.641  1.00  0.00     0.036 C 
HETATM   10  C   UNL     1       2.759   2.375   0.614  1.00  0.00     0.272 C 
HETATM   11  N   UNL     1       2.931   0.967   0.995  1.00  0.00     0.088 N 
HETATM   12  C   UNL     1       4.360   0.673   1.198  1.00  0.00     0.272 C 
HETATM   13  C   UNL     1       5.242   1.021  -0.009  1.00  0.00     0.036 C 
BRANCH  11  14
HETATM   14  C   UNL     1       2.313   0.008   0.064  1.00  0.00     0.268 C 
HETATM   15  C   UNL     1       0.801   0.165  -0.075  1.00  0.00     0.037 C 
ENDBRANCH  11  14
ENDBRANCH   7   8
ENDBRANCH   1   7
BRANCH   4  16
HETATM   16  C   UNL     1       7.874   7.658  -1.104  1.00  0.00     0.087 A 
HETATM   17  C   UNL     1       9.118   7.438  -0.512  1.00  0.00     0.035 A 
HETATM   18  C   UNL     1      10.190   8.291  -0.760  1.00  0.00     0.019 A 
HETATM   19  C   UNL     1       9.976   9.380  -1.578  1.00  0.00     0.090 A 
HETATM   20  N   UNL     1       8.782   9.671  -2.130  1.00  0.00    -0.345 N 
HETATM   21  C   UNL     1       7.753   8.817  -1.888  1.00  0.00     0.169 A 
ATOM     22  HN  UNL     1       8.655  10.502  -2.708  1.00  0.00     0.167 HD
BRANCH  21  23
HETATM   23  O   UNL     1       6.528   9.104  -2.469  1.00  0.00    -0.339 OA
HETATM   24  C   UNL     1       6.587  10.289  -3.273  1.00  0.00     0.211 C 
ENDBRANCH  21  23
ENDBRANCH   4  16
TORSDOF 5
