REMARK  7 active torsions:
REMARK  status: ('A' for Active; 'I' for Inactive)
REMARK    1  A    between atoms: C_2  and  N_4 
REMARK       I    between atoms: N_4  and  C_5 
REMARK    2  A    between atoms: C_5  and  C_7 
REMARK    3  A    between atoms: C_7  and  C_8 
REMARK    4  A    between atoms: C_8  and  N_9 
REMARK    5  A    between atoms: N_9  and  C_10 
REMARK    6  A    between atoms: C_10  and  C_11 
REMARK    7  A    between atoms: C_11  and  N_12 
ROOT
HETATM    1  N   UNL     1       6.858   4.287   1.657  1.00  0.00     0.085 N 
HETATM    2  H   UNL     1       6.520   5.053   1.073  1.00  0.00     0.315 HD
ENDROOT
BRANCH   1   3
HETATM    3  C   UNL     1       6.381   3.011   1.100  1.00  0.00     0.278 C 
BRANCH   3   4
HETATM    4  C   UNL     1       4.859   2.858   1.078  1.00  0.00     0.132 C 
BRANCH   4   5
HETATM    5  C   UNL     1       4.456   1.497   0.555  1.00  0.00     0.219 C 
HETATM    6  N   UNL     1       3.087   1.333   0.485  1.00  0.00    -0.357 N 
HETATM    7  H   UNL     1       2.497   2.015   0.947  1.00  0.00     0.162 HD
HETATM    8  O   UNL     1       5.259   0.630   0.229  1.00  0.00    -0.274 OA
BRANCH   6   9
HETATM    9  C   UNL     1       2.496   0.062   0.098  1.00  0.00     0.076 C 
HETATM   10  C   UNL     1       2.330  -0.847   1.313  1.00  0.00     0.032 C 
HETATM   11  C   UNL     1       1.161   0.299  -0.597  1.00  0.00     0.032 C 
ENDBRANCH   6   9
ENDBRANCH   4   5
ENDBRANCH   3   4
ENDBRANCH   1   3
BRANCH   1  12
HETATM   12  C   UNL     1       6.442   4.530   3.049  1.00  0.00     0.291 C 
BRANCH  12  13
HETATM   13  C   UNL     1       6.895   3.455   4.043  1.00  0.00     0.178 C 
BRANCH  13  14
HETATM   14  N   UNL     1       6.389   3.698   5.379  1.00  0.00    -0.302 N 
HETATM   15  C   UNL     1       7.124   3.890   6.513  1.00  0.00     0.111 A 
HETATM   16  C   UNL     1       6.215   4.001   7.539  1.00  0.00     0.037 A 
HETATM   17  C   UNL     1       4.960   3.856   6.923  1.00  0.00     0.108 A 
HETATM   18  N   UNL     1       5.058   3.665   5.605  1.00  0.00    -0.310 N 
ATOM     19  HN  UNL     1       4.306   3.527   4.930  1.00  0.00     0.186 HD
ENDBRANCH  13  14
ENDBRANCH  12  13
ENDBRANCH   1  12
TORSDOF 7
