REMARK  5 active torsions:
REMARK  status: ('A' for Active; 'I' for Inactive)
REMARK    1  A    between atoms: C_2  and  N_3 
REMARK    2  A    between atoms: C_2  and  C_12 
REMARK    3  A    between atoms: N_3  and  C_4 
REMARK    4  A    between atoms: C_4  and  C_5 
REMARK    5  A    between atoms: C_5  and  N_6 
REMARK       I    between atoms: C_12  and  N_14 
ROOT
HETATM    1  C   UNL     1       0.996   0.105   0.178  1.00  0.00     0.053 C 
HETATM    2  C   UNL     1       2.517   0.146   0.037  1.00  0.00     0.307 C 
ENDROOT
BRANCH   2   3
HETATM    3  N   UNL     1       2.946   1.290  -0.799  1.00  0.00     0.098 N 
HETATM    4  H   UNL     1       3.963   1.385  -0.705  1.00  0.00     0.317 HD
BRANCH   3   5
HETATM    5  C   UNL     1       2.581   1.099  -2.210  1.00  0.00     0.292 C 
BRANCH   5   6
HETATM    6  C   UNL     1       3.103   2.226  -3.101  1.00  0.00     0.178 C 
BRANCH   6   7
HETATM    7  N   UNL     1       2.640   2.074  -4.469  1.00  0.00    -0.302 N 
HETATM    8  C   UNL     1       1.849   2.941  -5.169  1.00  0.00     0.111 A 
HETATM    9  C   UNL     1       1.668   2.375  -6.409  1.00  0.00     0.037 A 
HETATM   10  C   UNL     1       2.385   1.166  -6.357  1.00  0.00     0.108 A 
HETATM   11  N   UNL     1       2.983   0.980  -5.178  1.00  0.00    -0.310 N 
ATOM     12  HN  UNL     1       3.563   0.195  -4.883  1.00  0.00     0.186 HD
ENDBRANCH   6   7
ENDBRANCH   5   6
ENDBRANCH   3   5
ENDBRANCH   2   3
BRANCH   2  13
HETATM   13  C   UNL     1       3.197   0.208   1.433  1.00  0.00     0.253 C 
HETATM   14  O   UNL     1       3.677   1.255   1.883  1.00  0.00    -0.271 OA
HETATM   15  N   UNL     1       3.293  -0.991   2.139  1.00  0.00    -0.345 N 
HETATM   16  C   UNL     1       3.990  -1.045   3.428  1.00  0.00     0.157 C 
HETATM   17  C   UNL     1       2.637  -2.252   1.783  1.00  0.00     0.157 C 
HETATM   18  C   UNL     1       4.922  -2.276   3.490  1.00  0.00     0.136 C 
HETATM   19  C   UNL     1       5.520  -2.453   4.878  1.00  0.00     0.041 C 
HETATM   20  O   UNL     1       4.207  -3.490   3.170  1.00  0.00    -0.378 OA
HETATM   21  C   UNL     1       3.632  -3.416   1.856  1.00  0.00     0.136 C 
HETATM   22  C   UNL     1       2.921  -4.726   1.551  1.00  0.00     0.041 C 
ENDBRANCH   2  13
TORSDOF 5
