REMARK  6 active torsions:
REMARK  status: ('A' for Active; 'I' for Inactive)
REMARK    1  A    between atoms: C_2  and  C_3 
REMARK       I    between atoms: C_2  and  N_11 
REMARK    2  A    between atoms: C_3  and  N_4 
REMARK    3  A    between atoms: N_11  and  C_12 
REMARK    4  A    between atoms: C_12  and  C_13 
REMARK    5  A    between atoms: C_13  and  S_14 
REMARK    6  A    between atoms: S_14  and  C_15 
ROOT
HETATM    1  O   UNL     1       2.719  -0.020   1.146  1.00  0.00    -0.272 OA
HETATM    2  C   UNL     1       2.207  -0.490   0.133  1.00  0.00     0.235 C 
HETATM    3  N   UNL     1       2.936  -0.984  -0.929  1.00  0.00    -0.359 N 
HETATM    4  H   UNL     1       2.474  -0.977  -1.840  1.00  0.00     0.162 HD
ENDROOT
BRANCH   2   5
HETATM    5  C   UNL     1       0.692  -0.562  -0.061  1.00  0.00     0.234 C 
BRANCH   5   6
HETATM    6  N   UNL     1       0.140   0.680  -0.587  1.00  0.00    -0.316 N 
HETATM    7  C   UNL     1      -0.307   1.657   0.286  1.00  0.00     0.095 A 
HETATM    8  C   UNL     1      -0.880   2.779  -0.168  1.00  0.00     0.017 A 
HETATM    9  C   UNL     1      -1.042   2.982  -1.585  1.00  0.00     0.007 A 
HETATM   10  C   UNL     1      -0.589   2.072  -2.458  1.00  0.00     0.074 A 
HETATM   11  C   UNL     1       0.076   0.833  -1.970  1.00  0.00     0.247 A 
HETATM   12  O   UNL     1       0.517   0.015  -2.771  1.00  0.00    -0.268 OA
ENDBRANCH   5   6
ENDBRANCH   2   5
BRANCH   3  13
HETATM   13  C   UNL     1       4.389  -0.944  -0.941  1.00  0.00     0.132 C 
BRANCH  13  14
HETATM   14  C   UNL     1       4.994  -1.970  -1.906  1.00  0.00     0.094 C 
BRANCH  14  15
HETATM   15  S   UNL     1       4.456  -1.618  -3.616  1.00  0.00    -0.163 SA
BRANCH  15  16
HETATM   16  C   UNL     1       5.212  -3.019  -4.499  1.00  0.00     0.047 C 
HETATM   17  C   UNL     1       6.740  -3.067  -4.429  1.00  0.00     0.015 C 
HETATM   18  C   UNL     1       7.216  -3.530  -5.809  1.00  0.00     0.001 C 
HETATM   19  C   UNL     1       5.962  -3.789  -6.632  1.00  0.00     0.001 C 
HETATM   20  C   UNL     1       4.906  -2.905  -5.991  1.00  0.00     0.015 C 
ENDBRANCH  15  16
ENDBRANCH  14  15
ENDBRANCH  13  14
ENDBRANCH   3  13
TORSDOF 6
