REMARK  5 active torsions:
REMARK  status: ('A' for Active; 'I' for Inactive)
REMARK    1  A    between atoms: C_8  and  C_9 
REMARK    2  A    between atoms: C_8  and  N_12 
REMARK    3  A    between atoms: C_9  and  O_10 
REMARK       I    between atoms: N_12  and  C_13 
REMARK    4  A    between atoms: C_13  and  C_15 
REMARK    5  A    between atoms: C_15  and  C_16 
ROOT
HETATM    1  C   UNL     1       1.285   0.239   0.682  1.00  0.00     0.010 C 
HETATM    2  C   UNL     1       2.646   0.054   0.012  1.00  0.00    -0.015 C 
HETATM    3  C   UNL     1       2.936   1.103  -1.071  1.00  0.00     0.013 C 
HETATM    4  C   UNL     1       2.599   0.744  -2.536  1.00  0.00    -0.045 C 
HETATM    5  C   UNL     1       1.153   1.131  -2.900  1.00  0.00     0.015 C 
HETATM    6  C   UNL     1       3.494   1.628  -3.447  1.00  0.00     0.015 C 
HETATM    7  C   UNL     1       2.917  -0.742  -2.854  1.00  0.00     0.042 C 
HETATM    8  C   UNL     1       2.456  -1.817  -1.825  1.00  0.00     0.055 C 
HETATM    9  C   UNL     1       2.933  -1.390  -0.421  1.00  0.00     0.037 C 
ENDROOT
BRANCH   8  10
HETATM   10  C   UNL     1       0.925  -2.061  -1.884  1.00  0.00     0.195 C 
BRANCH  10  11
HETATM   11  O   UNL     1       0.530  -2.465  -3.197  1.00  0.00    -0.398 OA
HETATM   12  H   UNL     1       1.038  -3.275  -3.387  1.00  0.00     0.209 HD
ENDBRANCH  10  11
ENDBRANCH   8  10
BRANCH   8  13
HETATM   13  N   UNL     1       3.138  -3.109  -2.196  1.00  0.00    -0.349 N 
HETATM   14  C   UNL     1       2.978  -4.298  -1.504  1.00  0.00     0.222 C 
HETATM   15  O   UNL     1       2.254  -4.415  -0.521  1.00  0.00    -0.273 OA
HETATM   16  H   UNL     1       3.824  -3.076  -2.940  1.00  0.00     0.163 HD
BRANCH  14  17
HETATM   17  C   UNL     1       3.743  -5.484  -2.068  1.00  0.00     0.142 C 
BRANCH  17  18
HETATM   18  C   UNL     1       2.945  -6.288  -3.058  1.00  0.00    -0.034 A 
HETATM   19  C   UNL     1       1.676  -6.795  -2.756  1.00  0.00     0.010 A 
HETATM   20  C   UNL     1       0.989  -7.559  -3.696  1.00  0.00     0.018 A 
HETATM   21  C   UNL     1       1.599  -7.803  -4.913  1.00  0.00     0.087 A 
HETATM   22  N   UNL     1       2.825  -7.345  -5.241  1.00  0.00    -0.375 N 
HETATM   23  C   UNL     1       3.470  -6.609  -4.307  1.00  0.00     0.095 A 
ATOM     24  HN  UNL     1       3.245  -7.544  -6.149  1.00  0.00     0.164 HD
ENDBRANCH  17  18
ENDBRANCH  14  17
ENDBRANCH   8  13
TORSDOF 5
