REMARK  5 active torsions:
REMARK  status: ('A' for Active; 'I' for Inactive)
REMARK    1  A    between atoms: C_2  and  N_3 
REMARK    2  A    between atoms: C_2  and  C_13 
REMARK    3  A    between atoms: N_3  and  C_4 
REMARK    4  A    between atoms: C_4  and  C_5 
REMARK       I    between atoms: C_5  and  N_7 
REMARK    5  A    between atoms: C_13  and  N_15 
ROOT
HETATM    1  N   UNL     1       2.838  -1.412  -0.716  1.00  0.00     0.098 N 
HETATM    2  H   UNL     1       2.460  -2.221  -0.217  1.00  0.00     0.317 HD
ENDROOT
BRANCH   1   3
HETATM    3  C   UNL     1       2.474  -0.146  -0.041  1.00  0.00     0.241 C 
HETATM    4  C   UNL     1       0.946  -0.040   0.090  1.00  0.00     0.045 C 
BRANCH   3   5
HETATM    5  C   UNL     1       3.117   1.137  -0.676  1.00  0.00     0.136 C 
HETATM    6  C   UNL     1       2.773   2.420   0.089  1.00  0.00     0.036 C 
BRANCH   5   7
HETATM    7  N   UNL     1       4.572   1.060  -0.841  1.00  0.00    -0.297 N 
HETATM    8  C   UNL     1       5.489   0.424  -0.045  1.00  0.00     0.112 A 
HETATM    9  C   UNL     1       6.726   0.708  -0.574  1.00  0.00     0.037 A 
HETATM   10  C   UNL     1       6.461   1.542  -1.673  1.00  0.00     0.108 A 
HETATM   11  N   UNL     1       5.156   1.766  -1.839  1.00  0.00    -0.310 N 
ATOM     12  HN  UNL     1       4.703   2.337  -2.553  1.00  0.00     0.186 HD
ENDBRANCH   5   7
ENDBRANCH   3   5
ENDBRANCH   1   3
BRANCH   1  13
HETATM   13  C   UNL     1       2.392  -1.477  -2.119  1.00  0.00     0.372 C 
BRANCH  13  14
HETATM   14  C   UNL     1       2.840  -2.778  -2.791  1.00  0.00     0.256 C 
HETATM   15  O   UNL     1       3.095  -3.806  -2.159  1.00  0.00    -0.271 OA
HETATM   16  N   UNL     1       2.849  -2.743  -4.179  1.00  0.00    -0.267 N 
HETATM   17  C   UNL     1       3.371  -3.845  -4.960  1.00  0.00     0.156 A 
HETATM   18  C   UNL     1       2.123  -1.869  -5.003  1.00  0.00     0.325 A 
HETATM   19  C   UNL     1       2.858  -3.606  -6.371  1.00  0.00     0.145 A 
HETATM   20  N   UNL     1       2.187  -2.343  -6.299  1.00  0.00    -0.341 N 
HETATM   21  H   UNL     1       1.652  -1.896  -7.033  1.00  0.00     0.164 HD
HETATM   22  O   UNL     1       1.513  -0.861  -4.691  1.00  0.00    -0.247 OA
ENDBRANCH  13  14
ENDBRANCH   1  13
TORSDOF 5
