REMARK  7 active torsions:
REMARK  status: ('A' for Active; 'I' for Inactive)
REMARK    1  A    between atoms: N_2  and  C_10 
REMARK    2  A    between atoms: C_6  and  N_9 
REMARK    3  A    between atoms: C_8  and  C_10 
REMARK    4  A    between atoms: C_8  and  O_21 
REMARK    5  A    between atoms: N_9  and  C_17 
REMARK    6  A    between atoms: N_9  and  C_24 
REMARK    7  A    between atoms: C_17  and  C_22 
ROOT
HETATM    1  C   UNL     1       0.249  -0.696   0.628  1.00  0.00     0.117 A 
HETATM    2  N   UNL     1       1.343   1.202   0.501  1.00  0.00    -0.324 N 
HETATM    3  C   UNL     1       0.118   0.639   0.267  1.00  0.00     0.140 A 
HETATM    4  N   UNL     1       1.506  -0.905   1.182  1.00  0.00    -0.346 N 
ATOM      5  HN  UNL     1       1.881  -1.779   1.550  1.00  0.00     0.167 HD
HETATM    6  C   UNL     1      -0.841  -1.549   0.331  1.00  0.00     0.114 A 
HETATM    7  C   UNL     1       2.110   0.263   1.132  1.00  0.00     0.185 C 
HETATM    8  N   UNL     1      -0.952   1.242  -0.270  1.00  0.00    -0.336 N 
ATOM      9  HN  UNL     1      -0.989   2.225  -0.538  1.00  0.00     0.168 HD
HETATM   10  N   UNL     1      -1.964  -0.950  -0.170  1.00  0.00    -0.341 N 
ATOM     11  HN  UNL     1      -2.796  -1.507  -0.364  1.00  0.00     0.167 HD
HETATM   12  C   UNL     1      -1.969   0.376  -0.407  1.00  0.00     0.183 A 
ENDROOT
BRANCH   2  13
HETATM   13  C   UNL     1       1.759   2.537   0.115  1.00  0.00     0.172 C 
BRANCH  13  14
HETATM   14  C   UNL     1       2.335   2.640  -1.314  1.00  0.00     0.102 C 
HETATM   15  C   UNL     1       3.583   1.769  -1.594  1.00  0.00     0.153 C 
HETATM   16  O   UNL     1       4.425   2.506  -2.513  1.00  0.00    -0.383 OA
HETATM   17  C   UNL     1       3.330   0.404  -2.213  1.00  0.00     0.042 C 
HETATM   18  C   UNL     1       3.819   3.780  -2.755  1.00  0.00     0.171 C 
HETATM   19  C   UNL     1       2.907   4.031  -1.574  1.00  0.00     0.068 C 
BRANCH  14  20
HETATM   20  O   UNL     1       1.306   2.456  -2.299  1.00  0.00    -0.385 OA
HETATM   21  H   UNL     1       0.753   1.691  -2.055  1.00  0.00     0.210 HD
ENDBRANCH  14  20
ENDBRANCH  13  14
ENDBRANCH   2  13
BRANCH   6  22
HETATM   22  N   UNL     1      -0.798  -2.954   0.449  1.00  0.00    -0.265 NA
BRANCH  22  23
HETATM   23  C   UNL     1      -1.727  -3.644  -0.472  1.00  0.00     0.129 C 
BRANCH  23  24
HETATM   24  C   UNL     1      -1.227  -4.999  -1.004  1.00  0.00     0.135 C 
HETATM   25  O   UNL     1      -1.188  -6.052  -0.024  1.00  0.00    -0.385 OA
HETATM   26  C   UNL     1      -0.336  -7.057  -0.588  1.00  0.00     0.168 C 
HETATM   27  C   UNL     1       0.791  -6.286  -1.240  1.00  0.00     0.029 C 
HETATM   28  C   UNL     1       0.131  -5.000  -1.701  1.00  0.00     0.035 C 
ENDBRANCH  23  24
ENDBRANCH  22  23
BRANCH  22  29
HETATM   29  C   UNL     1      -0.773  -3.413   1.848  1.00  0.00     0.092 C 
HETATM   30  C   UNL     1      -2.018  -3.023   2.646  1.00  0.00     0.021 C 
ENDBRANCH  22  29
ENDBRANCH   6  22
TORSDOF 7
