REMARK  3 active torsions:
REMARK  status: ('A' for Active; 'I' for Inactive)
REMARK    1  A    between atoms: C_2  and  C_3 
REMARK    2  A    between atoms: C_2  and  N_10 
REMARK    3  A    between atoms: C_3  and  N_4 
REMARK       I    between atoms: N_10  and  C_11 
REMARK       I    between atoms: C_11  and  N_13 
ROOT
HETATM    1  N   UNL     1       3.094  -0.523   1.250  1.00  0.00    -0.337 N 
HETATM    2  C   UNL     1       4.393  -0.915   1.374  1.00  0.00     0.319 C 
HETATM    3  O   UNL     1       5.241  -0.604   0.542  1.00  0.00    -0.247 OA
HETATM    4  N   UNL     1       4.670  -1.608   2.538  1.00  0.00    -0.326 N 
HETATM    5  C   UNL     1       6.081  -1.733   2.926  1.00  0.00     0.154 C 
HETATM    6  C   UNL     1       6.527  -3.195   2.957  1.00  0.00     0.187 C 
HETATM    7  O   UNL     1       5.679  -3.963   3.822  1.00  0.00    -0.388 OA
HETATM    8  C   UNL     1       4.323  -3.922   3.355  1.00  0.00     0.192 C 
HETATM    9  C   UNL     1       3.764  -2.477   3.347  1.00  0.00     0.108 C 
HETATM   10  C   UNL     1       2.280  -2.558   2.981  1.00  0.00     0.034 C 
HETATM   11  H   UNL     1       2.698  -0.258   2.139  1.00  0.00     0.164 HD
ENDROOT
BRANCH   1  12
HETATM   12  C   UNL     1       2.569   0.223   0.101  1.00  0.00     0.102 C 
HETATM   13  C   UNL     1       1.041   0.156   0.183  1.00  0.00     0.034 C 
BRANCH  12  14
HETATM   14  C   UNL     1       3.111   1.662   0.081  1.00  0.00     0.172 C 
BRANCH  14  15
HETATM   15  N   UNL     1       2.594   2.470  -1.004  1.00  0.00    -0.302 N 
HETATM   16  C   UNL     1       3.119   2.597  -2.258  1.00  0.00     0.111 A 
HETATM   17  C   UNL     1       2.325   3.509  -2.910  1.00  0.00     0.037 A 
HETATM   18  C   UNL     1       1.348   3.874  -1.966  1.00  0.00     0.108 A 
HETATM   19  N   UNL     1       1.511   3.246  -0.800  1.00  0.00    -0.310 N 
ATOM     20  HN  UNL     1       0.948   3.333   0.046  1.00  0.00     0.186 HD
ENDBRANCH  14  15
ENDBRANCH  12  14
ENDBRANCH   1  12
TORSDOF 3
