REMARK  5 active torsions:
REMARK  status: ('A' for Active; 'I' for Inactive)
REMARK    1  A    between atoms: O_2  and  C_3 
REMARK    2  A    between atoms: C_3  and  C_4 
REMARK    3  A    between atoms: C_4  and  O_5 
REMARK    4  A    between atoms: O_5  and  C_6 
REMARK    5  A    between atoms: C_9  and  N_10 
REMARK       I    between atoms: N_10  and  C_11 
REMARK       I    between atoms: C_11  and  N_13 
ROOT
HETATM    1  C   UNL     1       6.539  -2.417  -1.068  1.00  0.00     0.141 A 
HETATM    2  C   UNL     1       7.033  -3.677  -0.781  1.00  0.00     0.058 A 
HETATM    3  C   UNL     1       8.324  -4.000  -1.193  1.00  0.00     0.035 A 
HETATM    4  C   UNL     1       9.101  -3.060  -1.869  1.00  0.00     0.051 A 
HETATM    5  C   UNL     1       8.512  -1.812  -2.084  1.00  0.00     0.119 A 
HETATM    6  N   UNL     1       7.253  -1.467  -1.706  1.00  0.00    -0.345 N 
ATOM      7  HN  UNL     1       6.869  -0.541  -1.894  1.00  0.00     0.167 HD
ENDROOT
BRANCH   4   8
HETATM    8  N   UNL     1      10.426  -3.301  -2.323  1.00  0.00    -0.307 N 
HETATM    9  C   UNL     1      11.010  -4.542  -2.462  1.00  0.00     0.322 C 
HETATM   10  O   UNL     1      10.397  -5.590  -2.249  1.00  0.00    -0.247 OA
HETATM   11  N   UNL     1      12.339  -4.577  -2.882  1.00  0.00    -0.334 N 
HETATM   12  C   UNL     1      13.226  -3.436  -3.131  1.00  0.00     0.127 C 
HETATM   13  C   UNL     1      12.947  -5.903  -3.023  1.00  0.00     0.127 C 
HETATM   14  C   UNL     1      14.160  -3.173  -1.952  1.00  0.00     0.020 C 
HETATM   15  C   UNL     1      15.454  -3.989  -1.965  1.00  0.00     0.002 C 
HETATM   16  C   UNL     1      15.369  -5.442  -2.430  1.00  0.00     0.002 C 
HETATM   17  C   UNL     1      14.087  -6.170  -2.039  1.00  0.00     0.020 C 
HETATM   18  H   UNL     1      10.893  -2.516  -2.739  1.00  0.00     0.170 HD
ENDBRANCH   4   8
BRANCH   1  19
HETATM   19  O   UNL     1       5.283  -2.134  -0.576  1.00  0.00    -0.334 OA
BRANCH  19  20
HETATM   20  C   UNL     1       4.615  -1.090  -1.284  1.00  0.00     0.203 C 
BRANCH  20  21
HETATM   21  C   UNL     1       3.316  -0.773  -0.545  1.00  0.00     0.193 C 
BRANCH  21  22
HETATM   22  O   UNL     1       2.573   0.206  -1.271  1.00  0.00    -0.394 OA
HETATM   23  C   UNL     1       1.363   0.544  -0.607  1.00  0.00     0.201 C 
ENDBRANCH  21  22
ENDBRANCH  20  21
ENDBRANCH  19  20
ENDBRANCH   1  19
TORSDOF 5
