REMARK  2 active torsions:
REMARK  status: ('A' for Active; 'I' for Inactive)
REMARK    1  A    between atoms: C_1  and  C_2 
REMARK    2  A    between atoms: C_1  and  N_7 
ROOT
HETATM    1  N   UNL     1       1.294  -0.468  -1.343  1.00  0.00    -0.285 N 
HETATM    2  C   UNL     1       2.389  -0.851  -2.053  1.00  0.00     0.201 A 
HETATM    3  N   UNL     1       2.007  -1.477  -3.143  1.00  0.00    -0.346 N 
ATOM      4  HN  UNL     1       2.586  -1.876  -3.882  1.00  0.00     0.167 HD
HETATM    5  C   UNL     1       0.644  -1.462  -3.044  1.00  0.00     0.198 A 
HETATM    6  N   UNL     1       0.159  -0.857  -1.955  1.00  0.00    -0.293 N 
ATOM      7  HN  UNL     1      -0.810  -0.725  -1.665  1.00  0.00     0.188 HD
ENDROOT
BRANCH   1   8
HETATM    8  C   UNL     1       1.265   0.174  -0.047  1.00  0.00     0.185 C 
BRANCH   8   9
HETATM    9  C   UNL     1       0.443   1.464  -0.013  1.00  0.00     0.240 C 
HETATM   10  C   UNL     1       1.025   2.601  -0.857  1.00  0.00     0.039 C 
HETATM   11  C   UNL     1       0.800   3.869  -0.038  1.00  0.00     0.032 C 
HETATM   12  C   UNL     1      -0.023   3.424   1.154  1.00  0.00     0.270 C 
HETATM   13  N   UNL     1       0.397   2.038   1.346  1.00  0.00     0.089 N 
HETATM   14  H   UNL     1      -0.285   1.541   1.920  1.00  0.00     0.316 HD
ENDBRANCH   8   9
ENDBRANCH   1   8
TORSDOF 2
