REMARK  4 active torsions:
REMARK  status: ('A' for Active; 'I' for Inactive)
REMARK    1  A    between atoms: O_1  and  C_2 
REMARK    2  A    between atoms: C_2  and  C_3 
REMARK    3  A    between atoms: C_2  and  C_16 
REMARK    4  A    between atoms: C_3  and  N_4 
ROOT
HETATM    1  N   UNL     1       2.478  -1.832  -1.549  1.00  0.00    -0.271 N 
HETATM    2  N   UNL     1       3.224  -2.908  -1.238  1.00  0.00    -0.019 NA
HETATM    3  N   UNL     1       2.503  -3.987  -1.516  1.00  0.00    -0.282 N 
ATOM      4  HN  UNL     1       2.799  -4.954  -1.384  1.00  0.00     0.184 HD
HETATM    5  C   UNL     1       1.296  -3.579  -2.010  1.00  0.00     0.075 A 
HETATM    6  C   UNL     1       0.188  -4.321  -2.443  1.00  0.00     0.058 A 
HETATM    7  C   UNL     1      -0.944  -3.629  -2.897  1.00  0.00     0.058 A 
HETATM    8 CL   UNL     1      -2.294  -4.580  -3.415  1.00  0.00    -0.082 Cl
HETATM    9  C   UNL     1      -0.968  -2.227  -2.922  1.00  0.00     0.058 A 
HETATM   10 CL   UNL     1      -2.347  -1.340  -3.477  1.00  0.00    -0.082 Cl
HETATM   11  C   UNL     1       0.136  -1.475  -2.491  1.00  0.00     0.058 A 
HETATM   12  C   UNL     1       1.251  -2.189  -2.043  1.00  0.00     0.078 A 
ENDROOT
BRANCH   1  13
HETATM   13  C   UNL     1       2.995  -0.506  -1.284  1.00  0.00     0.187 C 
BRANCH  13  14
HETATM   14  C   UNL     1       3.177  -0.245   0.211  1.00  0.00     0.245 C 
BRANCH  14  15
HETATM   15  O   UNL     1       1.914  -0.420   0.882  1.00  0.00    -0.385 OA
HETATM   16  H   UNL     1       1.844  -1.359   1.140  1.00  0.00     0.210 HD
ENDBRANCH  14  15
BRANCH  14  17
HETATM   17  C   UNL     1       3.770   1.162   0.412  1.00  0.00     0.414 C 
HETATM   18  F   UNL     1       3.057   1.902   1.288  1.00  0.00    -0.168 F 
HETATM   19  F   UNL     1       5.033   1.080   0.892  1.00  0.00    -0.168 F 
HETATM   20  F   UNL     1       3.830   1.860  -0.747  1.00  0.00    -0.168 F 
ENDBRANCH  14  17
ENDBRANCH  13  14
ENDBRANCH   1  13
TORSDOF 4
