REMARK  6 active torsions:
REMARK  status: ('A' for Active; 'I' for Inactive)
REMARK    1  A    between atoms: C_2  and  C_3 
REMARK    2  A    between atoms: C_7  and  C_8 
REMARK    3  A    between atoms: C_8  and  C_9 
REMARK    4  A    between atoms: C_9  and  N_10 
REMARK       I    between atoms: N_10  and  C_11 
REMARK       I    between atoms: C_11  and  N_13 
REMARK    5  A    between atoms: C_17  and  C_18 
REMARK    6  A    between atoms: C_18  and  O_19 
ROOT
HETATM    1  N   UNL     1       5.066  -1.227   6.319  1.00  0.00    -0.343 N 
HETATM    2  C   UNL     1       5.298  -2.539   6.624  1.00  0.00     0.318 C 
HETATM    3  O   UNL     1       5.124  -3.444   5.809  1.00  0.00    -0.247 OA
HETATM    4  N   UNL     1       5.766  -2.771   7.893  1.00  0.00    -0.327 N 
HETATM    5  C   UNL     1       6.111  -4.125   8.294  1.00  0.00     0.128 C 
HETATM    6  C   UNL     1       6.995  -3.990   9.526  1.00  0.00     0.022 C 
HETATM    7  C   UNL     1       7.421  -2.528   9.530  1.00  0.00     0.029 C 
HETATM    8  C   UNL     1       6.269  -1.784   8.852  1.00  0.00     0.112 C 
HETATM    9  H   UNL     1       4.700  -0.667   7.076  1.00  0.00     0.164 HD
ENDROOT
BRANCH   1  10
HETATM   10  C   UNL     1       4.551  -0.849   5.014  1.00  0.00     0.131 C 
BRANCH  10  11
HETATM   11  C   UNL     1       3.123  -1.334   4.739  1.00  0.00     0.084 C 
BRANCH  11  12
HETATM   12  C   UNL     1       2.129  -0.827   5.743  1.00  0.00     0.052 A 
HETATM   13  N   UNL     1       2.396   0.005   6.732  1.00  0.00    -0.363 N 
HETATM   14  C   UNL     1       1.255   0.216   7.478  1.00  0.00     0.103 A 
ATOM     15  HN  UNL     1       3.306   0.427   6.916  1.00  0.00     0.165 HD
HETATM   16  C   UNL     1       0.127  -0.457   7.057  1.00  0.00    -0.001 A 
HETATM   17  S   UNL     1       0.501  -1.375   5.660  1.00  0.00    -0.080 SA
BRANCH  16  18
HETATM   18  C   UNL     1      -1.244  -0.469   7.648  1.00  0.00     0.043 C 
HETATM   19  C   UNL     1      -2.115   0.642   7.082  1.00  0.00     0.010 C 
ENDBRANCH  16  18
ENDBRANCH  11  12
ENDBRANCH  10  11
ENDBRANCH   1  10
BRANCH   8  20
HETATM   20  C   UNL     1       5.172  -1.322   9.830  1.00  0.00     0.189 C 
BRANCH  20  21
HETATM   21  O   UNL     1       4.526  -2.410  10.486  1.00  0.00    -0.399 OA
HETATM   22  H   UNL     1       4.097  -2.929   9.780  1.00  0.00     0.209 HD
ENDBRANCH  20  21
ENDBRANCH   8  20
TORSDOF 6
