REMARK  7 active torsions:
REMARK  status: ('A' for Active; 'I' for Inactive)
REMARK    1  A    between atoms: C_2  and  N_3 
REMARK    2  A    between atoms: C_2  and  C_6 
REMARK    3  A    between atoms: N_3  and  C_4 
REMARK    4  A    between atoms: N_15  and  C_16 
REMARK    5  A    between atoms: C_16  and  C_17 
REMARK    6  A    between atoms: C_17  and  O_18 
REMARK    7  A    between atoms: O_18  and  C_19 
ROOT
HETATM    1  C   UNL     1       2.908  -0.541  -1.362  1.00  0.00     0.107 A 
HETATM    2  N   UNL     1       3.428   0.273  -2.261  1.00  0.00    -0.342 N 
ATOM      3  HN  UNL     1       3.622   1.267  -2.143  1.00  0.00     0.167 HD
HETATM    4  C   UNL     1       3.656  -0.474  -3.379  1.00  0.00     0.060 A 
HETATM    5  C   UNL     1       4.159  -0.057  -4.623  1.00  0.00     0.032 A 
HETATM    6  C   UNL     1       4.328  -0.994  -5.647  1.00  0.00     0.002 A 
HETATM    7  C   UNL     1       4.003  -2.325  -5.433  1.00  0.00     0.002 A 
HETATM    8  C   UNL     1       3.492  -2.754  -4.203  1.00  0.00     0.032 A 
HETATM    9  C   UNL     1       3.313  -1.810  -3.172  1.00  0.00     0.062 A 
HETATM   10  N   UNL     1       2.830  -1.840  -1.869  1.00  0.00    -0.331 N 
ENDROOT
BRANCH  10  11
HETATM   11  C   UNL     1       2.328  -2.983  -1.118  1.00  0.00     0.157 C 
BRANCH  11  12
HETATM   12  C   UNL     1       2.387  -4.337  -1.802  1.00  0.00     0.196 C 
BRANCH  12  13
HETATM   13  O   UNL     1       1.942  -5.374  -0.926  1.00  0.00    -0.350 OA
BRANCH  13  14
HETATM   14  C   UNL     1       2.025  -6.623  -1.490  1.00  0.00     0.069 A 
HETATM   15  C   UNL     1       1.058  -7.544  -1.098  1.00  0.00     0.037 A 
HETATM   16  C   UNL     1       1.066  -8.838  -1.625  1.00  0.00     0.003 A 
HETATM   17  C   UNL     1       2.055  -9.224  -2.532  1.00  0.00     0.007 A 
HETATM   18  C   UNL     1       3.050  -8.323  -2.913  1.00  0.00    -0.059 A 
HETATM   19  C   UNL     1       4.138  -8.704  -3.872  1.00  0.00     0.048 C 
HETATM   20  C   UNL     1       3.025  -7.023  -2.386  1.00  0.00     0.043 A 
ENDBRANCH  13  14
ENDBRANCH  12  13
ENDBRANCH  11  12
ENDBRANCH  10  11
BRANCH   1  21
HETATM   21  C   UNL     1       2.405  -0.049  -0.017  1.00  0.00     0.147 C 
HETATM   22  C   UNL     1       0.906   0.245  -0.104  1.00  0.00     0.040 C 
BRANCH  21  23
HETATM   23  N   UNL     1       2.790  -0.965   1.045  1.00  0.00    -0.357 N 
HETATM   24  H   UNL     1       3.642  -1.491   0.903  1.00  0.00     0.162 HD
BRANCH  23  25
HETATM   25  C   UNL     1       2.493  -0.731   2.364  1.00  0.00     0.349 C 
HETATM   26  O   UNL     1       1.815   0.181   2.807  1.00  0.00    -0.284 OA
ENDBRANCH  23  25
ENDBRANCH  21  23
ENDBRANCH   1  21
TORSDOF 7
