REMARK  4 active torsions:
REMARK  status: ('A' for Active; 'I' for Inactive)
REMARK    1  A    between atoms: N_4  and  C_9 
REMARK    2  A    between atoms: C_9  and  C_12 
REMARK    3  A    between atoms: C_12  and  N_13 
REMARK       I    between atoms: N_13  and  C_14 
REMARK       I    between atoms: C_14  and  N_16 
REMARK    4  A    between atoms: N_16  and  C_17 
ROOT
HETATM    1  N   UNL     1       1.221   3.294  -3.282  1.00  0.00    -0.340 N 
HETATM    2  C   UNL     1       0.689   4.523  -3.604  1.00  0.00     0.320 C 
HETATM    3  O   UNL     1       1.402   5.502  -3.789  1.00  0.00    -0.247 OA
HETATM    4  N   UNL     1      -0.676   4.470  -3.758  1.00  0.00    -0.308 N 
HETATM    5  H   UNL     1       0.674   2.669  -2.707  1.00  0.00     0.164 HD
HETATM    6  H   UNL     1      -1.069   3.543  -3.824  1.00  0.00     0.170 HD
ENDROOT
BRANCH   1   7
HETATM    7  C   UNL     1       2.666   3.156  -3.186  1.00  0.00     0.165 C 
BRANCH   7   8
HETATM    8  C   UNL     1       3.179   1.706  -3.463  1.00  0.00     0.168 C 
HETATM    9  C   UNL     1       4.725   1.774  -3.481  1.00  0.00     0.050 C 
HETATM   10  C   UNL     1       2.712   1.344  -4.900  1.00  0.00     0.050 C 
BRANCH   8  11
HETATM   11  N   UNL     1       2.620   0.722  -2.474  1.00  0.00     0.104 N 
HETATM   12  C   UNL     1       3.030   0.982  -1.071  1.00  0.00     0.305 C 
HETATM   13  C   UNL     1       2.441  -0.035  -0.065  1.00  0.00     0.146 C 
HETATM   14  C   UNL     1       0.936   0.124   0.138  1.00  0.00     0.041 C 
HETATM   15  O   UNL     1       2.782  -1.381  -0.432  1.00  0.00    -0.378 OA
HETATM   16  C   UNL     1       2.387  -1.695  -1.773  1.00  0.00     0.146 C 
HETATM   17  C   UNL     1       2.973  -0.687  -2.785  1.00  0.00     0.305 C 
HETATM   18  C   UNL     1       2.885  -3.103  -2.084  1.00  0.00     0.041 C 
ENDBRANCH   8  11
ENDBRANCH   7   8
ENDBRANCH   1   7
BRANCH   4  19
HETATM   19  C   UNL     1      -1.498   5.556  -4.138  1.00  0.00     0.051 A 
HETATM   20  C   UNL     1      -1.083   6.887  -4.120  1.00  0.00     0.032 A 
HETATM   21  C   UNL     1      -1.941   7.896  -4.554  1.00  0.00     0.019 A 
HETATM   22  C   UNL     1      -3.206   7.542  -4.983  1.00  0.00     0.088 A 
HETATM   23  N   UNL     1      -3.664   6.271  -4.994  1.00  0.00    -0.373 N 
HETATM   24  C   UNL     1      -2.801   5.314  -4.570  1.00  0.00     0.117 A 
ATOM     25  HN  UNL     1      -4.608   6.043  -5.305  1.00  0.00     0.164 HD
ENDBRANCH   4  19
TORSDOF 4
