REMARK  7 active torsions:
REMARK  status: ('A' for Active; 'I' for Inactive)
REMARK    1  A    between atoms: O_2  and  C_3 
REMARK    2  A    between atoms: C_3  and  C_4 
REMARK    3  A    between atoms: C_4  and  O_5 
REMARK    4  A    between atoms: O_5  and  C_6 
REMARK    5  A    between atoms: C_12  and  C_13 
REMARK    6  A    between atoms: C_13  and  N_14 
REMARK       I    between atoms: N_14  and  C_15 
REMARK    7  A    between atoms: C_15  and  C_17 
ROOT
HETATM    1  C   UNL     1       6.373  -1.791   2.106  1.00  0.00     0.150 A 
HETATM    2  N   UNL     1       7.142  -0.718   2.388  1.00  0.00    -0.346 N 
ATOM      3  HN  UNL     1       6.785   0.233   2.301  1.00  0.00     0.167 HD
HETATM    4  C   UNL     1       8.405  -0.965   2.791  1.00  0.00     0.090 A 
HETATM    5  C   UNL     1       8.931  -2.237   2.943  1.00  0.00     0.018 A 
HETATM    6  C   UNL     1       8.115  -3.326   2.650  1.00  0.00     0.014 A 
HETATM    7  C   UNL     1       6.807  -3.113   2.203  1.00  0.00     0.011 A 
ENDROOT
BRANCH   7   8
HETATM    8  C   UNL     1       5.934  -4.265   1.797  1.00  0.00     0.165 C 
BRANCH   8   9
HETATM    9  N   UNL     1       5.202  -4.861   2.893  1.00  0.00    -0.356 N 
HETATM   10  C   UNL     1       4.399  -5.960   2.650  1.00  0.00     0.222 C 
HETATM   11  O   UNL     1       4.367  -6.491   1.536  1.00  0.00    -0.273 OA
HETATM   12  H   UNL     1       5.114  -4.352   3.762  1.00  0.00     0.162 HD
BRANCH  10  13
HETATM   13  C   UNL     1       3.550  -6.460   3.845  1.00  0.00     0.078 C 
HETATM   14  C   UNL     1       4.073  -6.306   5.296  1.00  0.00     0.014 C 
HETATM   15  C   UNL     1       3.518  -7.708   5.601  1.00  0.00     0.002 C 
HETATM   16  C   UNL     1       3.567  -7.996   4.094  1.00  0.00     0.014 C 
ENDBRANCH  10  13
ENDBRANCH   8   9
ENDBRANCH   7   8
BRANCH   1  17
HETATM   17  O   UNL     1       5.056  -1.602   1.758  1.00  0.00    -0.333 OA
BRANCH  17  18
HETATM   18  C   UNL     1       4.712  -0.278   1.348  1.00  0.00     0.203 C 
BRANCH  18  19
HETATM   19  C   UNL     1       3.192  -0.264   1.229  1.00  0.00     0.193 C 
BRANCH  19  20
HETATM   20  O   UNL     1       2.710   0.988   0.751  1.00  0.00    -0.394 OA
HETATM   21  C   UNL     1       1.288   0.974   0.663  1.00  0.00     0.201 C 
ENDBRANCH  19  20
ENDBRANCH  18  19
ENDBRANCH  17  18
ENDBRANCH   1  17
TORSDOF 7
