REMARK  4 active torsions:
REMARK  status: ('A' for Active; 'I' for Inactive)
REMARK    1  A    between atoms: O_2  and  C_3 
REMARK    2  A    between atoms: C_3  and  C_4 
REMARK       I    between atoms: C_4  and  N_6 
REMARK    3  A    between atoms: N_6  and  C_7 
REMARK    4  A    between atoms: C_13  and  N_14 
ROOT
HETATM    1  C   UNL     1       6.632   1.539   2.238  1.00  0.00     0.079 A 
HETATM    2  C   UNL     1       7.480   2.596   1.893  1.00  0.00     0.035 A 
HETATM    3  C   UNL     1       8.848   2.468   2.069  1.00  0.00     0.019 A 
HETATM    4  C   UNL     1       9.318   1.285   2.602  1.00  0.00     0.090 A 
HETATM    5  N   UNL     1       8.526   0.243   2.943  1.00  0.00    -0.351 N 
ATOM      6  HN  UNL     1       8.932  -0.610   3.328  1.00  0.00     0.166 HD
HETATM    7  C   UNL     1       7.184   0.347   2.766  1.00  0.00     0.130 A 
ENDROOT
BRANCH   1   8
HETATM    8  N   UNL     1       5.243   1.647   1.950  1.00  0.00    -0.322 N 
HETATM    9  C   UNL     1       4.522   2.779   2.289  1.00  0.00     0.245 C 
HETATM   10  O   UNL     1       4.975   3.783   2.832  1.00  0.00    -0.271 OA
HETATM   11  H   UNL     1       4.742   0.773   1.878  1.00  0.00     0.169 HD
BRANCH   9  12
HETATM   12  C   UNL     1       3.023   2.652   2.010  1.00  0.00     0.270 C 
BRANCH  12  13
HETATM   13  O   UNL     1       2.318   1.849   2.947  1.00  0.00    -0.387 OA
HETATM   14  C   UNL     1       2.262   2.452   4.240  1.00  0.00     0.202 C 
ENDBRANCH  12  13
ENDBRANCH   9  12
ENDBRANCH   1   8
BRANCH   7  15
HETATM   15  N   UNL     1       6.398  -0.767   3.056  1.00  0.00    -0.365 N 
HETATM   16  C   UNL     1       7.106  -2.035   3.277  1.00  0.00     0.124 C 
HETATM   17  C   UNL     1       6.178  -3.160   2.811  1.00  0.00     0.020 C 
HETATM   18  C   UNL     1       4.781  -3.074   3.438  1.00  0.00     0.003 C 
HETATM   19  C   UNL     1       4.206  -1.651   3.394  1.00  0.00     0.020 C 
HETATM   20  C   UNL     1       5.225  -0.643   3.925  1.00  0.00     0.124 C 
ENDBRANCH   7  15
TORSDOF 4
