REMARK  2 active torsions:
REMARK  status: ('A' for Active; 'I' for Inactive)
REMARK       I    between atoms: C_2  and  N_3 
REMARK       I    between atoms: C_2  and  N_11 
REMARK    1  A    between atoms: N_3  and  C_4 
REMARK    2  A    between atoms: N_11  and  C_12 
ROOT
HETATM    1  O   UNL     1       1.104  -0.041   0.079  1.00  0.00    -0.247 OA
HETATM    2  C   UNL     1       2.328  -0.061   0.052  1.00  0.00     0.321 C 
HETATM    3  N   UNL     1       3.055  -0.707   1.025  1.00  0.00    -0.337 N 
HETATM    4  N   UNL     1       3.119   0.506  -0.919  1.00  0.00    -0.308 N 
HETATM    5  H   UNL     1       4.033  -0.474   1.120  1.00  0.00     0.164 HD
HETATM    6  H   UNL     1       4.062   0.154  -0.992  1.00  0.00     0.170 HD
ENDROOT
BRANCH   3   7
HETATM    7  C   UNL     1       2.379  -1.336   2.160  1.00  0.00     0.101 C 
HETATM    8  C   UNL     1       1.473  -2.509   1.730  1.00  0.00     0.041 C 
HETATM    9  C   UNL     1       0.299  -2.650   2.692  1.00  0.00     0.142 C 
HETATM   10  S   UNL     1       0.474  -1.391   3.932  1.00  0.00     0.146 S 
HETATM   11  O   UNL     1      -0.791  -0.715   4.122  1.00  0.00    -0.228 OA
HETATM   12  O   UNL     1       1.223  -1.949   5.041  1.00  0.00    -0.228 OA
HETATM   13  C   UNL     1       1.566  -0.355   3.005  1.00  0.00     0.165 C 
ENDBRANCH   3   7
BRANCH   4  14
HETATM   14  C   UNL     1       2.632   1.277  -1.998  1.00  0.00     0.051 A 
HETATM   15  C   UNL     1       1.361   1.854  -2.022  1.00  0.00     0.032 A 
HETATM   16  C   UNL     1       0.935   2.559  -3.146  1.00  0.00     0.019 A 
HETATM   17  C   UNL     1       1.803   2.681  -4.214  1.00  0.00     0.088 A 
HETATM   18  N   UNL     1       3.053   2.172  -4.221  1.00  0.00    -0.373 N 
HETATM   19  C   UNL     1       3.437   1.488  -3.115  1.00  0.00     0.117 A 
ATOM     20  HN  UNL     1       3.677   2.296  -5.018  1.00  0.00     0.164 HD
ENDBRANCH   4  14
TORSDOF 2
