REMARK  5 active torsions:
REMARK  status: ('A' for Active; 'I' for Inactive)
REMARK    1  A    between atoms: O_2  and  C_3 
REMARK    2  A    between atoms: N_8  and  C_9 
REMARK    3  A    between atoms: C_9  and  C_10 
REMARK    4  A    between atoms: C_10  and  O_11 
REMARK    5  A    between atoms: C_10  and  C_12 
ROOT
HETATM    1  C   UNL     1       2.907  -4.692  -0.126  1.00  0.00     0.189 C 
ENDROOT
BRANCH   1   2
HETATM    2  N   UNL     1       3.261  -3.390   0.431  1.00  0.00    -0.253 N 
HETATM    3  C   UNL     1       4.232  -2.623  -0.206  1.00  0.00     0.262 A 
HETATM    4  C   UNL     1       4.487  -1.282   0.373  1.00  0.00     0.080 A 
HETATM    5  O   UNL     1       4.870  -2.980  -1.192  1.00  0.00    -0.267 OA
HETATM    6  C   UNL     1       3.809  -0.862   1.442  1.00  0.00     0.063 A 
HETATM    7  C   UNL     1       2.849  -1.809   2.005  1.00  0.00     0.156 A 
HETATM    8  N   UNL     1       2.566  -2.986   1.555  1.00  0.00    -0.275 N 
ATOM      9  HN  UNL     1       1.870  -3.582   2.003  1.00  0.00     0.189 HD
BRANCH   7  10
HETATM   10  O   UNL     1       2.289  -1.266   3.112  1.00  0.00    -0.340 OA
HETATM   11  C   UNL     1       1.411  -2.119   3.857  1.00  0.00     0.211 C 
ENDBRANCH   7  10
ENDBRANCH   1   2
BRANCH   1  12
HETATM   12  C   UNL     1       1.797  -4.596  -1.198  1.00  0.00     0.174 C 
BRANCH  12  13
HETATM   13  O   UNL     1       2.164  -3.785  -2.316  1.00  0.00    -0.389 OA
HETATM   14  H   UNL     1       3.099  -3.977  -2.521  1.00  0.00     0.210 HD
ENDBRANCH  12  13
BRANCH  12  15
HETATM   15  C   UNL     1       1.402  -5.956  -1.726  1.00  0.00     0.011 A 
HETATM   16  C   UNL     1       0.100  -6.449  -1.550  1.00  0.00     0.016 A 
HETATM   17  C   UNL     1      -0.236  -7.726  -2.006  1.00  0.00     0.043 A 
HETATM   18  C   UNL     1       0.721  -8.507  -2.644  1.00  0.00     0.119 A 
HETATM   19  F   UNL     1       0.398  -9.737  -3.063  1.00  0.00    -0.206 F 
HETATM   20  C   UNL     1       2.008  -8.034  -2.850  1.00  0.00     0.085 A 
HETATM   21  C   UNL     1       2.334  -6.763  -2.396  1.00  0.00     0.128 A 
HETATM   22  F   UNL     1       3.578  -6.309  -2.605  1.00  0.00    -0.205 F 
ENDBRANCH  12  15
ENDBRANCH   1  12
TORSDOF 5
