REMARK  7 active torsions:
REMARK  status: ('A' for Active; 'I' for Inactive)
REMARK    1  A    between atoms: O_2  and  C_3 
REMARK    2  A    between atoms: C_3  and  C_4 
REMARK    3  A    between atoms: C_4  and  N_5 
REMARK    4  A    between atoms: C_8  and  C_9 
REMARK    5  A    between atoms: C_9  and  N_10 
REMARK       I    between atoms: N_10  and  C_11 
REMARK    6  A    between atoms: C_11  and  C_13 
REMARK    7  A    between atoms: C_13  and  C_14 
ROOT
HETATM    1  N   UNL     1       3.444   5.001  -4.669  1.00  0.00    -0.360 N 
HETATM    2  C   UNL     1       2.322   5.761  -4.931  1.00  0.00     0.221 C 
HETATM    3  O   UNL     1       1.212   5.270  -5.150  1.00  0.00    -0.273 OA
HETATM    4  H   UNL     1       4.339   5.458  -4.564  1.00  0.00     0.162 HD
ENDROOT
BRANCH   1   5
HETATM    5  C   UNL     1       3.413   3.550  -4.703  1.00  0.00     0.127 C 
BRANCH   5   6
HETATM    6  C   UNL     1       2.918   2.931  -3.382  1.00  0.00     0.007 C 
HETATM    7  C   UNL     1       3.874   3.196  -2.206  1.00  0.00     0.036 C 
HETATM    8  C   UNL     1       5.143   2.337  -2.263  1.00  0.00     0.273 C 
HETATM    9  N   UNL     1       4.887   0.897  -2.421  1.00  0.00     0.090 N 
HETATM   10  C   UNL     1       4.027   0.653  -3.585  1.00  0.00     0.273 C 
HETATM   11  C   UNL     1       2.704   1.418  -3.541  1.00  0.00     0.036 C 
BRANCH   9  12
HETATM   12  C   UNL     1       4.409   0.280  -1.165  1.00  0.00     0.298 C 
BRANCH  12  13
HETATM   13  C   UNL     1       4.176  -1.237  -1.270  1.00  0.00     0.197 C 
BRANCH  13  14
HETATM   14  O   UNL     1       3.838  -1.790   0.005  1.00  0.00    -0.394 OA
HETATM   15  C   UNL     1       3.551  -3.180  -0.122  1.00  0.00     0.201 C 
ENDBRANCH  13  14
ENDBRANCH  12  13
ENDBRANCH   9  12
ENDBRANCH   5   6
ENDBRANCH   1   5
BRANCH   2  16
HETATM   16  C   UNL     1       2.567   7.259  -4.961  1.00  0.00     0.142 C 
BRANCH  16  17
HETATM   17  C   UNL     1       3.038   7.727  -6.310  1.00  0.00    -0.034 A 
HETATM   18  C   UNL     1       2.265   7.534  -7.457  1.00  0.00     0.011 A 
HETATM   19  C   UNL     1       2.773   7.893  -8.704  1.00  0.00     0.025 A 
HETATM   20  C   UNL     1       4.044   8.452  -8.773  1.00  0.00     0.005 A 
HETATM   21  C   UNL     1       4.688   8.725 -10.099  1.00  0.00     0.068 C 
HETATM   22  N   UNL     1       4.793   8.695  -7.671  1.00  0.00    -0.369 N 
HETATM   23  C   UNL     1       4.273   8.339  -6.474  1.00  0.00     0.095 A 
ATOM     24  HN  UNL     1       5.713   9.129  -7.741  1.00  0.00     0.165 HD
ENDBRANCH  16  17
ENDBRANCH   2  16
TORSDOF 7
