REMARK  4 active torsions:
REMARK  status: ('A' for Active; 'I' for Inactive)
REMARK    1  A    between atoms: C_2  and  N_3 
REMARK       I    between atoms: N_3  and  C_4 
REMARK    2  A    between atoms: C_4  and  C_6 
REMARK    3  A    between atoms: C_9  and  N_14 
REMARK    4  A    between atoms: C_18  and  O_20 
ROOT
HETATM    1  C   UNL     1       5.069  -0.102  -3.027  1.00  0.00     0.116 A 
HETATM    2  C   UNL     1       5.240   1.073  -3.723  1.00  0.00     0.040 A 
HETATM    3  C   UNL     1       5.747   1.018  -5.022  1.00  0.00     0.052 A 
HETATM    4  C   UNL     1       6.085  -0.195  -5.622  1.00  0.00     0.117 A 
HETATM    5  N   UNL     1       5.887  -1.317  -4.888  1.00  0.00    -0.285 N 
ATOM      6  HN  UNL     1       6.118  -2.220  -5.303  1.00  0.00     0.188 HD
HETATM    7  N   UNL     1       5.379  -1.289  -3.584  1.00  0.00    -0.294 N 
ATOM      8  HN  UNL     1       5.245  -2.155  -3.063  1.00  0.00     0.187 HD
ENDROOT
BRANCH   4   9
HETATM    9  N   UNL     1       6.585  -0.270  -6.907  1.00  0.00    -0.364 N 
HETATM   10  C   UNL     1       6.928   0.878  -7.740  1.00  0.00     0.124 C 
HETATM   11  C   UNL     1       6.091   0.819  -9.014  1.00  0.00     0.022 C 
HETATM   12  C   UNL     1       6.345  -0.486  -9.759  1.00  0.00     0.035 C 
HETATM   13  C   UNL     1       6.097  -1.714  -8.866  1.00  0.00     0.138 C 
HETATM   14  C   UNL     1       6.856  -1.579  -7.522  1.00  0.00     0.156 C 
BRANCH  13  15
HETATM   15  O   UNL     1       6.530  -2.917  -9.517  1.00  0.00    -0.389 OA
HETATM   16  C   UNL     1       5.811  -3.219 -10.706  1.00  0.00     0.202 C 
ENDBRANCH  13  15
ENDBRANCH   4   9
BRANCH   1  17
HETATM   17  C   UNL     1       4.517  -0.074  -1.645  1.00  0.00     0.269 C 
HETATM   18  N   UNL     1       4.364  -1.289  -1.009  1.00  0.00    -0.356 N 
HETATM   19  H   UNL     1       4.678  -2.127  -1.490  1.00  0.00     0.162 HD
HETATM   20  O   UNL     1       4.217   0.996  -1.125  1.00  0.00    -0.266 OA
BRANCH  18  21
HETATM   21  C   UNL     1       3.814  -1.379   0.327  1.00  0.00     0.118 C 
HETATM   22  C   UNL     1       4.882  -1.232   1.397  1.00  0.00     0.026 C 
ENDBRANCH  18  21
ENDBRANCH   1  17
TORSDOF 4
