REMARK  4 active torsions:
REMARK  status: ('A' for Active; 'I' for Inactive)
REMARK    1  A    between atoms: C_8  and  N_9 
REMARK       I    between atoms: N_9  and  C_10 
REMARK       I    between atoms: C_10  and  N_12 
REMARK    2  A    between atoms: N_12  and  C_13 
REMARK    3  A    between atoms: C_13  and  C_14 
REMARK    4  A    between atoms: C_14  and  C_15 
REMARK       I    between atoms: C_15  and  N_17 
ROOT
HETATM    1  N   UNL     1      -1.427  -2.310   3.238  1.00  0.00    -0.306 N 
HETATM    2  C   UNL     1      -0.956  -3.080   2.202  1.00  0.00     0.320 C 
HETATM    3  O   UNL     1       0.037  -3.801   2.242  1.00  0.00    -0.247 OA
HETATM    4  N   UNL     1      -1.697  -2.959   1.054  1.00  0.00    -0.342 N 
HETATM    5  H   UNL     1      -2.365  -1.937   3.161  1.00  0.00     0.171 HD
HETATM    6  H   UNL     1      -2.655  -2.636   1.108  1.00  0.00     0.164 HD
ENDROOT
BRANCH   1   7
HETATM    7  C   UNL     1      -0.781  -2.142   4.489  1.00  0.00     0.077 A 
HETATM    8  C   UNL     1      -1.498  -1.606   5.556  1.00  0.00     0.158 A 
HETATM    9  F   UNL     1      -2.786  -1.257   5.412  1.00  0.00    -0.202 F 
HETATM   10  C   UNL     1      -0.873  -1.465   6.785  1.00  0.00     0.132 A 
HETATM   11  N   UNL     1       0.419  -1.798   7.015  1.00  0.00    -0.372 N 
HETATM   12  C   UNL     1       1.104  -2.291   5.962  1.00  0.00     0.090 A 
ATOM     13  HN  UNL     1       0.850  -1.683   7.932  1.00  0.00     0.164 HD
HETATM   14  C   UNL     1       0.560  -2.473   4.700  1.00  0.00     0.050 A 
ENDBRANCH   1   7
BRANCH   4  15
HETATM   15  C   UNL     1      -1.332  -3.725  -0.132  1.00  0.00     0.133 C 
BRANCH  15  16
HETATM   16  C   UNL     1      -1.846  -5.163  -0.076  1.00  0.00     0.122 C 
BRANCH  16  17
HETATM   17  C   UNL     1      -3.362  -5.197  -0.137  1.00  0.00     0.221 C 
HETATM   18  O   UNL     1      -3.994  -4.223  -0.555  1.00  0.00    -0.273 OA
HETATM   19  N   UNL     1      -4.000  -6.360   0.285  1.00  0.00    -0.352 N 
HETATM   20  C   UNL     1      -3.310  -7.495   0.901  1.00  0.00     0.125 C 
HETATM   21  C   UNL     1      -5.437  -6.273   0.543  1.00  0.00     0.125 C 
HETATM   22  C   UNL     1      -4.019  -8.820   0.630  1.00  0.00     0.020 C 
HETATM   23  C   UNL     1      -5.509  -8.750   0.945  1.00  0.00     0.003 C 
HETATM   24  C   UNL     1      -6.155  -7.576   0.221  1.00  0.00     0.020 C 
ENDBRANCH  16  17
ENDBRANCH  15  16
ENDBRANCH   4  15
TORSDOF 4
