REMARK  4 active torsions:
REMARK  status: ('A' for Active; 'I' for Inactive)
REMARK       I    between atoms: N_2  and  C_3 
REMARK    1  A    between atoms: C_3  and  C_5 
REMARK    2  A    between atoms: C_5  and  N_6 
REMARK    3  A    between atoms: C_9  and  N_12 
REMARK       I    between atoms: N_12  and  C_13 
REMARK       I    between atoms: C_13  and  N_15 
REMARK    4  A    between atoms: N_15  and  C_16 
ROOT
HETATM    1  N   UNL     1       6.824  -5.161  -0.390  1.00  0.00    -0.338 N 
HETATM    2  C   UNL     1       7.861  -5.634  -1.165  1.00  0.00     0.322 C 
HETATM    3  O   UNL     1       8.154  -5.131  -2.245  1.00  0.00    -0.247 OA
HETATM    4  N   UNL     1       8.459  -6.738  -0.609  1.00  0.00    -0.295 N 
HETATM    5  H   UNL     1       6.953  -5.269   0.608  1.00  0.00     0.164 HD
HETATM    6  H   UNL     1       7.832  -7.369  -0.132  1.00  0.00     0.172 HD
ENDROOT
BRANCH   1   7
HETATM    7  C   UNL     1       6.040  -4.027  -0.876  1.00  0.00     0.089 C 
HETATM    8  C   UNL     1       6.770  -2.697  -0.674  1.00  0.00     0.055 C 
HETATM    9  C   UNL     1       6.689  -2.206   0.776  1.00  0.00     0.275 C 
HETATM   10  N   UNL     1       5.313  -2.139   1.321  1.00  0.00     0.097 N 
HETATM   11  C   UNL     1       4.663  -3.452   1.170  1.00  0.00     0.275 C 
HETATM   12  C   UNL     1       4.647  -4.001  -0.253  1.00  0.00     0.055 C 
BRANCH  10  13
HETATM   13  C   UNL     1       4.577  -1.017   0.680  1.00  0.00     0.374 C 
BRANCH  13  14
HETATM   14  C   UNL     1       3.158  -0.811   1.214  1.00  0.00     0.245 C 
HETATM   15  N   UNL     1       2.976  -1.122   2.541  1.00  0.00    -0.364 N 
HETATM   16  C   UNL     1       1.681  -1.027   3.160  1.00  0.00     0.149 C 
HETATM   17  H   UNL     1       3.763  -1.538   3.029  1.00  0.00     0.161 HD
HETATM   18  O   UNL     1       2.266  -0.348   0.506  1.00  0.00    -0.272 OA
ENDBRANCH  13  14
ENDBRANCH  10  13
ENDBRANCH   1   7
BRANCH   4  19
HETATM   19  C   UNL     1       9.473  -7.420  -1.292  1.00  0.00     0.108 A 
HETATM   20  C   UNL     1      10.497  -6.739  -1.944  1.00  0.00     0.049 A 
HETATM   21  C   UNL     1      11.392  -7.463  -2.723  1.00  0.00     0.005 A 
HETATM   22  C   UNL     1      11.238  -8.838  -2.822  1.00  0.00     0.017 A 
HETATM   23  C   UNL     1      10.222  -9.437  -2.093  1.00  0.00     0.089 A 
HETATM   24  N   UNL     1       9.358  -8.763  -1.301  1.00  0.00    -0.352 N 
ATOM     25  HN  UNL     1       8.656  -9.245  -0.740  1.00  0.00     0.166 HD
ENDBRANCH   4  19
TORSDOF 4
