REMARK  2 active torsions:
REMARK  status: ('A' for Active; 'I' for Inactive)
REMARK       I    between atoms: N_8  and  C_9 
REMARK       I    between atoms: C_9  and  N_11 
REMARK    1  A    between atoms: N_11  and  C_12 
REMARK    2  A    between atoms: C_15  and  O_16 
ROOT
HETATM    1  C   UNL     1       3.492   1.323  -2.704  1.00  0.00     0.078 C 
HETATM    2  C   UNL     1       4.629   1.131  -1.775  1.00  0.00     0.066 A 
HETATM    3  N   UNL     1       5.528   0.179  -1.903  1.00  0.00    -0.296 N 
ATOM      4  HN  UNL     1       5.504  -0.538  -2.628  1.00  0.00     0.187 HD
HETATM    5  N   UNL     1       6.501   0.269  -0.942  1.00  0.00    -0.279 N 
ATOM      6  HN  UNL     1       7.289  -0.375  -0.871  1.00  0.00     0.189 HD
HETATM    7  C   UNL     1       6.307   1.273  -0.125  1.00  0.00     0.169 A 
HETATM    8  N   UNL     1       7.115   1.684   0.894  1.00  0.00    -0.288 N 
HETATM    9  C   UNL     1       8.386   1.215   1.096  1.00  0.00     0.322 C 
HETATM   10  O   UNL     1       9.070   1.684   2.008  1.00  0.00    -0.247 OA
HETATM   11  N   UNL     1       8.847   0.287   0.209  1.00  0.00    -0.338 N 
HETATM   12  S   UNL     1       4.894   2.176  -0.426  1.00  0.00    -0.038 SA
HETATM   13  H   UNL     1       6.823   2.454   1.477  1.00  0.00     0.172 HD
HETATM   14  H   UNL     1       8.171  -0.142  -0.416  1.00  0.00     0.164 HD
ENDROOT
BRANCH  11  15
HETATM   15  C   UNL     1      10.228  -0.149   0.123  1.00  0.00     0.086 C 
HETATM   16  C   UNL     1      10.614  -0.386  -1.345  1.00  0.00     0.028 C 
HETATM   17  C   UNL     1      10.168  -1.741  -1.899  1.00  0.00     0.034 C 
HETATM   18  C   UNL     1      10.589  -2.900  -1.002  1.00  0.00     0.118 C 
HETATM   19  C   UNL     1      10.081  -2.704   0.424  1.00  0.00     0.034 C 
HETATM   20  C   UNL     1      10.493  -1.358   1.028  1.00  0.00     0.028 C 
BRANCH  18  21
HETATM   21  O   UNL     1      12.007  -3.047  -1.014  1.00  0.00    -0.396 OA
HETATM   22  H   UNL     1      12.416  -2.253  -0.634  1.00  0.00     0.210 HD
ENDBRANCH  18  21
ENDBRANCH  11  15
TORSDOF 2
