REMARK  7 active torsions:
REMARK  status: ('A' for Active; 'I' for Inactive)
REMARK    1  A    between atoms: O_2  and  C_3 
REMARK    2  A    between atoms: C_3  and  C_4 
REMARK    3  A    between atoms: C_4  and  N_5 
REMARK    4  A    between atoms: C_6  and  S_7 
REMARK    5  A    between atoms: S_7  and  C_8 
REMARK    6  A    between atoms: C_8  and  C_9 
REMARK    7  A    between atoms: C_14  and  N_15 
ROOT
HETATM    1  N   UNL     1       4.725   1.628   2.154  1.00  0.00    -0.324 N 
HETATM    2  C   UNL     1       4.585   2.997   2.219  1.00  0.00     0.148 A 
HETATM    3  N   UNL     1       5.095   3.492   3.321  1.00  0.00    -0.335 N 
ATOM      4  HN  UNL     1       5.154   4.474   3.589  1.00  0.00     0.168 HD
HETATM    5  C   UNL     1       5.533   2.404   4.038  1.00  0.00     0.062 A 
HETATM    6  C   UNL     1       6.083   2.356   5.329  1.00  0.00     0.055 A 
HETATM    7  C   UNL     1       6.447   1.111   5.849  1.00  0.00     0.036 A 
HETATM    8 CL   UNL     1       7.088   1.017   7.446  1.00  0.00    -0.084 Cl
HETATM    9  C   UNL     1       6.295  -0.059   5.105  1.00  0.00     0.026 A 
HETATM   10  C   UNL     1       5.745  -0.028   3.818  1.00  0.00     0.034 A 
HETATM   11  C   UNL     1       5.359   1.223   3.316  1.00  0.00     0.063 A 
ENDROOT
BRANCH   2  12
HETATM   12  S   UNL     1       3.740   3.925   1.024  1.00  0.00    -0.086 SA
BRANCH  12  13
HETATM   13  C   UNL     1       4.639   5.511   1.081  1.00  0.00     0.158 C 
BRANCH  13  14
HETATM   14  C   UNL     1       4.064   6.498   0.090  1.00  0.00     0.091 A 
HETATM   15  N   UNL     1       4.589   6.528  -1.156  1.00  0.00    -0.355 N 
HETATM   16  C   UNL     1       4.005   7.372  -2.028  1.00  0.00     0.092 A 
ATOM     17  HN  UNL     1       5.383   5.944  -1.420  1.00  0.00     0.166 HD
HETATM   18  C   UNL     1       2.941   8.178  -1.706  1.00  0.00     0.059 A 
HETATM   19  C   UNL     1       2.490   8.095  -0.410  1.00  0.00     0.080 A 
HETATM   20  N   UNL     1       3.028   7.268   0.494  1.00  0.00    -0.336 N 
ATOM     21  HN  UNL     1       2.671   7.220   1.448  1.00  0.00     0.168 HD
BRANCH  19  22
HETATM   22  N   UNL     1       1.390   8.843   0.004  1.00  0.00    -0.289 NA
HETATM   23  H   UNL     1       1.495   9.830  -0.198  1.00  0.00     0.125 HD
HETATM   24  H   UNL     1       1.259   8.667   0.997  1.00  0.00     0.125 HD
ENDBRANCH  19  22
ENDBRANCH  13  14
ENDBRANCH  12  13
ENDBRANCH   2  12
BRANCH   1  25
HETATM   25  C   UNL     1       4.187   0.732   1.149  1.00  0.00     0.157 C 
BRANCH  25  26
HETATM   26  C   UNL     1       4.794   0.888  -0.242  1.00  0.00     0.187 C 
BRANCH  26  27
HETATM   27  O   UNL     1       4.233  -0.114  -1.096  1.00  0.00    -0.394 OA
HETATM   28  C   UNL     1       4.652   0.061  -2.445  1.00  0.00     0.201 C 
ENDBRANCH  26  27
ENDBRANCH  25  26
ENDBRANCH   1  25
TORSDOF 7
