REMARK  7 active torsions:
REMARK  status: ('A' for Active; 'I' for Inactive)
REMARK    1  A    between atoms: O_2  and  C_3 
REMARK    2  A    between atoms: C_3  and  C_4 
REMARK    3  A    between atoms: C_4  and  N_5 
REMARK    4  A    between atoms: C_8  and  C_9 
REMARK    5  A    between atoms: C_9  and  N_10 
REMARK       I    between atoms: N_10  and  C_11 
REMARK    6  A    between atoms: C_11  and  C_13 
REMARK    7  A    between atoms: C_13  and  N_14 
ROOT
HETATM    1  C   UNL     1       5.560  -5.618  -1.029  1.00  0.00     0.127 C 
ENDROOT
BRANCH   1   2
HETATM    2  C   UNL     1       4.834  -4.553  -0.185  1.00  0.00     0.007 C 
HETATM    3  C   UNL     1       3.628  -3.935  -0.914  1.00  0.00     0.036 C 
HETATM    4  C   UNL     1       4.045  -2.987  -2.046  1.00  0.00     0.273 C 
HETATM    5  N   UNL     1       5.006  -1.949  -1.639  1.00  0.00     0.090 N 
HETATM    6  C   UNL     1       6.173  -2.550  -0.978  1.00  0.00     0.273 C 
HETATM    7  C   UNL     1       5.809  -3.435   0.216  1.00  0.00     0.036 C 
BRANCH   5   8
HETATM    8  C   UNL     1       4.353  -0.883  -0.852  1.00  0.00     0.298 C 
BRANCH   8   9
HETATM    9  C   UNL     1       5.277   0.290  -0.482  1.00  0.00     0.197 C 
BRANCH   9  10
HETATM   10  O   UNL     1       4.536   1.283   0.232  1.00  0.00    -0.394 OA
HETATM   11  C   UNL     1       5.387   2.345   0.651  1.00  0.00     0.201 C 
ENDBRANCH   9  10
ENDBRANCH   8   9
ENDBRANCH   5   8
ENDBRANCH   1   2
BRANCH   1  12
HETATM   12  N   UNL     1       4.726  -6.762  -1.326  1.00  0.00    -0.359 N 
HETATM   13  C   UNL     1       4.639  -7.841  -0.472  1.00  0.00     0.237 C 
HETATM   14  O   UNL     1       5.215  -7.886   0.612  1.00  0.00    -0.272 OA
HETATM   15  H   UNL     1       4.229  -6.767  -2.210  1.00  0.00     0.162 HD
BRANCH  13  16
HETATM   16  C   UNL     1       3.779  -8.979  -0.963  1.00  0.00     0.249 C 
BRANCH  16  17
HETATM   17  N   UNL     1       4.566 -10.168  -1.150  1.00  0.00    -0.264 N 
HETATM   18  C   UNL     1       5.218 -10.919  -0.225  1.00  0.00     0.213 A 
HETATM   19  N   UNL     1       5.758 -11.951  -0.837  1.00  0.00    -0.281 N 
HETATM   20  N   UNL     1       5.421 -11.819  -2.164  1.00  0.00    -0.008 NA
ATOM     21  HN  UNL     1       6.312 -12.696  -0.414  1.00  0.00     0.184 HD
HETATM   22  N   UNL     1       4.685 -10.732  -2.364  1.00  0.00    -0.005 NA
ENDBRANCH  16  17
ENDBRANCH  13  16
ENDBRANCH   1  12
TORSDOF 7
