REMARK  8 active torsions:
REMARK  status: ('A' for Active; 'I' for Inactive)
REMARK    1  A    between atoms: C_7  and  O_8 
REMARK    2  A    between atoms: O_8  and  C_9 
REMARK    3  A    between atoms: C_9  and  C_10 
REMARK    4  A    between atoms: C_10  and  O_11 
REMARK    5  A    between atoms: C_10  and  C_12 
REMARK    6  A    between atoms: C_12  and  N_13 
REMARK    7  A    between atoms: C_14  and  C_15 
REMARK    8  A    between atoms: C_15  and  O_16 
ROOT
HETATM    1  C   UNL     1       5.490  -4.826  -0.034  1.00  0.00     0.160 C 
ENDROOT
BRANCH   1   2
HETATM    2  C   UNL     1       4.419  -3.755   0.198  1.00  0.00     0.209 C 
BRANCH   2   3
HETATM    3  O   UNL     1       5.018  -2.516   0.547  1.00  0.00    -0.347 OA
BRANCH   3   4
HETATM    4  C   UNL     1       4.241  -1.395   0.713  1.00  0.00     0.081 A 
HETATM    5  C   UNL     1       5.039  -0.236   0.939  1.00  0.00    -0.028 A 
HETATM    6  C   UNL     1       4.443   1.014   1.139  1.00  0.00     0.010 A 
HETATM    7  C   UNL     1       6.549  -0.297   0.927  1.00  0.00     0.051 C 
HETATM    8  C   UNL     1       3.064   1.144   1.113  1.00  0.00     0.008 A 
HETATM    9  C   UNL     1       2.254   0.027   0.885  1.00  0.00    -0.053 A 
HETATM   10  C   UNL     1       0.758   0.250   0.837  1.00  0.00     0.049 C 
HETATM   11  C   UNL     1       2.830  -1.270   0.709  1.00  0.00    -0.022 A 
HETATM   12  C   UNL     1       1.811  -2.370   0.484  1.00  0.00     0.052 C 
ENDBRANCH   3   4
ENDBRANCH   2   3
ENDBRANCH   1   2
BRANCH   1  13
HETATM   13  O   UNL     1       6.190  -5.071   1.198  1.00  0.00    -0.392 OA
HETATM   14  H   UNL     1       6.233  -4.219   1.676  1.00  0.00     0.210 HD
ENDBRANCH   1  13
BRANCH   1  15
HETATM   15  C   UNL     1       4.861  -6.157  -0.475  1.00  0.00     0.164 C 
BRANCH  15  16
HETATM   16  N   UNL     1       4.073  -6.108  -1.693  1.00  0.00    -0.330 N 
HETATM   17  C   UNL     1       2.725  -6.369  -1.842  1.00  0.00     0.108 A 
HETATM   18  N   UNL     1       2.344  -6.180  -3.091  1.00  0.00    -0.342 N 
HETATM   19  C   UNL     1       3.466  -5.798  -3.771  1.00  0.00     0.060 A 
ATOM     20  HN  UNL     1       1.405  -6.295  -3.471  1.00  0.00     0.167 HD
HETATM   21  C   UNL     1       3.605  -5.450  -5.118  1.00  0.00     0.032 A 
HETATM   22  C   UNL     1       4.573  -5.761  -2.931  1.00  0.00     0.062 A 
HETATM   23  C   UNL     1       4.871  -5.064  -5.588  1.00  0.00     0.002 A 
HETATM   24  C   UNL     1       5.968  -5.045  -4.734  1.00  0.00     0.002 A 
HETATM   25  C   UNL     1       5.849  -5.414  -3.390  1.00  0.00     0.032 A 
BRANCH  17  26
HETATM   26  C   UNL     1       1.780  -6.773  -0.756  1.00  0.00     0.240 C 
BRANCH  26  27
HETATM   27  O   UNL     1       0.842  -7.682  -1.327  1.00  0.00    -0.393 OA
HETATM   28  H   UNL     1       0.751  -7.407  -2.261  1.00  0.00     0.209 HD
ENDBRANCH  26  27
ENDBRANCH  17  26
ENDBRANCH  15  16
ENDBRANCH   1  15
TORSDOF 8
