REMARK  3 active torsions:
REMARK  status: ('A' for Active; 'I' for Inactive)
REMARK    1  A    between atoms: N_4  and  C_8 
REMARK    2  A    between atoms: C_11  and  C_12 
REMARK    3  A    between atoms: C_12  and  N_13 
ROOT
HETATM    1  C   UNL     1       1.943   1.436  -3.518  1.00  0.00     0.103 A 
HETATM    2  C   UNL     1       1.527   0.974  -4.768  1.00  0.00     0.049 A 
HETATM    3  C   UNL     1       0.988   1.851  -5.707  1.00  0.00     0.014 A 
HETATM    4  C   UNL     1       0.851   3.199  -5.400  1.00  0.00    -0.015 A 
HETATM    5  C   UNL     1       1.253   3.583  -4.132  1.00  0.00     0.098 A 
HETATM    6  N   UNL     1       1.785   2.745  -3.210  1.00  0.00    -0.352 N 
ATOM      7  HN  UNL     1       2.063   3.096  -2.294  1.00  0.00     0.166 HD
ENDROOT
BRANCH   1   8
HETATM    8  N   UNL     1       2.444   0.588  -2.557  1.00  0.00    -0.363 N 
HETATM    9  C   UNL     1       2.836   1.125  -1.246  1.00  0.00     0.155 C 
HETATM   10  C   UNL     1       2.452   0.103  -0.149  1.00  0.00     0.135 C 
HETATM   11  C   UNL     1       0.942   0.063   0.085  1.00  0.00     0.041 C 
HETATM   12  O   UNL     1       2.975  -1.215  -0.424  1.00  0.00    -0.383 OA
HETATM   13  C   UNL     1       2.623  -1.694  -1.732  1.00  0.00     0.188 C 
HETATM   14  C   UNL     1       3.048  -0.716  -2.837  1.00  0.00     0.150 C 
ENDBRANCH   1   8
BRANCH   4  15
HETATM   15  C   UNL     1       0.293   4.173  -6.393  1.00  0.00     0.306 C 
BRANCH  15  16
HETATM   16  N   UNL     1       1.124   4.237  -7.590  1.00  0.00     0.082 N 
HETATM   17  H   UNL     1       2.058   4.556  -7.336  1.00  0.00     0.313 HD
HETATM   18  H   UNL     1       0.744   4.930  -8.231  1.00  0.00     0.313 HD
ENDBRANCH  15  16
ENDBRANCH   4  15
TORSDOF 3
