REMARK  9 active torsions:
REMARK  status: ('A' for Active; 'I' for Inactive)
REMARK    1  A    between atoms: N_2  and  C_15 
REMARK    2  A    between atoms: C_3  and  N_7 
REMARK    3  A    between atoms: N_13  and  C_20 
REMARK    4  A    between atoms: C_15  and  C_17 
REMARK    5  A    between atoms: C_17  and  C_24 
REMARK    6  A    between atoms: C_17  and  C_26 
REMARK    7  A    between atoms: C_20  and  C_22 
REMARK    8  A    between atoms: C_22  and  O_25 
REMARK    9  A    between atoms: C_26  and  O_28 
ROOT
HETATM    1  C   UNL     1       0.393  -0.715  -0.518  1.00  0.00     0.122 A 
HETATM    2  N   UNL     1       1.546   1.142  -0.430  1.00  0.00    -0.327 N 
HETATM    3  C   UNL     1      -0.808  -1.476  -0.488  1.00  0.00     0.135 A 
HETATM    4  C   UNL     1       0.277   0.663  -0.619  1.00  0.00     0.140 A 
HETATM    5  N   UNL     1       1.730  -1.062  -0.375  1.00  0.00    -0.346 N 
ATOM      6  HN  UNL     1       2.120  -2.003  -0.329  1.00  0.00     0.167 HD
HETATM    7  C   UNL     1       2.388   0.073  -0.311  1.00  0.00     0.185 A 
HETATM    8  N   UNL     1      -1.968  -0.773  -0.681  1.00  0.00    -0.337 N 
ATOM      9  HN  UNL     1      -2.863  -1.260  -0.718  1.00  0.00     0.168 HD
HETATM   10  N   UNL     1      -0.846   1.379  -0.775  1.00  0.00    -0.336 N 
ATOM     11  HN  UNL     1      -0.881   2.396  -0.848  1.00  0.00     0.168 HD
HETATM   12  C   UNL     1      -1.919   0.570  -0.822  1.00  0.00     0.183 A 
ENDROOT
BRANCH   3  13
HETATM   13  N   UNL     1      -0.868  -2.850  -0.232  1.00  0.00    -0.358 N 
HETATM   14  C   UNL     1       0.226  -3.424   0.580  1.00  0.00     0.110 C 
HETATM   15  C   UNL     1       0.156  -4.975   0.512  1.00  0.00     0.297 C 
HETATM   16  C   UNL     1       0.239  -2.842   2.000  1.00  0.00     0.034 C 
HETATM   17  N   UNL     1      -1.124  -5.638   0.820  1.00  0.00     0.095 N 
HETATM   18  C   UNL     1      -2.153  -4.984  -0.046  1.00  0.00     0.292 C 
HETATM   19  C   UNL     1      -2.202  -3.428  -0.003  1.00  0.00     0.155 C 
BRANCH  17  20
HETATM   20  C   UNL     1      -1.559  -5.640   2.230  1.00  0.00     0.309 C 
BRANCH  20  21
HETATM   21  C   UNL     1      -0.720  -6.410   3.304  1.00  0.00     0.077 C 
HETATM   22  C   UNL     1       0.680  -5.889   3.629  1.00  0.00     0.047 C 
HETATM   23  C   UNL     1      -1.514  -6.392   4.620  1.00  0.00     0.047 C 
BRANCH  21  24
HETATM   24  O   UNL     1      -0.582  -7.772   2.886  1.00  0.00    -0.389 OA
HETATM   25  H   UNL     1      -0.410  -7.734   1.925  1.00  0.00     0.210 HD
ENDBRANCH  21  24
ENDBRANCH  20  21
ENDBRANCH  17  20
ENDBRANCH   3  13
BRANCH   2  26
HETATM   26  C   UNL     1       1.893   2.507  -0.110  1.00  0.00     0.138 C 
BRANCH  26  27
HETATM   27  C   UNL     1       2.929   3.172  -1.035  1.00  0.00     0.034 C 
BRANCH  27  28
HETATM   28  C   UNL     1       2.446   3.244  -2.506  1.00  0.00     0.019 C 
HETATM   29  C   UNL     1       3.458   3.888  -3.455  1.00  0.00     0.172 C 
HETATM   30  O   UNL     1       2.886   5.131  -3.872  1.00  0.00    -0.391 OA
HETATM   31  C   UNL     1       1.472   4.933  -3.908  1.00  0.00     0.168 C 
HETATM   32  C   UNL     1       1.170   4.054  -2.716  1.00  0.00     0.033 C 
ENDBRANCH  27  28
BRANCH  27  33
HETATM   33  C   UNL     1       3.302   4.539  -0.432  1.00  0.00     0.170 C 
BRANCH  33  34
HETATM   34  O   UNL     1       3.921   4.346   0.838  1.00  0.00    -0.400 OA
HETATM   35  H   UNL     1       3.227   4.343   1.520  1.00  0.00     0.209 HD
ENDBRANCH  33  34
ENDBRANCH  27  33
ENDBRANCH  26  27
ENDBRANCH   2  26
TORSDOF 9
