REMARK  4 active torsions:
REMARK  status: ('A' for Active; 'I' for Inactive)
REMARK    1  A    between atoms: C_6  and  C_7 
REMARK    2  A    between atoms: C_6  and  N_20 
REMARK    3  A    between atoms: C_7  and  N_8 
REMARK       I    between atoms: N_8  and  C_9 
REMARK       I    between atoms: C_9  and  N_11 
REMARK    4  A    between atoms: N_11  and  C_12 
ROOT
HETATM    1  N   UNL     1       0.552  -1.790  -3.375  1.00  0.00    -0.340 N 
HETATM    2  C   UNL     1      -0.189  -0.838  -4.043  1.00  0.00     0.320 C 
HETATM    3  O   UNL     1      -0.472   0.244  -3.541  1.00  0.00    -0.247 OA
HETATM    4  N   UNL     1      -0.611  -1.275  -5.281  1.00  0.00    -0.308 N 
HETATM    5  H   UNL     1       1.040  -2.502  -3.899  1.00  0.00     0.164 HD
HETATM    6  H   UNL     1      -0.590  -2.275  -5.416  1.00  0.00     0.170 HD
ENDROOT
BRANCH   1   7
HETATM    7  C   UNL     1       1.027  -1.540  -2.019  1.00  0.00     0.166 C 
BRANCH   7   8
HETATM    8  C   UNL     1       2.581  -1.712  -1.825  1.00  0.00     0.175 C 
HETATM    9  C   UNL     1       3.290  -0.658  -2.727  1.00  0.00     0.043 C 
HETATM   10  C   UNL     1       2.951   0.787  -2.359  1.00  0.00     0.003 C 
HETATM   11  C   UNL     1       3.162   1.114  -0.884  1.00  0.00     0.004 C 
HETATM   12  C   UNL     1       2.757   0.043   0.142  1.00  0.00    -0.016 C 
HETATM   13  C   UNL     1       1.376   0.243   0.776  1.00  0.00     0.010 C 
HETATM   14  C   UNL     1       2.986  -1.398  -0.349  1.00  0.00     0.047 C 
BRANCH   8  15
HETATM   15  N   UNL     1       2.997  -3.108  -2.246  1.00  0.00     0.091 N 
HETATM   16  C   UNL     1       4.437  -3.384  -2.112  1.00  0.00     0.310 C 
HETATM   17  C   UNL     1       2.272  -4.181  -1.548  1.00  0.00     0.310 C 
ENDBRANCH   8  15
ENDBRANCH   7   8
ENDBRANCH   1   7
BRANCH   4  18
HETATM   18  C   UNL     1      -1.378  -0.512  -6.191  1.00  0.00     0.051 A 
HETATM   19  C   UNL     1      -1.466   0.880  -6.146  1.00  0.00     0.032 A 
HETATM   20  C   UNL     1      -2.292   1.557  -7.045  1.00  0.00     0.019 A 
HETATM   21  C   UNL     1      -3.000   0.816  -7.974  1.00  0.00     0.088 A 
HETATM   22  N   UNL     1      -2.915  -0.528  -8.081  1.00  0.00    -0.373 N 
HETATM   23  C   UNL     1      -2.105  -1.155  -7.192  1.00  0.00     0.117 A 
ATOM     24  HN  UNL     1      -3.433  -1.044  -8.793  1.00  0.00     0.164 HD
ENDBRANCH   4  18
TORSDOF 4
