REMARK  5 active torsions:
REMARK  status: ('A' for Active; 'I' for Inactive)
REMARK    1  A    between atoms: O_2  and  C_3 
REMARK    2  A    between atoms: C_3  and  C_4 
REMARK    3  A    between atoms: C_4  and  N_5 
REMARK    4  A    between atoms: C_7  and  N_8 
REMARK       I    between atoms: N_8  and  C_9 
REMARK       I    between atoms: C_9  and  N_11 
REMARK    5  A    between atoms: N_11  and  C_12 
ROOT
HETATM    1  N   UNL     1       6.074   1.439  -5.706  1.00  0.00    -0.306 N 
HETATM    2  C   UNL     1       6.065   2.816  -5.623  1.00  0.00     0.321 C 
HETATM    3  O   UNL     1       5.619   3.479  -4.694  1.00  0.00    -0.247 OA
HETATM    4  N   UNL     1       6.655   3.418  -6.717  1.00  0.00    -0.337 N 
HETATM    5  H   UNL     1       6.558   0.998  -6.473  1.00  0.00     0.171 HD
HETATM    6  H   UNL     1       6.768   2.888  -7.568  1.00  0.00     0.164 HD
ENDROOT
BRANCH   1   7
HETATM    7  C   UNL     1       5.527   0.613  -4.739  1.00  0.00     0.070 A 
HETATM    8  C   UNL     1       4.860   0.992  -3.601  1.00  0.00     0.141 A 
HETATM    9  N   UNL     1       4.505  -0.150  -2.954  1.00  0.00    -0.299 N 
HETATM   10  N   UNL     1       4.896  -1.270  -3.595  1.00  0.00    -0.308 N 
HETATM   11  C   UNL     1       5.520  -0.800  -4.683  1.00  0.00     0.138 A 
ATOM     12  HN  UNL     1       4.751  -2.241  -3.318  1.00  0.00     0.186 HD
BRANCH   9  13
HETATM   13  C   UNL     1       3.774  -0.216  -1.708  1.00  0.00     0.174 C 
BRANCH  13  14
HETATM   14  C   UNL     1       4.601  -0.815  -0.584  1.00  0.00     0.188 C 
BRANCH  14  15
HETATM   15  O   UNL     1       3.836  -0.757   0.624  1.00  0.00    -0.394 OA
HETATM   16  C   UNL     1       4.536  -1.351   1.710  1.00  0.00     0.201 C 
ENDBRANCH  14  15
ENDBRANCH  13  14
ENDBRANCH   9  13
ENDBRANCH   1   7
BRANCH   4  17
HETATM   17  C   UNL     1       6.757   4.846  -6.781  1.00  0.00     0.095 A 
HETATM   18  C   UNL     1       7.482   5.528  -7.909  1.00  0.00     0.015 A 
HETATM   19  C   UNL     1       7.002   6.867  -8.394  1.00  0.00     0.007 C 
HETATM   20  C   UNL     1       8.094   5.493  -6.531  1.00  0.00     0.015 A 
HETATM   21  C   UNL     1       8.043   7.969  -8.155  1.00  0.00     0.000 C 
HETATM   22  C   UNL     1       8.915   7.765  -6.904  1.00  0.00     0.000 C 
HETATM   23  C   UNL     1       8.258   6.835  -5.883  1.00  0.00     0.007 C 
ENDBRANCH   4  17
TORSDOF 5
