REMARK  4 active torsions:
REMARK  status: ('A' for Active; 'I' for Inactive)
REMARK    1  A    between atoms: O_1  and  C_2 
REMARK    2  A    between atoms: C_2  and  C_3 
REMARK    3  A    between atoms: C_2  and  C_14 
REMARK    4  A    between atoms: C_3  and  N_4 
ROOT
HETATM    1  C   UNL     1       2.946  -1.090   1.030  1.00  0.00     0.166 C 
ENDROOT
BRANCH   1   2
HETATM    2  C   UNL     1       2.375  -0.189  -0.082  1.00  0.00     0.172 C 
BRANCH   2   3
HETATM    3  O   UNL     1       2.857   1.154   0.029  1.00  0.00    -0.389 OA
HETATM    4  H   UNL     1       3.820   1.137  -0.084  1.00  0.00     0.210 HD
ENDBRANCH   2   3
BRANCH   2   5
HETATM    5  C   UNL     1       0.866  -0.193  -0.151  1.00  0.00     0.011 A 
HETATM    6  C   UNL     1       0.089   0.773   0.505  1.00  0.00     0.013 A 
HETATM    7  C   UNL     1      -1.306   0.714   0.463  1.00  0.00     0.001 A 
HETATM    8  C   UNL     1      -1.944  -0.307  -0.240  1.00  0.00     0.003 A 
HETATM    9  C   UNL     1      -1.186  -1.273  -0.898  1.00  0.00     0.043 A 
HETATM   10  C   UNL     1       0.204  -1.212  -0.844  1.00  0.00     0.125 A 
HETATM   11  F   UNL     1       0.918  -2.166  -1.459  1.00  0.00    -0.205 F 
ENDBRANCH   2   5
ENDBRANCH   1   2
BRANCH   1  12
HETATM   12  N   UNL     1       2.514  -0.743   2.372  1.00  0.00    -0.338 N 
HETATM   13  C   UNL     1       1.426  -1.280   3.005  1.00  0.00     0.184 A 
HETATM   14  N   UNL     1       1.249  -0.758   4.196  1.00  0.00    -0.350 N 
HETATM   15  C   UNL     1       2.274   0.141   4.350  1.00  0.00     0.060 A 
ATOM     16  HN  UNL     1       0.509  -0.974   4.864  1.00  0.00     0.166 HD
HETATM   17  C   UNL     1       2.557   0.989   5.431  1.00  0.00     0.032 A 
HETATM   18  C   UNL     1       3.109   0.150   3.233  1.00  0.00     0.062 A 
HETATM   19  C   UNL     1       3.681   1.819   5.363  1.00  0.00     0.002 A 
HETATM   20  C   UNL     1       4.515   1.797   4.245  1.00  0.00     0.002 A 
HETATM   21  C   UNL     1       4.249   0.960   3.154  1.00  0.00     0.032 A 
ENDBRANCH   1  12
TORSDOF 4
