REMARK  3 active torsions:
REMARK  status: ('A' for Active; 'I' for Inactive)
REMARK    1  A    between atoms: C_5  and  N_6 
REMARK    2  A    between atoms: N_6  and  C_7 
REMARK    3  A    between atoms: C_7  and  C_8 
ROOT
HETATM    1  C   UNL     1       1.087  -0.122   0.460  1.00  0.00     0.183 C 
HETATM    2  N   UNL     1       2.519  -0.072   0.232  1.00  0.00    -0.245 N 
HETATM    3  N   UNL     1       3.158  -1.278   0.181  1.00  0.00    -0.275 N 
ATOM      4  HN  UNL     1       2.633  -2.147   0.278  1.00  0.00     0.189 HD
HETATM    5  C   UNL     1       4.446  -1.300   0.007  1.00  0.00     0.186 C 
HETATM    6  C   UNL     1       5.236   0.003  -0.118  1.00  0.00     0.296 C 
HETATM    7  O   UNL     1       6.460  -0.068  -0.150  1.00  0.00    -0.264 OA
HETATM    8  N   UNL     1       4.486   1.155  -0.181  1.00  0.00    -0.266 N 
HETATM    9  C   UNL     1       5.151   2.425  -0.375  1.00  0.00     0.165 C 
HETATM   10  C   UNL     1       3.121   1.165   0.030  1.00  0.00     0.345 C 
HETATM   11  O   UNL     1       2.475   2.216   0.055  1.00  0.00    -0.245 OA
ENDROOT
BRANCH   5  12
HETATM   12  N   UNL     1       5.158  -2.476  -0.075  1.00  0.00    -0.368 N 
HETATM   13  H   UNL     1       6.176  -2.406  -0.042  1.00  0.00     0.161 HD
BRANCH  12  14
HETATM   14  C   UNL     1       4.607  -3.802   0.119  1.00  0.00     0.153 C 
BRANCH  14  15
HETATM   15  C   UNL     1       5.240  -4.501   1.325  1.00  0.00     0.139 C 
HETATM   16  C   UNL     1       5.015  -3.819   2.667  1.00  0.00     0.035 C 
HETATM   17  C   UNL     1       6.301  -4.053   3.433  1.00  0.00     0.029 C 
HETATM   18  C   UNL     1       7.197  -4.814   2.478  1.00  0.00     0.168 C 
HETATM   19  O   UNL     1       6.668  -4.588   1.169  1.00  0.00    -0.384 OA
ENDBRANCH  14  15
ENDBRANCH  12  14
ENDBRANCH   5  12
TORSDOF 3
