REMARK  7 active torsions:
REMARK  status: ('A' for Active; 'I' for Inactive)
REMARK    1  A    between atoms: C_2  and  N_3 
REMARK    2  A    between atoms: N_3  and  C_4 
REMARK       I    between atoms: N_3  and  C_7 
REMARK    3  A    between atoms: C_7  and  C_9 
REMARK    4  A    between atoms: C_9  and  N_10 
REMARK    5  A    between atoms: N_10  and  C_11 
REMARK    6  A    between atoms: C_11  and  C_13 
REMARK    7  A    between atoms: C_13  and  N_15 
ROOT
HETATM    1  N   UNL     1       6.266  -2.484   1.879  1.00  0.00     0.098 N 
HETATM    2  H   UNL     1       6.589  -1.593   2.266  1.00  0.00     0.317 HD
ENDROOT
BRANCH   1   3
HETATM    3  C   UNL     1       4.799  -2.400   1.785  1.00  0.00     0.372 C 
BRANCH   3   4
HETATM    4  C   UNL     1       4.405  -1.207   0.898  1.00  0.00     0.248 C 
HETATM    5  N   UNL     1       4.627  -1.318  -0.483  1.00  0.00    -0.346 N 
HETATM    6  O   UNL     1       3.912  -0.196   1.411  1.00  0.00    -0.271 OA
BRANCH   5   7
HETATM    7  C   UNL     1       4.198  -0.205  -1.327  1.00  0.00     0.122 C 
HETATM    8  C   UNL     1       2.712  -0.252  -1.644  1.00  0.00     0.026 C 
ENDBRANCH   5   7
BRANCH   5   9
HETATM    9  C   UNL     1       5.065  -2.538  -1.125  1.00  0.00     0.087 A 
HETATM   10  C   UNL     1       6.508  -2.968  -1.044  1.00  0.00     0.027 A 
HETATM   11  C   UNL     1       5.936  -2.577  -2.361  1.00  0.00     0.027 A 
ENDBRANCH   5   9
ENDBRANCH   3   4
ENDBRANCH   1   3
BRANCH   1  12
HETATM   12  C   UNL     1       6.778  -3.586   2.714  1.00  0.00     0.241 C 
HETATM   13  C   UNL     1       6.253  -4.957   2.256  1.00  0.00     0.045 C 
BRANCH  12  14
HETATM   14  C   UNL     1       8.344  -3.604   2.758  1.00  0.00     0.136 C 
HETATM   15  C   UNL     1       9.031  -3.839   1.403  1.00  0.00     0.036 C 
BRANCH  14  16
HETATM   16  N   UNL     1       8.867  -2.415   3.432  1.00  0.00    -0.297 N 
HETATM   17  C   UNL     1       9.219  -1.214   2.875  1.00  0.00     0.112 A 
HETATM   18  C   UNL     1       9.603  -0.401   3.916  1.00  0.00     0.037 A 
HETATM   19  C   UNL     1       9.452  -1.202   5.058  1.00  0.00     0.108 A 
HETATM   20  N   UNL     1       9.003  -2.427   4.772  1.00  0.00    -0.310 N 
ATOM     21  HN  UNL     1       8.809  -3.193   5.417  1.00  0.00     0.186 HD
ENDBRANCH  14  16
ENDBRANCH  12  14
ENDBRANCH   1  12
TORSDOF 7
