REMARK  6 active torsions:
REMARK  status: ('A' for Active; 'I' for Inactive)
REMARK    1  A    between atoms: N_2  and  C_15 
REMARK    2  A    between atoms: C_3  and  N_7 
REMARK    3  A    between atoms: N_7  and  C_9 
REMARK    4  A    between atoms: N_7  and  C_26 
REMARK    5  A    between atoms: C_15  and  C_18 
REMARK    6  A    between atoms: C_18  and  O_25 
ROOT
HETATM    1  C   UNL     1       0.356  -0.756  -0.226  1.00  0.00     0.122 A 
HETATM    2  N   UNL     1       1.421   1.162  -0.186  1.00  0.00    -0.324 N 
HETATM    3  C   UNL     1      -0.804  -1.577  -0.185  1.00  0.00     0.136 A 
HETATM    4  C   UNL     1       0.165   0.618  -0.193  1.00  0.00     0.140 A 
HETATM    5  N   UNL     1       1.714  -1.037  -0.264  1.00  0.00    -0.346 N 
ATOM      6  HN  UNL     1       2.153  -1.957  -0.308  1.00  0.00     0.167 HD
HETATM    7  C   UNL     1       2.318   0.132  -0.232  1.00  0.00     0.185 A 
HETATM    8  N   UNL     1      -2.004  -0.915  -0.176  1.00  0.00    -0.337 N 
ATOM      9  HN  UNL     1      -2.877  -1.442  -0.194  1.00  0.00     0.168 HD
HETATM   10  N   UNL     1      -0.994   1.286  -0.145  1.00  0.00    -0.336 N 
ATOM     11  HN  UNL     1      -1.078   2.302  -0.114  1.00  0.00     0.168 HD
HETATM   12  C   UNL     1      -2.031   0.431  -0.144  1.00  0.00     0.183 A 
ENDROOT
BRANCH   3  13
HETATM   13  N   UNL     1      -0.801  -2.972  -0.116  1.00  0.00    -0.352 N 
BRANCH  13  14
HETATM   14  C   UNL     1       0.382  -3.638   0.454  1.00  0.00     0.179 C 
HETATM   15  C   UNL     1       0.367  -5.174   0.573  1.00  0.00     0.240 C 
HETATM   16  N   UNL     1       0.965  -5.513   1.782  1.00  0.00    -0.359 N 
HETATM   17  O   UNL     1      -0.002  -6.004  -0.243  1.00  0.00    -0.271 OA
HETATM   18  C   UNL     1       1.481  -4.362   2.452  1.00  0.00     0.125 C 
HETATM   19  H   UNL     1       1.203  -6.477   1.983  1.00  0.00     0.162 HD
HETATM   20  C   UNL     1       0.603  -3.248   1.928  1.00  0.00     0.054 C 
ENDBRANCH  13  14
BRANCH  13  21
HETATM   21  C   UNL     1      -2.044  -3.676  -0.417  1.00  0.00     0.121 C 
HETATM   22  C   UNL     1      -2.941  -3.832   0.801  1.00  0.00     0.026 C 
ENDBRANCH  13  21
ENDBRANCH   3  13
BRANCH   2  23
HETATM   23  C   UNL     1       1.728   2.560   0.046  1.00  0.00     0.169 C 
BRANCH  23  24
HETATM   24  C   UNL     1       1.999   3.417  -1.215  1.00  0.00     0.078 C 
HETATM   25  C   UNL     1       2.336   4.856  -0.775  1.00  0.00     0.066 C 
HETATM   26  C   UNL     1       1.092   5.646  -0.406  1.00  0.00     0.170 C 
HETATM   27  O   UNL     1       0.211   5.696  -1.522  1.00  0.00    -0.391 OA
HETATM   28  C   UNL     1      -0.276   4.406  -1.883  1.00  0.00     0.170 C 
HETATM   29  C   UNL     1       0.860   3.455  -2.251  1.00  0.00     0.066 C 
BRANCH  24  30
HETATM   30  O   UNL     1       3.192   2.910  -1.841  1.00  0.00    -0.388 OA
HETATM   31  H   UNL     1       3.023   2.009  -2.168  1.00  0.00     0.210 HD
ENDBRANCH  24  30
ENDBRANCH  23  24
ENDBRANCH   2  23
TORSDOF 6
