REMARK  4 active torsions:
REMARK  status: ('A' for Active; 'I' for Inactive)
REMARK    1  A    between atoms: C_2  and  C_5 
REMARK    2  A    between atoms: C_10  and  N_11 
REMARK    3  A    between atoms: N_11  and  C_12 
REMARK    4  A    between atoms: C_12  and  C_13 
ROOT
HETATM    1  C   UNL     1       4.262  -1.700   2.475  1.00  0.00     0.052 A 
HETATM    2  C   UNL     1       3.392  -0.695   2.049  1.00  0.00     0.033 A 
HETATM    3  C   UNL     1       2.238  -1.067   1.386  1.00  0.00     0.090 A 
HETATM    4  N   UNL     1       1.911  -2.348   1.109  1.00  0.00    -0.353 N 
ATOM      5  HN  UNL     1       1.057  -2.572   0.598  1.00  0.00     0.166 HD
HETATM    6  C   UNL     1       2.743  -3.323   1.526  1.00  0.00     0.101 A 
HETATM    7  C   UNL     1       3.910  -3.031   2.221  1.00  0.00     0.064 A 
ENDROOT
BRANCH   6   8
HETATM    8  N   UNL     1       2.532  -4.646   1.169  1.00  0.00    -0.370 N 
HETATM    9  H   UNL     1       2.596  -5.291   1.948  1.00  0.00     0.161 HD
BRANCH   8  10
HETATM   10  C   UNL     1       1.450  -4.967   0.262  1.00  0.00     0.187 C 
BRANCH  10  11
HETATM   11  C   UNL     1       1.959  -6.084  -0.628  1.00  0.00     0.085 C 
HETATM   12  C   UNL     1       2.087  -5.917  -1.951  1.00  0.00     0.168 C 
HETATM   13  O   UNL     1       2.535  -6.843  -2.838  1.00  0.00    -0.358 OA
HETATM   14  C   UNL     1       3.051  -8.032  -2.252  1.00  0.00     0.201 C 
HETATM   15  C   UNL     1       2.677  -8.329  -0.799  1.00  0.00     0.202 C 
HETATM   16  O   UNL     1       2.299  -7.236   0.030  1.00  0.00    -0.350 OA
ENDBRANCH  10  11
ENDBRANCH   8  10
ENDBRANCH   6   8
BRANCH   1  17
HETATM   17  C   UNL     1       5.563  -1.397   3.154  1.00  0.00     0.417 C 
HETATM   18  F   UNL     1       5.774  -0.067   3.354  1.00  0.00    -0.166 F 
HETATM   19  F   UNL     1       6.636  -1.839   2.441  1.00  0.00    -0.166 F 
HETATM   20  F   UNL     1       5.663  -1.981   4.380  1.00  0.00    -0.166 F 
ENDBRANCH   1  17
TORSDOF 4
