REMARK  6 active torsions:
REMARK  status: ('A' for Active; 'I' for Inactive)
REMARK    1  A    between atoms: C_2  and  N_4 
REMARK    2  A    between atoms: N_3  and  C_15 
REMARK    3  A    between atoms: C_14  and  C_15 
REMARK    4  A    between atoms: C_14  and  C_27 
REMARK    5  A    between atoms: N_16  and  C_28 
REMARK    6  A    between atoms: C_27  and  O_29 
ROOT
HETATM    1  C   UNL     1      -0.986  -1.495   1.449  1.00  0.00     0.117 A 
HETATM    2  C   UNL     1      -0.582  -1.809   0.117  1.00  0.00     0.115 A 
HETATM    3  N   UNL     1      -0.924  -0.345   3.321  1.00  0.00    -0.326 N 
HETATM    4  C   UNL     1      -0.361  -0.424   2.076  1.00  0.00     0.140 A 
HETATM    5  N   UNL     1      -1.927  -2.041   2.310  1.00  0.00    -0.346 N 
ATOM      6  HN  UNL     1      -2.536  -2.839   2.128  1.00  0.00     0.167 HD
HETATM    7  C   UNL     1      -1.874  -1.321   3.406  1.00  0.00     0.185 A 
HETATM    8  N   UNL     1       0.408  -1.010  -0.401  1.00  0.00    -0.341 N 
ATOM      9  HN  UNL     1       0.756  -1.182  -1.344  1.00  0.00     0.167 HD
HETATM   10  N   UNL     1       0.600   0.369   1.579  1.00  0.00    -0.336 N 
ATOM     11  HN  UNL     1       1.028   1.146   2.082  1.00  0.00     0.168 HD
HETATM   12  C   UNL     1       0.922   0.000   0.329  1.00  0.00     0.183 A 
ENDROOT
BRANCH   2  13
HETATM   13  N   UNL     1      -1.077  -2.859  -0.692  1.00  0.00    -0.257 NA
HETATM   14  C   UNL     1      -1.143  -2.512  -2.139  1.00  0.00     0.093 C 
HETATM   15  C   UNL     1      -0.992  -3.752  -3.082  1.00  0.00     0.292 C 
HETATM   16  C   UNL     1      -2.539  -1.895  -2.266  1.00  0.00     0.023 C 
HETATM   17  N   UNL     1      -1.954  -4.862  -2.869  1.00  0.00     0.089 N 
HETATM   18  C   UNL     1      -1.630  -5.538  -1.605  1.00  0.00     0.274 C 
HETATM   19  C   UNL     1      -2.397  -4.932  -0.433  1.00  0.00     0.050 C 
HETATM   20  C   UNL     1      -2.405  -3.400  -0.338  1.00  0.00     0.067 C 
HETATM   21  C   UNL     1      -3.395  -2.707  -1.298  1.00  0.00     0.022 C 
BRANCH  17  22
HETATM   22  C   UNL     1      -2.009  -5.819  -3.978  1.00  0.00     0.268 C 
HETATM   23  C   UNL     1      -2.588  -5.219  -5.257  1.00  0.00     0.037 C 
ENDBRANCH  17  22
ENDBRANCH   2  13
BRANCH   3  24
HETATM   24  C   UNL     1      -0.474   0.501   4.410  1.00  0.00     0.147 C 
BRANCH  24  25
HETATM   25  C   UNL     1      -1.119   1.878   4.484  1.00  0.00     0.040 C 
HETATM   26  C   UNL     1      -0.834   2.894   3.360  1.00  0.00     0.183 C 
HETATM   27  O   UNL     1      -0.419   3.887   4.336  1.00  0.00    -0.389 OA
HETATM   28  C   UNL     1      -0.260   2.844   5.330  1.00  0.00     0.183 C 
BRANCH  25  29
HETATM   29  C   UNL     1      -2.569   1.873   4.962  1.00  0.00     0.179 C 
BRANCH  29  30
HETATM   30  O   UNL     1      -3.402   1.210   4.021  1.00  0.00    -0.400 OA
HETATM   31  H   UNL     1      -3.476   1.765   3.224  1.00  0.00     0.209 HD
ENDBRANCH  29  30
ENDBRANCH  25  29
ENDBRANCH  24  25
ENDBRANCH   3  24
TORSDOF 6
