REMARK  6 active torsions:
REMARK  status: ('A' for Active; 'I' for Inactive)
REMARK    1  A    between atoms: O_2  and  C_3 
REMARK    2  A    between atoms: C_3  and  C_4 
REMARK    3  A    between atoms: C_4  and  O_5 
REMARK    4  A    between atoms: O_5  and  C_6 
REMARK    5  A    between atoms: C_9  and  N_10 
REMARK       I    between atoms: N_10  and  C_11 
REMARK    6  A    between atoms: C_11  and  C_13 
REMARK       I    between atoms: N_17  and  C_18 
ROOT
HETATM    1  C   UNL     1       6.221   2.093   2.064  1.00  0.00     0.141 A 
HETATM    2  C   UNL     1       6.965   0.933   2.108  1.00  0.00     0.058 A 
HETATM    3  C   UNL     1       8.334   1.016   1.873  1.00  0.00     0.035 A 
HETATM    4  C   UNL     1       8.925   2.254   1.621  1.00  0.00     0.050 A 
HETATM    5  C   UNL     1       8.075   3.365   1.586  1.00  0.00     0.119 A 
HETATM    6  N   UNL     1       6.741   3.311   1.803  1.00  0.00    -0.345 N 
ATOM      7  HN  UNL     1       6.158   4.147   1.771  1.00  0.00     0.167 HD
ENDROOT
BRANCH   4   8
HETATM    8  N   UNL     1      10.312   2.426   1.402  1.00  0.00    -0.324 N 
HETATM    9  C   UNL     1      11.285   1.494   1.716  1.00  0.00     0.245 C 
HETATM   10  O   UNL     1      11.086   0.430   2.302  1.00  0.00    -0.271 OA
HETATM   11  H   UNL     1      10.624   3.334   1.066  1.00  0.00     0.169 HD
BRANCH   9  12
HETATM   12  C   UNL     1      12.732   1.888   1.382  1.00  0.00     0.179 C 
HETATM   13  C   UNL     1      13.166   3.121   2.201  1.00  0.00     0.037 C 
HETATM   14  C   UNL     1      14.170   3.873   1.323  1.00  0.00     0.022 C 
HETATM   15  C   UNL     1      14.366   2.983   0.114  1.00  0.00     0.127 C 
HETATM   16  N   UNL     1      13.120   2.245   0.015  1.00  0.00    -0.339 N 
HETATM   17  C   UNL     1      13.004   1.401  -1.083  1.00  0.00     0.216 C 
HETATM   18  O   UNL     1      13.875   1.338  -1.953  1.00  0.00    -0.274 OA
HETATM   19  C   UNL     1      11.734   0.610  -1.242  1.00  0.00     0.117 C 
ENDBRANCH   9  12
ENDBRANCH   4   8
BRANCH   1  20
HETATM   20  O   UNL     1       4.881   1.962   2.355  1.00  0.00    -0.334 OA
BRANCH  20  21
HETATM   21  C   UNL     1       4.098   3.038   1.839  1.00  0.00     0.203 C 
BRANCH  21  22
HETATM   22  C   UNL     1       2.647   2.807   2.242  1.00  0.00     0.193 C 
BRANCH  22  23
HETATM   23  O   UNL     1       1.829   3.822   1.662  1.00  0.00    -0.394 OA
HETATM   24  C   UNL     1       0.466   3.667   2.030  1.00  0.00     0.201 C 
ENDBRANCH  22  23
ENDBRANCH  21  22
ENDBRANCH  20  21
ENDBRANCH   1  20
TORSDOF 6
