REMARK  4 active torsions:
REMARK  status: ('A' for Active; 'I' for Inactive)
REMARK       I    between atoms: C_2  and  N_3 
REMARK       I    between atoms: C_2  and  N_12 
REMARK    1  A    between atoms: N_3  and  C_4 
REMARK    2  A    between atoms: C_4  and  C_5 
REMARK    3  A    between atoms: C_5  and  N_6 
REMARK    4  A    between atoms: N_12  and  C_13 
ROOT
HETATM    1  O   UNL     1       3.995   2.538  -0.619  1.00  0.00    -0.247 OA
HETATM    2  C   UNL     1       3.806   1.356  -0.364  1.00  0.00     0.320 C 
HETATM    3  N   UNL     1       2.985   0.547  -1.127  1.00  0.00    -0.341 N 
HETATM    4  N   UNL     1       4.381   0.663   0.675  1.00  0.00    -0.306 N 
HETATM    5  H   UNL     1       2.500  -0.171  -0.611  1.00  0.00     0.164 HD
HETATM    6  H   UNL     1       4.212  -0.327   0.750  1.00  0.00     0.171 HD
ENDROOT
BRANCH   3   7
HETATM    7  C   UNL     1       2.240   1.137  -2.233  1.00  0.00     0.154 C 
BRANCH   7   8
HETATM    8  C   UNL     1       3.147   1.622  -3.385  1.00  0.00     0.292 C 
BRANCH   8   9
HETATM    9  N   UNL     1       2.448   2.260  -4.523  1.00  0.00     0.090 N 
HETATM   10  C   UNL     1       3.420   2.690  -5.548  1.00  0.00     0.272 C 
HETATM   11  C   UNL     1       4.274   3.902  -5.147  1.00  0.00     0.030 C 
HETATM   12  C   UNL     1       3.416   5.068  -4.664  1.00  0.00     0.003 C 
HETATM   13  C   UNL     1       2.395   4.613  -3.627  1.00  0.00     0.030 C 
HETATM   14  C   UNL     1       1.607   3.405  -4.137  1.00  0.00     0.272 C 
ENDBRANCH   8   9
ENDBRANCH   7   8
ENDBRANCH   3   7
BRANCH   4  15
HETATM   15  C   UNL     1       5.260   1.234   1.574  1.00  0.00     0.070 A 
HETATM   16  C   UNL     1       5.769   2.548   1.673  1.00  0.00     0.138 A 
HETATM   17  N   UNL     1       6.611   2.692   2.703  1.00  0.00    -0.310 N 
HETATM   18  N   UNL     1       6.637   1.471   3.259  1.00  0.00    -0.310 N 
ATOM     19  HN  UNL     1       7.113   3.530   2.996  1.00  0.00     0.186 HD
HETATM   20  C   UNL     1       5.845   0.561   2.619  1.00  0.00     0.138 A 
HETATM   21  H   UNL     1       7.219   1.333   4.078  1.00  0.00     0.186 HD
ENDBRANCH   4  15
TORSDOF 4
