REMARK  6 active torsions:
REMARK  status: ('A' for Active; 'I' for Inactive)
REMARK    1  A    between atoms: C_2  and  O_3 
REMARK    2  A    between atoms: O_3  and  C_4 
REMARK    3  A    between atoms: C_4  and  C_5 
REMARK    4  A    between atoms: C_5  and  N_6 
REMARK    5  A    between atoms: C_7  and  C_16 
REMARK    6  A    between atoms: C_16  and  O_18 
ROOT
HETATM    1  N   UNL     1       6.458   2.292  -1.657  1.00  0.00    -0.331 N 
HETATM    2  C   UNL     1       7.303   1.192  -1.646  1.00  0.00     0.113 A 
HETATM    3  N   UNL     1       8.568   1.587  -1.682  1.00  0.00    -0.342 N 
ATOM      4  HN  UNL     1       9.392   0.987  -1.725  1.00  0.00     0.167 HD
HETATM    5  C   UNL     1       8.556   2.947  -1.651  1.00  0.00     0.060 A 
HETATM    6  C   UNL     1       9.638   3.838  -1.674  1.00  0.00     0.032 A 
HETATM    7  C   UNL     1       9.382   5.212  -1.650  1.00  0.00     0.002 A 
HETATM    8  C   UNL     1       8.074   5.685  -1.571  1.00  0.00     0.002 A 
HETATM    9  C   UNL     1       6.987   4.807  -1.515  1.00  0.00     0.032 A 
HETATM   10  C   UNL     1       7.256   3.428  -1.588  1.00  0.00     0.062 A 
ENDROOT
BRANCH   1  11
HETATM   11  C   UNL     1       5.005   2.334  -1.765  1.00  0.00     0.157 C 
BRANCH  11  12
HETATM   12  C   UNL     1       4.530   3.079  -3.016  1.00  0.00     0.187 C 
BRANCH  12  13
HETATM   13  O   UNL     1       3.103   3.219  -3.064  1.00  0.00    -0.390 OA
BRANCH  13  14
HETATM   14  C   UNL     1       2.735   3.999  -4.211  1.00  0.00     0.163 C 
HETATM   15  C   UNL     1       1.233   4.186  -4.282  1.00  0.00     0.033 C 
ENDBRANCH  13  14
ENDBRANCH  12  13
ENDBRANCH  11  12
ENDBRANCH   1  11
BRANCH   2  16
HETATM   16  C   UNL     1       6.928  -0.264  -1.651  1.00  0.00     0.181 C 
HETATM   17  C   UNL     1       8.045  -1.117  -1.035  1.00  0.00     0.047 C 
BRANCH  16  18
HETATM   18  O   UNL     1       5.727  -0.446  -0.907  1.00  0.00    -0.388 OA
HETATM   19  H   UNL     1       5.923  -1.029  -0.155  1.00  0.00     0.210 HD
ENDBRANCH  16  18
ENDBRANCH   2  16
TORSDOF 6
