REMARK  6 active torsions:
REMARK  status: ('A' for Active; 'I' for Inactive)
REMARK    1  A    between atoms: N_6  and  C_7 
REMARK    2  A    between atoms: C_7  and  C_8 
REMARK    3  A    between atoms: C_8  and  O_9 
REMARK    4  A    between atoms: C_8  and  C_10 
REMARK    5  A    between atoms: C_10  and  O_11 
REMARK    6  A    between atoms: O_11  and  C_12 
ROOT
HETATM    1  C   UNL     1       7.135  -1.464  -0.092  1.00  0.00     0.160 C 
ENDROOT
BRANCH   1   2
HETATM    2  C   UNL     1       6.723  -2.143   1.229  1.00  0.00     0.166 C 
BRANCH   2   3
HETATM    3  N   UNL     1       5.288  -2.346   1.335  1.00  0.00    -0.307 N 
HETATM    4  C   UNL     1       4.719  -3.494   0.862  1.00  0.00     0.186 A 
HETATM    5  N   UNL     1       3.463  -3.774   0.918  1.00  0.00    -0.355 N 
HETATM    6  C   UNL     1       2.634  -2.846   1.497  1.00  0.00     0.017 A 
ATOM      7  HN  UNL     1       3.099  -4.651   0.546  1.00  0.00     0.166 HD
HETATM    8  C   UNL     1       1.184  -3.254   1.549  1.00  0.00     0.069 C 
HETATM    9  C   UNL     1       3.052  -1.662   1.983  1.00  0.00     0.028 A 
HETATM   10  C   UNL     1       4.501  -1.351   1.882  1.00  0.00     0.256 A 
HETATM   11  C   UNL     1       2.160  -0.643   2.620  1.00  0.00     0.056 C 
HETATM   12  O   UNL     1       4.959  -0.275   2.267  1.00  0.00    -0.267 OA
ENDBRANCH   2   3
ENDBRANCH   1   2
BRANCH   1  13
HETATM   13  O   UNL     1       6.497  -0.195  -0.275  1.00  0.00    -0.392 OA
HETATM   14  H   UNL     1       6.459   0.256   0.592  1.00  0.00     0.210 HD
ENDBRANCH   1  13
BRANCH   1  15
HETATM   15  C   UNL     1       8.649  -1.249  -0.109  1.00  0.00     0.201 C 
BRANCH  15  16
HETATM   16  O   UNL     1       9.309  -2.493   0.098  1.00  0.00    -0.379 OA
BRANCH  16  17
HETATM   17  C   UNL     1      10.746  -2.432   0.132  1.00  0.00     0.155 C 
HETATM   18  C   UNL     1      11.216  -3.889   0.249  1.00  0.00     0.037 C 
HETATM   19  C   UNL     1      10.837  -4.460   1.617  1.00  0.00     0.007 C 
HETATM   20  C   UNL     1      11.542  -3.692   2.732  1.00  0.00     0.039 C 
HETATM   21  C   UNL     1      11.507  -2.194   2.556  1.00  0.00    -0.049 A 
HETATM   22  C   UNL     1      11.828  -1.375   3.648  1.00  0.00     0.007 A 
HETATM   23  C   UNL     1      11.237  -1.602   1.306  1.00  0.00    -0.023 A 
HETATM   24  C   UNL     1      11.868   0.013   3.513  1.00  0.00     0.001 A 
HETATM   25  C   UNL     1      11.638   0.597   2.273  1.00  0.00     0.001 A 
HETATM   26  C   UNL     1      11.349  -0.207   1.173  1.00  0.00     0.010 A 
ENDBRANCH  16  17
ENDBRANCH  15  16
ENDBRANCH   1  15
TORSDOF 6
