REMARK  5 active torsions:
REMARK  status: ('A' for Active; 'I' for Inactive)
REMARK    1  A    between atoms: C_2  and  N_5 
REMARK    2  A    between atoms: N_9  and  C_10 
REMARK    3  A    between atoms: C_10  and  C_11 
REMARK       I    between atoms: C_11  and  N_13 
REMARK    4  A    between atoms: N_13  and  C_14 
REMARK    5  A    between atoms: C_14  and  C_18 
ROOT
HETATM    1  C   UNL     1       3.976   7.486  -1.230  1.00  0.00     0.122 C 
HETATM    2  C   UNL     1       3.421   7.932   0.132  1.00  0.00     0.055 C 
HETATM    3  C   UNL     1       5.180   8.285  -1.607  1.00  0.00     0.091 C 
HETATM    4  N   UNL     1       6.105   8.913  -1.924  1.00  0.00    -0.195 NA
ENDROOT
BRANCH   1   5
HETATM    5  N   UNL     1       4.266   6.042  -1.222  1.00  0.00    -0.338 N 
HETATM    6  C   UNL     1       5.194   5.488  -0.363  1.00  0.00     0.237 C 
HETATM    7  O   UNL     1       5.837   6.157   0.444  1.00  0.00    -0.272 OA
HETATM    8  H   UNL     1       3.845   5.450  -1.932  1.00  0.00     0.164 HD
BRANCH   6   9
HETATM    9  C   UNL     1       5.455   3.996  -0.516  1.00  0.00     0.237 C 
BRANCH   9  10
HETATM   10  N   UNL     1       4.242   3.246  -0.306  1.00  0.00    -0.284 N 
HETATM   11  C   UNL     1       3.788   2.705   0.836  1.00  0.00     0.205 A 
HETATM   12  N   UNL     1       2.689   2.033   0.721  1.00  0.00    -0.289 N 
HETATM   13  N   UNL     1       2.372   2.134  -0.623  1.00  0.00    -0.233 N 
ATOM     14  HN  UNL     1       2.174   1.542   1.452  1.00  0.00     0.188 HD
HETATM   15  C   UNL     1       3.336   2.914  -1.272  1.00  0.00     0.345 A 
HETATM   16  O   UNL     1       3.378   3.278  -2.437  1.00  0.00    -0.245 OA
BRANCH  13  17
HETATM   17  C   UNL     1       1.186   1.501  -1.216  1.00  0.00     0.048 C 
HETATM   18  C   UNL     1       0.370   0.734  -0.157  1.00  0.00     0.040 C 
HETATM   19  C   UNL     1       1.621   0.502  -2.303  1.00  0.00     0.040 C 
HETATM   20  C   UNL     1       0.280   2.576  -1.837  1.00  0.00     0.040 C 
ENDBRANCH  13  17
ENDBRANCH   9  10
ENDBRANCH   6   9
ENDBRANCH   1   5
BRANCH   1  21
HETATM   21  C   UNL     1       3.007   7.769  -2.385  1.00  0.00     0.028 A 
HETATM   22  C   UNL     1       2.477   9.161  -2.692  1.00  0.00     0.009 A 
HETATM   23  C   UNL     1       1.540   8.108  -2.178  1.00  0.00     0.009 A 
ENDBRANCH   1  21
TORSDOF 5
