REMARK  1 active torsions:
REMARK  status: ('A' for Active; 'I' for Inactive)
REMARK    1  A    between atoms: C_7  and  C_8 
ROOT
HETATM    1  C   UNL     1       5.846  -0.980  -0.646  1.00  0.00     0.156 C 
HETATM    2  N   UNL     1       4.524  -0.410  -0.533  1.00  0.00    -0.349 N 
HETATM    3  C   UNL     1       4.214   0.905  -0.722  1.00  0.00     0.108 A 
HETATM    4  C   UNL     1       2.861   0.986  -0.504  1.00  0.00     0.106 A 
HETATM    5  N   UNL     1       2.342  -0.246  -0.201  1.00  0.00    -0.354 N 
ATOM      6  HN  UNL     1       1.367  -0.469   0.001  1.00  0.00     0.166 HD
HETATM    7  C   UNL     1       3.362  -1.085  -0.224  1.00  0.00     0.088 A 
ENDROOT
BRANCH   7   8
HETATM    8  C   UNL     1       3.311  -2.559   0.036  1.00  0.00     0.082 C 
HETATM    9  C   UNL     1       2.653  -2.907   1.375  1.00  0.00     0.015 C 
HETATM   10  C   UNL     1       2.768  -4.417   1.591  1.00  0.00     0.031 C 
HETATM   11  C   UNL     1       2.204  -5.208   0.405  1.00  0.00     0.269 C 
HETATM   12  N   UNL     1       2.727  -4.768  -0.893  1.00  0.00     0.084 N 
HETATM   13  C   UNL     1       2.577  -3.316  -1.081  1.00  0.00     0.281 C 
HETATM   14  H   UNL     1       2.221  -5.251  -1.636  1.00  0.00     0.315 HD
ENDBRANCH   7   8
TORSDOF 1
