REMARK  5 active torsions:
REMARK  status: ('A' for Active; 'I' for Inactive)
REMARK    1  A    between atoms: O_2  and  C_3 
REMARK    2  A    between atoms: C_3  and  C_6 
REMARK    3  A    between atoms: C_9  and  C_10 
REMARK    4  A    between atoms: C_10  and  C_11 
REMARK       I    between atoms: C_11  and  N_13 
REMARK    5  A    between atoms: N_13  and  C_14 
ROOT
HETATM    1  C   UNL     1       5.165   0.564  -0.128  1.00  0.00     0.182 A 
HETATM    2  N   UNL     1       6.114   1.431  -0.411  1.00  0.00    -0.324 N 
ATOM      3  HN  UNL     1       6.509   1.669  -1.321  1.00  0.00     0.169 HD
HETATM    4  C   UNL     1       6.439   1.933   0.816  1.00  0.00     0.112 A 
HETATM    5  N   UNL     1       5.746   1.411   1.841  1.00  0.00    -0.247 N 
ATOM      6  HN  UNL     1       5.818   1.633   2.834  1.00  0.00     0.196 HD
HETATM    7  O   UNL     1       4.899   0.486   1.213  1.00  0.00    -0.220 OA
ENDROOT
BRANCH   4   8
HETATM    8  C   UNL     1       7.479   2.965   0.979  1.00  0.00     0.181 C 
BRANCH   8   9
HETATM    9  C   UNL     1       6.915   4.350   0.761  1.00  0.00     0.225 C 
HETATM   10  O   UNL     1       7.209   5.018  -0.229  1.00  0.00    -0.273 OA
HETATM   11  N   UNL     1       6.112   4.839   1.778  1.00  0.00    -0.356 N 
HETATM   12  H   UNL     1       5.708   4.176   2.431  1.00  0.00     0.162 HD
BRANCH  11  13
HETATM   13  C   UNL     1       5.510   6.149   1.649  1.00  0.00     0.084 C 
HETATM   14  C   UNL     1       5.143   6.805   2.977  1.00  0.00     0.025 C 
HETATM   15  C   UNL     1       4.042   7.813   2.628  1.00  0.00     0.002 C 
HETATM   16  C   UNL     1       3.652   7.534   1.176  1.00  0.00     0.002 C 
HETATM   17  C   UNL     1       4.183   6.136   0.897  1.00  0.00     0.025 C 
ENDBRANCH  11  13
ENDBRANCH   8   9
ENDBRANCH   4   8
BRANCH   1  18
HETATM   18  C   UNL     1       4.309  -0.231  -1.079  1.00  0.00     0.120 C 
HETATM   19  C   UNL     1       4.701   0.166  -2.515  1.00  0.00     0.055 C 
HETATM   20  C   UNL     1       2.829   0.090  -0.821  1.00  0.00     0.055 C 
BRANCH  18  21
HETATM   21  O   UNL     1       4.590  -1.619  -0.821  1.00  0.00    -0.377 OA
HETATM   22  C   UNL     1       3.967  -2.558  -1.687  1.00  0.00     0.203 C 
ENDBRANCH  18  21
ENDBRANCH   1  18
TORSDOF 5
