REMARK  8 active torsions:
REMARK  status: ('A' for Active; 'I' for Inactive)
REMARK    1  A    between atoms: C_6  and  O_7 
REMARK    2  A    between atoms: O_7  and  C_8 
REMARK    3  A    between atoms: C_8  and  C_9 
REMARK    4  A    between atoms: C_9  and  N_10 
REMARK    5  A    between atoms: C_11  and  C_12 
REMARK    6  A    between atoms: C_12  and  C_13 
REMARK    7  A    between atoms: C_13  and  N_14 
REMARK    8  A    between atoms: N_14  and  C_15 
ROOT
HETATM    1  N   UNL     1       4.595  -6.162  -0.537  1.00  0.00    -0.333 N 
HETATM    2  C   UNL     1       5.218  -7.403  -0.637  1.00  0.00     0.086 A 
HETATM    3  N   UNL     1       4.335  -8.379  -0.573  1.00  0.00    -0.344 N 
ATOM      4  HN  UNL     1       4.524  -9.380  -0.624  1.00  0.00     0.167 HD
HETATM    5  C   UNL     1       3.117  -7.783  -0.425  1.00  0.00     0.060 A 
HETATM    6  C   UNL     1       1.853  -8.385  -0.301  1.00  0.00     0.032 A 
HETATM    7  C   UNL     1       0.720  -7.579  -0.160  1.00  0.00     0.002 A 
HETATM    8  C   UNL     1       0.847  -6.198  -0.128  1.00  0.00     0.002 A 
HETATM    9  C   UNL     1       2.102  -5.590  -0.227  1.00  0.00     0.032 A 
HETATM   10  C   UNL     1       3.238  -6.396  -0.393  1.00  0.00     0.062 A 
ENDROOT
BRANCH   1  11
HETATM   11  C   UNL     1       5.299  -4.884  -0.483  1.00  0.00     0.157 C 
BRANCH  11  12
HETATM   12  C   UNL     1       4.676  -3.709  -1.238  1.00  0.00     0.196 C 
BRANCH  12  13
HETATM   13  O   UNL     1       3.745  -3.029  -0.394  1.00  0.00    -0.350 OA
BRANCH  13  14
HETATM   14  C   UNL     1       2.928  -2.097  -0.974  1.00  0.00     0.069 A 
HETATM   15  C   UNL     1       2.073  -1.434  -0.092  1.00  0.00     0.037 A 
HETATM   16  C   UNL     1       1.250  -0.403  -0.545  1.00  0.00     0.003 A 
HETATM   17  C   UNL     1       1.279  -0.031  -1.888  1.00  0.00     0.007 A 
HETATM   18  C   UNL     1       2.099  -0.716  -2.790  1.00  0.00    -0.059 A 
HETATM   19  C   UNL     1       2.161  -0.336  -4.239  1.00  0.00     0.048 C 
HETATM   20  C   UNL     1       2.898  -1.772  -2.329  1.00  0.00     0.043 A 
ENDBRANCH  13  14
ENDBRANCH  12  13
ENDBRANCH  11  12
ENDBRANCH   1  11
BRANCH   2  21
HETATM   21  C   UNL     1       6.697  -7.629  -0.747  1.00  0.00     0.096 C 
BRANCH  21  22
HETATM   22  C   UNL     1       7.013  -8.952  -1.459  1.00  0.00     0.129 C 
BRANCH  22  23
HETATM   23  N   UNL     1       8.443  -9.232  -1.548  1.00  0.00    -0.368 N 
HETATM   24  H   UNL     1       8.786 -10.083  -1.128  1.00  0.00     0.161 HD
BRANCH  23  25
HETATM   25  C   UNL     1       9.274  -8.502  -2.345  1.00  0.00     0.348 C 
HETATM   26  O   UNL     1       8.972  -7.500  -2.970  1.00  0.00    -0.284 OA
ENDBRANCH  23  25
ENDBRANCH  22  23
ENDBRANCH  21  22
ENDBRANCH   2  21
TORSDOF 8
