REMARK  4 active torsions:
REMARK  status: ('A' for Active; 'I' for Inactive)
REMARK    1  A    between atoms: C_2  and  S_3 
REMARK    2  A    between atoms: S_3  and  C_4 
REMARK    3  A    between atoms: C_9  and  N_10 
REMARK       I    between atoms: N_10  and  C_11 
REMARK       I    between atoms: C_11  and  N_13 
REMARK    4  A    between atoms: N_13  and  C_14 
ROOT
HETATM    1  N   UNL     1       4.995  -1.902  -1.000  1.00  0.00    -0.337 N 
HETATM    2  C   UNL     1       5.656  -1.912   0.190  1.00  0.00     0.322 C 
HETATM    3  O   UNL     1       6.506  -1.113   0.542  1.00  0.00    -0.247 OA
HETATM    4  N   UNL     1       5.245  -3.005   0.998  1.00  0.00    -0.293 N 
HETATM    5  H   UNL     1       4.267  -2.563  -1.215  1.00  0.00     0.164 HD
HETATM    6  H   UNL     1       4.581  -3.664   0.629  1.00  0.00     0.172 HD
ENDROOT
BRANCH   1   7
HETATM    7  C   UNL     1       5.274  -0.840  -1.957  1.00  0.00     0.100 C 
HETATM    8  C   UNL     1       4.662   0.540  -1.589  1.00  0.00     0.070 C 
HETATM    9  C   UNL     1       5.232   1.577  -2.583  1.00  0.00     0.017 C 
HETATM   10  C   UNL     1       4.975   1.207  -4.050  1.00  0.00     0.001 C 
HETATM   11  C   UNL     1       5.426  -0.214  -4.387  1.00  0.00     0.002 C 
HETATM   12  C   UNL     1       4.922  -1.256  -3.390  1.00  0.00     0.026 C 
BRANCH   8  13
HETATM   13  S   UNL     1       2.812   0.663  -1.663  1.00  0.00    -0.163 SA
BRANCH  13  14
HETATM   14  C   UNL     1       2.282  -0.475  -0.357  1.00  0.00     0.070 C 
HETATM   15  C   UNL     1       0.766  -0.456  -0.255  1.00  0.00     0.016 C 
ENDBRANCH  13  14
ENDBRANCH   8  13
ENDBRANCH   1   7
BRANCH   4  16
HETATM   16  C   UNL     1       5.796  -3.256   2.254  1.00  0.00     0.127 A 
HETATM   17  C   UNL     1       6.595  -2.432   3.015  1.00  0.00     0.076 A 
HETATM   18  C   UNL     1       6.938  -3.183   4.161  1.00  0.00     0.025 A 
HETATM   19  C   UNL     1       7.843  -2.782   5.266  1.00  0.00     0.070 C 
HETATM   20  N   UNL     1       6.353  -4.384   4.154  1.00  0.00    -0.302 N 
HETATM   21  N   UNL     1       5.665  -4.407   2.997  1.00  0.00    -0.281 N 
ATOM     22  HN  UNL     1       6.414  -5.115   4.862  1.00  0.00     0.186 HD
HETATM   23  C   UNL     1       4.970  -5.614   2.622  1.00  0.00     0.179 C 
ENDBRANCH   4  16
TORSDOF 4
