REMARK  3 active torsions:
REMARK  status: ('A' for Active; 'I' for Inactive)
REMARK    1  A    between atoms: N_1  and  C_2 
REMARK    2  A    between atoms: C_2  and  C_3 
REMARK    3  A    between atoms: C_9  and  N_10 
ROOT
HETATM    1  C   UNL     1       2.920   1.448  -0.251  1.00  0.00     0.013 A 
HETATM    2  C   UNL     1       2.158   2.605  -0.010  1.00  0.00     0.014 A 
HETATM    3  C   UNL     1       2.696   3.860  -0.256  1.00  0.00     0.018 A 
HETATM    4  C   UNL     1       3.996   3.921  -0.703  1.00  0.00     0.089 A 
HETATM    5  N   UNL     1       4.769   2.835  -0.928  1.00  0.00    -0.352 N 
ATOM      6  HN  UNL     1       5.728   2.939  -1.260  1.00  0.00     0.166 HD
HETATM    7  C   UNL     1       4.245   1.606  -0.704  1.00  0.00     0.111 A 
ENDROOT
BRANCH   7   8
HETATM    8  N   UNL     1       5.004   0.498  -1.070  1.00  0.00    -0.363 N 
HETATM    9  C   UNL     1       6.063   0.747  -2.065  1.00  0.00     0.150 C 
HETATM   10  C   UNL     1       6.424  -0.613  -2.689  1.00  0.00     0.187 C 
HETATM   11  O   UNL     1       6.849  -1.566  -1.695  1.00  0.00    -0.388 OA
HETATM   12  C   UNL     1       5.844  -1.733  -0.675  1.00  0.00     0.187 C 
HETATM   13  C   UNL     1       5.496  -0.389  -0.004  1.00  0.00     0.150 C 
ENDBRANCH   7   8
BRANCH   1  14
HETATM   14  C   UNL     1       2.312   0.085  -0.014  1.00  0.00     0.309 C 
BRANCH  14  15
HETATM   15  N   UNL     1       0.873   0.015  -0.289  1.00  0.00     0.082 N 
HETATM   16  H   UNL     1       0.557  -0.938  -0.119  1.00  0.00     0.313 HD
HETATM   17  H   UNL     1       0.738   0.180  -1.287  1.00  0.00     0.313 HD
ENDBRANCH  14  15
ENDBRANCH   1  14
TORSDOF 3
