REMARK  6 active torsions:
REMARK  status: ('A' for Active; 'I' for Inactive)
REMARK    1  A    between atoms: C_2  and  C_3 
REMARK    2  A    between atoms: C_2  and  N_13 
REMARK       I    between atoms: C_3  and  N_5 
REMARK    3  A    between atoms: N_5  and  C_6 
REMARK    4  A    between atoms: C_6  and  C_7 
REMARK    5  A    between atoms: C_7  and  C_10 
REMARK    6  A    between atoms: C_10  and  O_12 
ROOT
HETATM    1  C   UNL     1       3.289   1.500   0.301  1.00  0.00     0.242 C 
HETATM    2  O   UNL     1       4.114   1.710   1.190  1.00  0.00    -0.271 OA
HETATM    3  N   UNL     1       2.735   2.528  -0.441  1.00  0.00    -0.358 N 
HETATM    4  H   UNL     1       2.175   2.276  -1.255  1.00  0.00     0.162 HD
ENDROOT
BRANCH   1   5
HETATM    5  C   UNL     1       2.729   0.110   0.016  1.00  0.00     0.195 C 
HETATM    6  C   UNL     1       3.304  -0.929   0.981  1.00  0.00     0.044 C 
BRANCH   5   7
HETATM    7  N   UNL     1       2.911  -0.255  -1.384  1.00  0.00    -0.290 N 
HETATM    8  C   UNL     1       3.950  -0.935  -1.955  1.00  0.00     0.112 A 
HETATM    9  C   UNL     1       3.599  -1.145  -3.268  1.00  0.00     0.037 A 
HETATM   10  C   UNL     1       2.349  -0.518  -3.408  1.00  0.00     0.108 A 
HETATM   11  N   UNL     1       1.936   0.052  -2.271  1.00  0.00    -0.309 N 
ATOM     12  HN  UNL     1       1.086   0.592  -2.110  1.00  0.00     0.186 HD
ENDBRANCH   5   7
ENDBRANCH   1   5
BRANCH   3  13
HETATM   13  C   UNL     1       3.171   3.911  -0.289  1.00  0.00     0.142 C 
BRANCH  13  14
HETATM   14  C   UNL     1       2.300   4.762   0.677  1.00  0.00     0.054 C 
HETATM   15  C   UNL     1       0.867   4.865   0.134  1.00  0.00     0.028 C 
HETATM   16  C   UNL     1       2.298   4.162   2.091  1.00  0.00     0.028 C 
BRANCH  14  17
HETATM   17  C   UNL     1       2.914   6.166   0.720  1.00  0.00     0.149 C 
HETATM   18  O   UNL     1       3.878   6.520   0.055  1.00  0.00    -0.649 OA
BRANCH  17  19
HETATM   19  O   UNL     1       2.288   7.036   1.545  1.00  0.00    -0.776 OA
HETATM   20  H   UNL     1       1.522   6.679   2.031  1.00  0.00     0.167 HD
ENDBRANCH  17  19
ENDBRANCH  14  17
ENDBRANCH  13  14
ENDBRANCH   3  13
TORSDOF 6
