REMARK  2 active torsions:
REMARK  status: ('A' for Active; 'I' for Inactive)
REMARK    1  A    between atoms: C_2  and  C_5 
REMARK    2  A    between atoms: C_8  and  C_11 
ROOT
HETATM    1  C   UNL     1       2.926  -0.806  -2.324  1.00  0.00     0.123 A 
HETATM    2  C   UNL     1       4.265  -0.898  -1.989  1.00  0.00     0.085 A 
HETATM    3  S   UNL     1       4.702  -2.525  -1.704  1.00  0.00    -0.086 SA
HETATM    4  C   UNL     1       3.097  -3.029  -2.062  1.00  0.00     0.057 A 
HETATM    5  N   UNL     1       2.273  -2.043  -2.365  1.00  0.00    -0.349 N 
ATOM      6  HN  UNL     1       1.288  -2.167  -2.599  1.00  0.00     0.166 HD
ENDROOT
BRANCH   4   7
HETATM    7  C   UNL     1       2.644  -4.479  -2.061  1.00  0.00     0.071 C 
HETATM    8  C   UNL     1       1.636  -4.746  -0.931  1.00  0.00     0.015 C 
HETATM    9  C   UNL     1       2.334  -4.971   0.408  1.00  0.00     0.031 C 
HETATM   10  C   UNL     1       3.398  -6.059   0.300  1.00  0.00     0.269 C 
HETATM   11  N   UNL     1       4.382  -5.749  -0.735  1.00  0.00     0.084 N 
HETATM   12  C   UNL     1       3.755  -5.546  -2.047  1.00  0.00     0.280 C 
HETATM   13  H   UNL     1       5.061  -6.509  -0.796  1.00  0.00     0.315 HD
ENDBRANCH   4   7
BRANCH   1  14
HETATM   14  C   UNL     1       2.185   0.462  -2.632  1.00  0.00     0.433 C 
HETATM   15  F   UNL     1       3.018   1.539  -2.680  1.00  0.00    -0.165 F 
HETATM   16  F   UNL     1       1.242   0.747  -1.696  1.00  0.00    -0.165 F 
HETATM   17  F   UNL     1       1.552   0.413  -3.833  1.00  0.00    -0.165 F 
ENDBRANCH   1  14
TORSDOF 2
