REMARK  6 active torsions:
REMARK  status: ('A' for Active; 'I' for Inactive)
REMARK    1  A    between atoms: C_2  and  C_3 
REMARK    2  A    between atoms: C_3  and  C_5 
REMARK    3  A    between atoms: C_3  and  N_18 
REMARK    4  A    between atoms: C_5  and  N_6 
REMARK       I    between atoms: N_6  and  C_7 
REMARK    5  A    between atoms: C_7  and  C_9 
REMARK    6  A    between atoms: C_9  and  N_11 
ROOT
HETATM    1  N   UNL     1       0.580  -1.537  -1.906  1.00  0.00    -0.357 N 
HETATM    2  C   UNL     1      -0.062  -2.755  -1.854  1.00  0.00     0.242 C 
HETATM    3  O   UNL     1       0.542  -3.822  -1.785  1.00  0.00    -0.271 OA
HETATM    4  H   UNL     1       0.044  -0.701  -2.103  1.00  0.00     0.162 HD
ENDROOT
BRANCH   1   5
HETATM    5  C   UNL     1       2.025  -1.425  -1.929  1.00  0.00     0.164 C 
BRANCH   5   6
HETATM    6  C   UNL     1       2.766  -1.286  -0.559  1.00  0.00     0.171 C 
HETATM    7  C   UNL     1       2.347  -2.418   0.415  1.00  0.00     0.051 C 
BRANCH   6   8
HETATM    8  C   UNL     1       2.393   0.079   0.133  1.00  0.00     0.038 C 
HETATM    9  C   UNL     1       0.932   0.327   0.508  1.00  0.00     0.007 C 
ENDBRANCH   6   8
BRANCH   6  10
HETATM   10  N   UNL     1       4.267  -1.319  -0.707  1.00  0.00     0.103 N 
HETATM   11  C   UNL     1       4.918  -0.265  -1.514  1.00  0.00     0.299 C 
HETATM   12  C   UNL     1       5.040  -0.572  -3.016  1.00  0.00     0.198 C 
HETATM   13  O   UNL     1       5.699  -1.817  -3.254  1.00  0.00    -0.388 OA
HETATM   14  C   UNL     1       5.056  -2.894  -2.563  1.00  0.00     0.198 C 
HETATM   15  C   UNL     1       4.914  -2.606  -1.057  1.00  0.00     0.299 C 
ENDBRANCH   6  10
ENDBRANCH   5   6
ENDBRANCH   1   5
BRANCH   2  16
HETATM   16  C   UNL     1      -1.578  -2.676  -1.904  1.00  0.00     0.196 C 
HETATM   17  C   UNL     1      -2.094  -3.506  -3.075  1.00  0.00     0.044 C 
BRANCH  16  18
HETATM   18  N   UNL     1      -2.144  -3.089  -0.633  1.00  0.00    -0.273 N 
HETATM   19  C   UNL     1      -1.973  -4.265   0.034  1.00  0.00     0.202 A 
HETATM   20  N   UNL     1      -2.673  -4.249   1.143  1.00  0.00    -0.346 N 
HETATM   21  C   UNL     1      -3.266  -3.016   1.114  1.00  0.00     0.198 A 
ATOM     22  HN  UNL     1      -2.755  -4.977   1.853  1.00  0.00     0.167 HD
HETATM   23  N   UNL     1      -2.975  -2.269   0.043  1.00  0.00    -0.292 N 
ATOM     24  HN  UNL     1      -3.295  -1.331  -0.198  1.00  0.00     0.188 HD
ENDBRANCH  16  18
ENDBRANCH   2  16
TORSDOF 6
