REMARK  1 active torsions:
REMARK  status: ('A' for Active; 'I' for Inactive)
REMARK    1  A    between atoms: C_2  and  C_9 
ROOT
HETATM    1  C   UNL     1       1.134   0.021   0.092  1.00  0.00     0.055 C 
HETATM    2  C   UNL     1       2.646   0.018  -0.104  1.00  0.00     0.141 C 
HETATM    3  N   UNL     1       3.265  -1.133   0.531  1.00  0.00    -0.321 N 
HETATM    4  C   UNL     1       4.304  -0.789   1.358  1.00  0.00     0.324 C 
HETATM    5  O   UNL     1       5.025  -1.581   1.937  1.00  0.00    -0.247 OA
HETATM    6  N   UNL     1       4.358   0.557   1.446  1.00  0.00    -0.277 N 
HETATM    7  C   UNL     1       3.328   1.115   0.756  1.00  0.00     0.258 C 
HETATM    8  O   UNL     1       3.030   2.300   0.797  1.00  0.00    -0.270 OA
HETATM    9  H   UNL     1       3.083  -2.103   0.315  1.00  0.00     0.165 HD
HETATM   10  H   UNL     1       4.975   1.055   2.064  1.00  0.00     0.173 HD
ENDROOT
BRANCH   2  11
HETATM   11  C   UNL     1       3.028   0.113  -1.573  1.00  0.00    -0.006 A 
HETATM   12  C   UNL     1       3.180  -1.027  -2.376  1.00  0.00     0.013 A 
HETATM   13  C   UNL     1       3.554  -0.900  -3.711  1.00  0.00     0.018 A 
HETATM   14  C   UNL     1       3.752   0.370  -4.219  1.00  0.00     0.087 A 
HETATM   15  N   UNL     1       3.582   1.494  -3.498  1.00  0.00    -0.375 N 
HETATM   16  C   UNL     1       3.219   1.344  -2.202  1.00  0.00     0.097 A 
ATOM     17  HN  UNL     1       3.720   2.417  -3.909  1.00  0.00     0.164 HD
ENDBRANCH   2  11
TORSDOF 1
