REMARK  6 active torsions:
REMARK  status: ('A' for Active; 'I' for Inactive)
REMARK    1  A    between atoms: N_1  and  C_12 
REMARK    2  A    between atoms: N_2  and  C_14 
REMARK    3  A    between atoms: N_4  and  C_15 
REMARK    4  A    between atoms: C_5  and  C_13 
REMARK    5  A    between atoms: C_12  and  C_13 
REMARK    6  A    between atoms: C_15  and  C_21 
ROOT
HETATM    1  C   UNL     1      -3.175   2.403   0.175  1.00  0.00     0.179 C 
HETATM    2  O   UNL     1      -1.975   2.535  -0.105  1.00  0.00    -0.290 OA
ENDROOT
BRANCH   1   3
HETATM    3  C   UNL     1      -3.750   0.984   0.248  1.00  0.00     0.036 A 
HETATM    4  C   UNL     1      -2.964  -0.170   0.462  1.00  0.00     0.022 A 
HETATM    5  N   UNL     1      -3.721  -1.357   0.385  1.00  0.00    -0.345 N 
HETATM    6  C   UNL     1      -1.496  -0.164   0.710  1.00  0.00     0.069 C 
HETATM    7  C   UNL     1      -5.048  -0.937   0.182  1.00  0.00     0.009 A 
HETATM    8  C   UNL     1      -5.063   0.464   0.077  1.00  0.00     0.042 A 
HETATM    9  C   UNL     1      -6.236  -1.843   0.085  1.00  0.00     0.068 C 
BRANCH   5  10
HETATM   10  C   UNL     1      -3.129  -2.763   0.165  1.00  0.00     0.118 C 
HETATM   11  C   UNL     1      -3.498  -3.321  -1.228  1.00  0.00     0.038 C 
BRANCH  10  12
HETATM   12  C   UNL     1      -3.054  -3.843   1.324  1.00  0.00    -0.035 A 
HETATM   13  C   UNL     1      -3.058  -5.243   1.060  1.00  0.00     0.009 A 
HETATM   14  C   UNL     1      -2.680  -6.225   2.021  1.00  0.00     0.001 A 
HETATM   15  C   UNL     1      -2.278  -5.823   3.279  1.00  0.00     0.000 A 
HETATM   16  C   UNL     1      -2.251  -4.465   3.575  1.00  0.00     0.001 A 
HETATM   17  C   UNL     1      -2.632  -3.504   2.604  1.00  0.00     0.009 A 
ENDBRANCH  10  12
ENDBRANCH   5  10
ENDBRANCH   1   3
BRANCH   1  18
HETATM   18  C   UNL     1      -3.977   3.733   0.390  1.00  0.00     0.221 C 
BRANCH  18  19
HETATM   19  N   UNL     1      -3.277   4.733   1.276  1.00  0.00    -0.256 N 
HETATM   20  C   UNL     1      -2.400   5.671   0.713  1.00  0.00     0.334 C 
HETATM   21  N   UNL     1      -1.546   6.347   1.616  1.00  0.00    -0.279 N 
HETATM   22  O   UNL     1      -2.396   5.928  -0.491  1.00  0.00    -0.246 OA
HETATM   23  C   UNL     1      -1.858   6.432   2.957  1.00  0.00     0.146 C 
HETATM   24  C   UNL     1      -2.940   5.815   3.437  1.00  0.00     0.200 C 
HETATM   25  C   UNL     1      -3.725   4.884   2.579  1.00  0.00     0.292 C 
HETATM   26  F   UNL     1      -3.337   5.949   4.714  1.00  0.00    -0.199 F 
HETATM   27  O   UNL     1      -4.719   4.314   3.025  1.00  0.00    -0.264 OA
BRANCH  21  28
HETATM   28  C   UNL     1      -0.200   6.687   1.141  1.00  0.00     0.232 C 
HETATM   29  O   UNL     1       0.615   7.337   2.143  1.00  0.00    -0.366 OA
HETATM   30  C   UNL     1       1.758   7.890   1.457  1.00  0.00     0.170 C 
HETATM   31  C   UNL     1       1.418   7.934  -0.024  1.00  0.00     0.031 C 
HETATM   32  C   UNL     1      -0.057   7.597  -0.065  1.00  0.00     0.056 C 
ENDBRANCH  21  28
ENDBRANCH  18  19
ENDBRANCH   1  18
TORSDOF 6
