REMARK  5 active torsions:
REMARK  status: ('A' for Active; 'I' for Inactive)
REMARK    1  A    between atoms: C_2  and  O_4 
REMARK    2  A    between atoms: C_2  and  C_5 
REMARK       I    between atoms: N_9  and  C_10 
REMARK       I    between atoms: C_10  and  N_12 
REMARK    3  A    between atoms: N_12  and  C_13 
REMARK    4  A    between atoms: C_13  and  C_14 
REMARK    5  A    between atoms: C_14  and  C_17 
ROOT
HETATM    1  C   UNL     1       2.897  -0.418   1.416  1.00  0.00     0.122 C 
HETATM    2  C   UNL     1       3.049  -1.953   1.493  1.00  0.00     0.030 C 
HETATM    3  C   UNL     1       2.263  -2.414   2.717  1.00  0.00     0.022 C 
HETATM    4  C   UNL     1       1.849  -1.146   3.428  1.00  0.00     0.128 C 
HETATM    5  N   UNL     1       1.821  -0.131   2.396  1.00  0.00    -0.327 N 
HETATM    6  C   UNL     1       1.118   1.026   2.675  1.00  0.00     0.318 C 
HETATM    7  O   UNL     1       0.422   1.151   3.686  1.00  0.00    -0.247 OA
HETATM    8  N   UNL     1       1.167   2.001   1.731  1.00  0.00    -0.342 N 
HETATM    9  H   UNL     1       2.006   2.003   1.167  1.00  0.00     0.164 HD
ENDROOT
BRANCH   8  10
HETATM   10  C   UNL     1       0.404   3.237   1.800  1.00  0.00     0.138 C 
BRANCH  10  11
HETATM   11  C   UNL     1       0.627   4.164   0.556  1.00  0.00    -0.004 C 
HETATM   12  C   UNL     1       0.080   3.418  -0.691  1.00  0.00     0.021 C 
HETATM   13  C   UNL     1      -0.231   5.433   0.735  1.00  0.00     0.021 C 
BRANCH  11  14
HETATM   14  C   UNL     1       2.093   4.611   0.378  1.00  0.00    -0.046 A 
HETATM   15  C   UNL     1       2.625   4.933  -0.879  1.00  0.00     0.025 A 
HETATM   16  C   UNL     1       3.959   5.303  -0.989  1.00  0.00     0.088 A 
HETATM   17  N   UNL     1       4.807   5.389   0.056  1.00  0.00    -0.375 N 
HETATM   18  C   UNL     1       4.284   5.110   1.265  1.00  0.00     0.088 A 
ATOM     19  HN  UNL     1       5.786   5.650  -0.062  1.00  0.00     0.164 HD
HETATM   20  C   UNL     1       2.963   4.738   1.474  1.00  0.00     0.025 A 
ENDBRANCH  11  14
ENDBRANCH  10  11
ENDBRANCH   8  10
BRANCH   1  21
HETATM   21  C   UNL     1       2.783   0.099  -0.054  1.00  0.00     0.071 C 
HETATM   22  C   UNL     1       1.454  -0.275  -0.716  1.00  0.00     0.047 C 
HETATM   23  C   UNL     1       3.955  -0.383  -0.925  1.00  0.00     0.047 C 
BRANCH  21  24
HETATM   24  O   UNL     1       2.929   1.530  -0.036  1.00  0.00    -0.389 OA
HETATM   25  H   UNL     1       2.974   1.850  -0.953  1.00  0.00     0.210 HD
ENDBRANCH  21  24
ENDBRANCH   1  21
TORSDOF 5
