REMARK  7 active torsions:
REMARK  status: ('A' for Active; 'I' for Inactive)
REMARK    1  A    between atoms: C_2  and  C_4 
REMARK    2  A    between atoms: C_4  and  C_5 
REMARK    3  A    between atoms: C_5  and  C_9 
REMARK       I    between atoms: C_9  and  N_11 
REMARK    4  A    between atoms: N_11  and  C_12 
REMARK    5  A    between atoms: C_12  and  C_13 
REMARK    6  A    between atoms: C_13  and  C_14 
REMARK    7  A    between atoms: N_20  and  C_21 
ROOT
HETATM    1  C   UNL     1       4.736  -1.461   2.634  1.00  0.00     0.226 C 
HETATM    2  O   UNL     1       3.848  -1.866   3.387  1.00  0.00    -0.273 OA
HETATM    3  N   UNL     1       6.051  -1.826   2.844  1.00  0.00    -0.360 N 
HETATM    4  H   UNL     1       6.774  -1.527   2.196  1.00  0.00     0.162 HD
ENDROOT
BRANCH   3   5
HETATM    5  C   UNL     1       6.429  -2.807   3.850  1.00  0.00     0.130 C 
BRANCH   5   6
HETATM    6  C   UNL     1       6.474  -4.224   3.270  1.00  0.00     0.098 C 
BRANCH   6   7
HETATM    7  C   UNL     1       7.561  -4.366   2.257  1.00  0.00     0.101 A 
HETATM    8  N   UNL     1       8.680  -3.668   2.217  1.00  0.00    -0.288 N 
HETATM    9  N   UNL     1       9.403  -4.063   1.119  1.00  0.00    -0.295 N 
ATOM     10  HN  UNL     1       8.961  -2.954   2.889  1.00  0.00     0.188 HD
HETATM   11  C   UNL     1       8.718  -5.006   0.514  1.00  0.00     0.201 A 
ATOM     12  HN  UNL     1      10.307  -3.692   0.827  1.00  0.00     0.187 HD
HETATM   13  N   UNL     1       7.560  -5.231   1.191  1.00  0.00    -0.326 N 
BRANCH  13  14
HETATM   14  C   UNL     1       6.532  -6.182   0.840  1.00  0.00     0.092 A 
HETATM   15  C   UNL     1       6.842  -7.489   0.130  1.00  0.00     0.028 A 
HETATM   16  C   UNL     1       6.128  -6.409  -0.607  1.00  0.00     0.028 A 
ENDBRANCH  13  14
ENDBRANCH   6   7
ENDBRANCH   5   6
ENDBRANCH   3   5
BRANCH   1  17
HETATM   17  C   UNL     1       4.501  -0.515   1.379  1.00  0.00     0.041 C 
HETATM   18  C   UNL     1       3.309   0.490   1.528  1.00  0.00     0.019 C 
HETATM   19  C   UNL     1       4.303   1.569   1.981  1.00  0.00     0.002 C 
HETATM   20  C   UNL     1       5.431   0.756   1.333  1.00  0.00     0.019 C 
BRANCH  17  21
HETATM   21  C   UNL     1       4.522  -1.264   0.023  1.00  0.00     0.023 C 
BRANCH  21  22
HETATM   22  C   UNL     1       3.297  -2.152  -0.288  1.00  0.00    -0.021 C 
HETATM   23  C   UNL     1       3.438  -2.723  -1.708  1.00  0.00     0.009 C 
HETATM   24  C   UNL     1       3.097  -3.318   0.676  1.00  0.00     0.009 C 
ENDBRANCH  21  22
ENDBRANCH  17  21
ENDBRANCH   1  17
TORSDOF 7
