REMARK  7 active torsions:
REMARK  status: ('A' for Active; 'I' for Inactive)
REMARK    1  A    between atoms: C_2  and  C_3 
REMARK    2  A    between atoms: C_7  and  C_8 
REMARK    3  A    between atoms: C_8  and  N_9 
REMARK    4  A    between atoms: N_9  and  C_10 
REMARK    5  A    between atoms: C_10  and  C_11 
REMARK    6  A    between atoms: C_11  and  O_13 
REMARK    7  A    between atoms: C_11  and  C_14 
ROOT
HETATM    1  C   UNL     1       8.611   0.334  -1.892  1.00  0.00     0.311 C 
ENDROOT
BRANCH   1   2
HETATM    2  N   UNL     1       7.197   0.736  -1.818  1.00  0.00     0.087 N 
HETATM    3  H   UNL     1       7.152   1.714  -2.113  1.00  0.00     0.316 HD
BRANCH   2   4
HETATM    4  C   UNL     1       6.669   0.651  -0.455  1.00  0.00     0.274 C 
BRANCH   4   5
HETATM    5  C   UNL     1       5.159   0.957  -0.497  1.00  0.00     0.014 C 
HETATM    6  C   UNL     1       4.852   2.367  -1.042  1.00  0.00     0.006 C 
HETATM    7  C   UNL     1       3.362   2.693  -1.021  1.00  0.00     0.001 C 
HETATM    8  C   UNL     1       2.748   2.452   0.352  1.00  0.00     0.005 C 
HETATM    9  C   UNL     1       3.006   1.031   0.874  1.00  0.00    -0.014 C 
HETATM   10  C   UNL     1       4.523   0.774   0.895  1.00  0.00     0.011 C 
BRANCH   9  11
HETATM   11  C   UNL     1       2.281  -0.076   0.072  1.00  0.00     0.000 C 
HETATM   12  C   UNL     1       0.767   0.052   0.052  1.00  0.00     0.005 C 
ENDBRANCH   9  11
ENDBRANCH   4   5
ENDBRANCH   2   4
ENDBRANCH   1   2
BRANCH   1  13
HETATM   13  C   UNL     1       9.122   0.373  -3.369  1.00  0.00     0.110 C 
HETATM   14  C   UNL     1       8.371  -0.644  -4.249  1.00  0.00     0.053 C 
BRANCH  13  15
HETATM   15  O   UNL     1       8.827   1.685  -3.896  1.00  0.00    -0.383 OA
HETATM   16  H   UNL     1       7.865   1.705  -4.032  1.00  0.00     0.211 HD
ENDBRANCH  13  15
BRANCH  13  17
HETATM   17  C   UNL     1      10.602   0.124  -3.420  1.00  0.00     0.011 A 
HETATM   18  C   UNL     1      11.312  -1.012  -2.959  1.00  0.00     0.119 A 
HETATM   19  N   UNL     1      12.627  -0.913  -3.153  1.00  0.00    -0.310 N 
HETATM   20  N   UNL     1      12.766   0.287  -3.748  1.00  0.00    -0.307 N 
ATOM     21  HN  UNL     1      13.354  -1.585  -2.909  1.00  0.00     0.186 HD
HETATM   22  C   UNL     1      14.074   0.757  -4.133  1.00  0.00     0.177 C 
HETATM   23  C   UNL     1      11.591   0.943  -3.925  1.00  0.00     0.121 A 
ENDBRANCH  13  17
ENDBRANCH   1  13
TORSDOF 7
