REMARK  7 active torsions:
REMARK  status: ('A' for Active; 'I' for Inactive)
REMARK    1  A    between atoms: C_2  and  C_3 
REMARK    2  A    between atoms: C_2  and  N_10 
REMARK    3  A    between atoms: C_3  and  N_4 
REMARK    4  A    between atoms: N_10  and  C_11 
REMARK    5  A    between atoms: C_11  and  C_12 
REMARK       I    between atoms: C_12  and  N_14 
REMARK    6  A    between atoms: N_14  and  C_15 
REMARK    7  A    between atoms: C_15  and  C_16 
ROOT
HETATM    1  N   UNL     1       2.958   0.020   1.403  1.00  0.00     0.098 N 
HETATM    2  H   UNL     1       2.621  -0.859   1.807  1.00  0.00     0.317 HD
ENDROOT
BRANCH   1   3
HETATM    3  C   UNL     1       2.447   0.090   0.006  1.00  0.00     0.236 C 
HETATM    4  C   UNL     1       0.917  -0.006   0.104  1.00  0.00     0.044 C 
BRANCH   3   5
HETATM    5  C   UNL     1       2.873   1.376  -0.738  1.00  0.00     0.183 C 
BRANCH   5   6
HETATM    6  N   UNL     1       2.365   1.475  -2.092  1.00  0.00    -0.302 N 
HETATM    7  C   UNL     1       1.614   2.495  -2.609  1.00  0.00     0.111 A 
HETATM    8  C   UNL     1       1.422   2.189  -3.936  1.00  0.00     0.037 A 
HETATM    9  C   UNL     1       2.098   0.970  -4.123  1.00  0.00     0.108 A 
HETATM   10  N   UNL     1       2.680   0.534  -3.002  1.00  0.00    -0.310 N 
ATOM     11  HN  UNL     1       3.233  -0.313  -2.867  1.00  0.00     0.186 HD
ENDBRANCH   5   6
ENDBRANCH   3   5
ENDBRANCH   1   3
BRANCH   1  12
HETATM   12  C   UNL     1       4.440  -0.024   1.458  1.00  0.00     0.372 C 
BRANCH  12  13
HETATM   13  C   UNL     1       4.905  -0.105   2.919  1.00  0.00     0.246 C 
HETATM   14  O   UNL     1       5.938  -0.666   3.264  1.00  0.00    -0.272 OA
HETATM   15  N   UNL     1       4.095   0.579   3.797  1.00  0.00    -0.351 N 
HETATM   16  H   UNL     1       3.172   0.815   3.437  1.00  0.00     0.162 HD
BRANCH  15  17
HETATM   17  C   UNL     1       4.345   0.558   5.235  1.00  0.00     0.240 C 
BRANCH  17  18
HETATM   18  C   UNL     1       3.866  -0.694   5.984  1.00  0.00     0.403 C 
HETATM   19  F   UNL     1       3.198  -1.551   5.177  1.00  0.00    -0.169 F 
HETATM   20  F   UNL     1       4.890  -1.366   6.551  1.00  0.00    -0.169 F 
HETATM   21  F   UNL     1       3.013  -0.344   6.978  1.00  0.00    -0.169 F 
ENDBRANCH  17  18
ENDBRANCH  15  17
ENDBRANCH  12  13
ENDBRANCH   1  12
TORSDOF 7
