REMARK  8 active torsions:
REMARK  status: ('A' for Active; 'I' for Inactive)
REMARK    1  A    between atoms: N_2  and  C_9 
REMARK    2  A    between atoms: C_6  and  N_8 
REMARK    3  A    between atoms: N_8  and  C_10 
REMARK    4  A    between atoms: N_8  and  C_24 
REMARK    5  A    between atoms: C_16  and  C_25 
REMARK    6  A    between atoms: C_16  and  C_26 
REMARK    7  A    between atoms: C_25  and  O_27 
REMARK    8  A    between atoms: C_26  and  O_28 
ROOT
HETATM    1  C   UNL     1       0.381  -0.638  -0.093  1.00  0.00     0.122 A 
HETATM    2  N   UNL     1       1.609   1.167  -0.135  1.00  0.00    -0.322 N 
HETATM    3  C   UNL     1       0.301   0.755  -0.072  1.00  0.00     0.140 A 
HETATM    4  N   UNL     1       1.699  -1.051  -0.199  1.00  0.00    -0.346 N 
ATOM      5  HN  UNL     1       2.049  -2.008  -0.236  1.00  0.00     0.167 HD
HETATM    6  C   UNL     1      -0.820  -1.391  -0.008  1.00  0.00     0.136 A 
HETATM    7  C   UNL     1       2.397   0.055  -0.242  1.00  0.00     0.185 A 
HETATM    8  N   UNL     1      -0.822   1.487   0.005  1.00  0.00    -0.336 N 
ATOM      9  HN  UNL     1      -0.849   2.506   0.028  1.00  0.00     0.168 HD
HETATM   10  N   UNL     1      -1.975  -0.663   0.030  1.00  0.00    -0.337 N 
ATOM     11  HN  UNL     1      -2.879  -1.135   0.045  1.00  0.00     0.168 HD
HETATM   12  C   UNL     1      -1.911   0.689   0.048  1.00  0.00     0.183 A 
ENDROOT
BRANCH   2  13
HETATM   13  C   UNL     1       2.222   2.461  -0.070  1.00  0.00     0.094 C 
HETATM   14  C   UNL     1       1.896   3.291   1.209  1.00  0.00     0.039 C 
HETATM   15  C   UNL     1       2.121   4.568   0.315  1.00  0.00     0.006 C 
HETATM   16  C   UNL     1       1.583   3.639  -0.847  1.00  0.00     0.039 C 
BRANCH  15  17
HETATM   17  C   UNL     1       1.296   5.813   0.654  1.00  0.00     0.175 C 
BRANCH  17  18
HETATM   18  O   UNL     1      -0.041   5.477   0.997  1.00  0.00    -0.400 OA
HETATM   19  H   UNL     1      -0.518   5.284   0.172  1.00  0.00     0.209 HD
ENDBRANCH  17  18
ENDBRANCH  15  17
BRANCH  15  20
HETATM   20  C   UNL     1       3.609   4.973   0.221  1.00  0.00     0.175 C 
BRANCH  20  21
HETATM   21  O   UNL     1       3.828   5.729  -0.962  1.00  0.00    -0.400 OA
HETATM   22  H   UNL     1       3.988   5.103  -1.691  1.00  0.00     0.209 HD
ENDBRANCH  20  21
ENDBRANCH  15  20
ENDBRANCH   2  13
BRANCH   6  23
HETATM   23  N   UNL     1      -0.875  -2.786   0.079  1.00  0.00    -0.352 N 
BRANCH  23  24
HETATM   24  C   UNL     1       0.316  -3.505   0.565  1.00  0.00     0.179 C 
HETATM   25  C   UNL     1       0.285  -5.041   0.635  1.00  0.00     0.240 C 
HETATM   26  N   UNL     1       0.892  -5.430   1.823  1.00  0.00    -0.359 N 
HETATM   27  O   UNL     1      -0.083  -5.838  -0.214  1.00  0.00    -0.271 OA
HETATM   28  C   UNL     1       1.436  -4.312   2.526  1.00  0.00     0.125 C 
HETATM   29  H   UNL     1       1.132  -6.401   1.977  1.00  0.00     0.162 HD
HETATM   30  C   UNL     1       0.582  -3.162   2.045  1.00  0.00     0.054 C 
ENDBRANCH  23  24
BRANCH  23  31
HETATM   31  C   UNL     1      -2.057  -3.462  -0.442  1.00  0.00     0.121 C 
HETATM   32  C   UNL     1      -3.087  -3.716   0.647  1.00  0.00     0.026 C 
ENDBRANCH  23  31
ENDBRANCH   6  23
TORSDOF 8
