REMARK  5 active torsions:
REMARK  status: ('A' for Active; 'I' for Inactive)
REMARK    1  A    between atoms: C_2  and  O_3 
REMARK    2  A    between atoms: O_3  and  C_4 
REMARK    3  A    between atoms: C_6  and  N_7 
REMARK       I    between atoms: N_7  and  C_8 
REMARK       I    between atoms: C_8  and  N_10 
REMARK    4  A    between atoms: N_10  and  C_11 
REMARK    5  A    between atoms: C_18  and  O_19 
ROOT
HETATM    1  N   UNL     1       7.463  -1.231   1.039  1.00  0.00    -0.336 N 
HETATM    2  C   UNL     1       8.447  -0.322   1.358  1.00  0.00     0.321 C 
HETATM    3  O   UNL     1       8.307   0.460   2.295  1.00  0.00    -0.247 OA
HETATM    4  N   UNL     1       9.526  -0.382   0.506  1.00  0.00    -0.309 N 
HETATM    5  H   UNL     1       7.750  -2.047   0.515  1.00  0.00     0.164 HD
HETATM    6  H   UNL     1       9.363  -0.824  -0.387  1.00  0.00     0.170 HD
ENDROOT
BRANCH   1   7
HETATM    7  C   UNL     1       6.246  -1.295   1.899  1.00  0.00     0.120 C 
HETATM    8  C   UNL     1       5.146  -2.258   1.424  1.00  0.00     0.062 C 
HETATM    9  C   UNL     1       4.530  -1.086   0.631  1.00  0.00     0.154 C 
HETATM   10  C   UNL     1       5.235  -0.126   1.649  1.00  0.00     0.172 C 
BRANCH   9  11
HETATM   11  O   UNL     1       3.088  -1.079   0.550  1.00  0.00    -0.384 OA
BRANCH  11  12
HETATM   12  C   UNL     1       2.523  -0.013  -0.205  1.00  0.00     0.163 C 
HETATM   13  C   UNL     1       1.017  -0.166  -0.217  1.00  0.00     0.033 C 
ENDBRANCH  11  12
ENDBRANCH   9  11
BRANCH  10  14
HETATM   14  O   UNL     1       4.463   0.300   2.801  1.00  0.00    -0.386 OA
HETATM   15  C   UNL     1       5.195   0.994   3.806  1.00  0.00     0.202 C 
ENDBRANCH  10  14
ENDBRANCH   1   7
BRANCH   4  16
HETATM   16  C   UNL     1      10.715   0.371   0.646  1.00  0.00     0.038 A 
HETATM   17  C   UNL     1      11.076   1.010   1.831  1.00  0.00     0.046 A 
HETATM   18  C   UNL     1      12.245   1.750   1.860  1.00  0.00     0.090 A 
HETATM   19  N   UNL     1      13.075   1.880   0.806  1.00  0.00    -0.375 N 
HETATM   20  C   UNL     1      12.719   1.236  -0.324  1.00  0.00     0.090 A 
ATOM     21  HN  UNL     1      13.928   2.437   0.860  1.00  0.00     0.164 HD
HETATM   22  C   UNL     1      11.569   0.471  -0.451  1.00  0.00     0.046 A 
ENDBRANCH   4  16
TORSDOF 5
