REMARK  7 active torsions:
REMARK  status: ('A' for Active; 'I' for Inactive)
REMARK    1  A    between atoms: C_2  and  N_3 
REMARK    2  A    between atoms: C_2  and  C_6 
REMARK    3  A    between atoms: N_3  and  C_4 
REMARK    4  A    between atoms: N_15  and  C_16 
REMARK    5  A    between atoms: C_16  and  C_17 
REMARK    6  A    between atoms: C_17  and  O_18 
REMARK    7  A    between atoms: O_18  and  C_19 
ROOT
HETATM    1  C   UNL     1       2.945   1.050   1.160  1.00  0.00     0.107 A 
HETATM    2  N   UNL     1       2.741   2.352   1.071  1.00  0.00    -0.342 N 
ATOM      3  HN  UNL     1       2.338   2.858   0.283  1.00  0.00     0.167 HD
HETATM    4  C   UNL     1       3.180   2.882   2.249  1.00  0.00     0.060 A 
HETATM    5  C   UNL     1       3.147   4.223   2.667  1.00  0.00     0.032 A 
HETATM    6  C   UNL     1       3.620   4.558   3.937  1.00  0.00     0.002 A 
HETATM    7  C   UNL     1       4.132   3.573   4.773  1.00  0.00     0.002 A 
HETATM    8  C   UNL     1       4.188   2.238   4.363  1.00  0.00     0.032 A 
HETATM    9  C   UNL     1       3.697   1.896   3.089  1.00  0.00     0.062 A 
HETATM   10  N   UNL     1       3.569   0.721   2.359  1.00  0.00    -0.331 N 
ENDROOT
BRANCH  10  11
HETATM   11  C   UNL     1       3.965  -0.641   2.721  1.00  0.00     0.157 C 
BRANCH  11  12
HETATM   12  C   UNL     1       4.590  -0.796   4.101  1.00  0.00     0.196 C 
BRANCH  12  13
HETATM   13  O   UNL     1       4.950  -2.137   4.430  1.00  0.00    -0.348 OA
BRANCH  13  14
HETATM   14  C   UNL     1       5.536  -2.285   5.675  1.00  0.00     0.090 A 
HETATM   15  C   UNL     1       5.761  -1.230   6.575  1.00  0.00     0.038 A 
HETATM   16  C   UNL     1       6.369  -1.449   7.812  1.00  0.00     0.003 A 
HETATM   17  C   UNL     1       6.764  -2.729   8.178  1.00  0.00     0.002 A 
HETATM   18  C   UNL     1       6.545  -3.792   7.303  1.00  0.00     0.026 A 
HETATM   19  C   UNL     1       5.934  -3.574   6.060  1.00  0.00     0.067 A 
HETATM   20 CL   UNL     1       5.689  -4.938   5.028  1.00  0.00    -0.081 Cl
ENDBRANCH  13  14
ENDBRANCH  12  13
ENDBRANCH  11  12
ENDBRANCH  10  11
BRANCH   1  21
HETATM   21  C   UNL     1       2.510   0.062   0.110  1.00  0.00     0.147 C 
HETATM   22  C   UNL     1       1.082  -0.404   0.393  1.00  0.00     0.040 C 
BRANCH  21  23
HETATM   23  N   UNL     1       2.567   0.755  -1.164  1.00  0.00    -0.357 N 
HETATM   24  H   UNL     1       2.401   1.756  -1.141  1.00  0.00     0.162 HD
BRANCH  23  25
HETATM   25  C   UNL     1       2.759   0.115  -2.352  1.00  0.00     0.349 C 
HETATM   26  O   UNL     1       2.939  -1.087  -2.489  1.00  0.00    -0.284 OA
ENDBRANCH  23  25
ENDBRANCH  21  23
ENDBRANCH   1  21
TORSDOF 7
