REMARK  4 active torsions:
REMARK  status: ('A' for Active; 'I' for Inactive)
REMARK    1  A    between atoms: C_5  and  C_6 
REMARK    2  A    between atoms: C_6  and  C_7 
REMARK    3  A    between atoms: C_7  and  N_8 
REMARK       I    between atoms: N_8  and  C_9 
REMARK       I    between atoms: C_9  and  N_11 
REMARK       I    between atoms: N_15  and  C_18 
REMARK    4  A    between atoms: C_18  and  C_20 
ROOT
HETATM    1  N   UNL     1       8.759  -1.316  -0.949  1.00  0.00    -0.343 N 
HETATM    2  C   UNL     1       9.438  -2.508  -1.056  1.00  0.00     0.318 C 
HETATM    3  O   UNL     1       8.868  -3.584  -0.890  1.00  0.00    -0.247 OA
HETATM    4  N   UNL     1      10.788  -2.407  -1.362  1.00  0.00    -0.333 N 
HETATM    5  C   UNL     1      11.511  -1.162  -1.646  1.00  0.00     0.129 C 
HETATM    6  C   UNL     1      12.312  -0.716  -0.424  1.00  0.00     0.040 C 
HETATM    7  C   UNL     1      13.714  -1.335  -0.337  1.00  0.00     0.127 C 
HETATM    8  N   UNL     1      13.821  -2.686  -0.882  1.00  0.00    -0.350 N 
HETATM    9  C   UNL     1      12.790  -3.651  -0.476  1.00  0.00     0.145 C 
HETATM   10  C   UNL     1      11.580  -3.649  -1.425  1.00  0.00     0.147 C 
HETATM   11  C   UNL     1      14.759  -3.109  -1.828  1.00  0.00     0.224 C 
HETATM   12  O   UNL     1      14.733  -4.233  -2.322  1.00  0.00    -0.273 OA
HETATM   13  H   UNL     1       9.301  -0.552  -0.581  1.00  0.00     0.164 HD
ENDROOT
BRANCH   1  14
HETATM   14  C   UNL     1       7.346  -1.337  -0.589  1.00  0.00     0.129 C 
BRANCH  14  15
HETATM   15  C   UNL     1       6.723   0.062  -0.573  1.00  0.00     0.060 C 
BRANCH  15  16
HETATM   16  C   UNL     1       5.254   0.026  -0.244  1.00  0.00    -0.041 A 
HETATM   17  C   UNL     1       4.287  -0.081  -1.244  1.00  0.00     0.010 A 
HETATM   18  C   UNL     1       2.939  -0.163  -0.900  1.00  0.00     0.025 A 
HETATM   19  C   UNL     1       2.583  -0.138   0.443  1.00  0.00     0.005 A 
HETATM   20  C   UNL     1       1.152  -0.297   0.865  1.00  0.00     0.068 C 
HETATM   21  N   UNL     1       3.500  -0.020   1.432  1.00  0.00    -0.369 N 
HETATM   22  C   UNL     1       4.802   0.057   1.071  1.00  0.00     0.095 A 
ATOM     23  HN  UNL     1       3.220   0.010   2.412  1.00  0.00     0.165 HD
ENDBRANCH  15  16
ENDBRANCH  14  15
ENDBRANCH   1  14
BRANCH  11  24
HETATM   24  C   UNL     1      15.853  -2.168  -2.225  1.00  0.00     0.078 A 
HETATM   25  C   UNL     1      16.909  -2.561  -3.235  1.00  0.00     0.015 A 
HETATM   26  C   UNL     1      17.267  -2.477  -1.782  1.00  0.00     0.015 A 
ENDBRANCH  11  24
TORSDOF 4
