REMARK  6 active torsions:
REMARK  status: ('A' for Active; 'I' for Inactive)
REMARK    1  A    between atoms: N_5  and  C_6 
REMARK    2  A    between atoms: C_6  and  C_7 
REMARK    3  A    between atoms: C_7  and  O_8 
REMARK    4  A    between atoms: C_12  and  C_19 
REMARK    5  A    between atoms: C_14  and  C_15 
REMARK    6  A    between atoms: C_15  and  O_17 
ROOT
HETATM    1  C   UNL     1       1.049   0.191  -0.052  1.00  0.00     0.070 C 
HETATM    2  C   UNL     1       2.525  -0.004  -0.058  1.00  0.00     0.037 A 
HETATM    3  N   UNL     1       3.311   1.081  -0.039  1.00  0.00    -0.300 N 
ATOM      4  HN  UNL     1       3.026   2.060  -0.011  1.00  0.00     0.187 HD
HETATM    5  N   UNL     1       4.565   0.585  -0.065  1.00  0.00    -0.274 N 
HETATM    6  C   UNL     1       4.609  -0.786  -0.056  1.00  0.00     0.136 A 
HETATM    7  N   UNL     1       5.720  -1.552  -0.043  1.00  0.00    -0.338 N 
ATOM      8  HN  UNL     1       6.663  -1.163  -0.024  1.00  0.00     0.167 HD
HETATM    9  C   UNL     1       5.472  -2.883  -0.058  1.00  0.00     0.069 A 
HETATM   10  C   UNL     1       4.197  -3.442  -0.080  1.00  0.00     0.052 A 
HETATM   11  C   UNL     1       3.072  -2.607  -0.058  1.00  0.00     0.056 A 
HETATM   12  C   UNL     1       3.284  -1.214  -0.062  1.00  0.00     0.050 A 
ENDROOT
BRANCH   9  13
HETATM   13  C   UNL     1       6.665  -3.727  -0.046  1.00  0.00     0.101 A 
HETATM   14  C   UNL     1       8.023  -3.476  -0.043  1.00  0.00     0.041 A 
HETATM   15  C   UNL     1       8.673  -4.736  -0.028  1.00  0.00     0.027 A 
HETATM   16  C   UNL     1       7.675  -5.680  -0.023  1.00  0.00     0.142 A 
HETATM   17  O   UNL     1       6.457  -5.082  -0.032  1.00  0.00    -0.321 OA
ENDBRANCH   9  13
BRANCH  11  18
HETATM   18  C   UNL     1       1.710  -3.180  -0.102  1.00  0.00     0.177 C 
HETATM   19  O   UNL     1       0.775  -2.642  -0.666  1.00  0.00    -0.646 OA
BRANCH  18  20
HETATM   20  O   UNL     1       1.585  -4.364   0.535  1.00  0.00    -0.773 OA
HETATM   21  H   UNL     1       2.339  -4.654   1.080  1.00  0.00     0.167 HD
ENDBRANCH  18  20
ENDBRANCH  11  18
BRANCH   5  22
HETATM   22  C   UNL     1       5.712   1.477  -0.041  1.00  0.00     0.177 C 
BRANCH  22  23
HETATM   23  C   UNL     1       5.353   2.964  -0.065  1.00  0.00     0.185 C 
BRANCH  23  24
HETATM   24  O   UNL     1       4.610   3.339   1.094  1.00  0.00    -0.399 OA
HETATM   25  H   UNL     1       3.765   2.841   1.025  1.00  0.00     0.209 HD
ENDBRANCH  23  24
ENDBRANCH  22  23
ENDBRANCH   5  22
TORSDOF 6
