REMARK  5 active torsions:
REMARK  status: ('A' for Active; 'I' for Inactive)
REMARK    1  A    between atoms: C_2  and  C_4 
REMARK    2  A    between atoms: C_2  and  C_17 
REMARK       I    between atoms: C_4  and  N_6 
REMARK    3  A    between atoms: N_6  and  C_7 
REMARK    4  A    between atoms: C_7  and  C_8 
REMARK    5  A    between atoms: C_8  and  C_9 
REMARK       I    between atoms: C_9  and  N_11 
ROOT
HETATM    1  C   UNL     1       3.207  -1.754  -1.396  1.00  0.00     0.296 C 
HETATM    2  O   UNL     1       4.252  -2.374  -1.599  1.00  0.00    -0.266 OA
HETATM    3  N   UNL     1       2.492  -1.163  -2.430  1.00  0.00    -0.355 N 
HETATM    4  H   UNL     1       1.627  -0.682  -2.197  1.00  0.00     0.162 HD
ENDROOT
BRANCH   1   5
HETATM    5  C   UNL     1       2.601  -1.541   0.019  1.00  0.00     0.364 C 
HETATM    6  F   UNL     1       3.478  -0.825   0.800  1.00  0.00    -0.188 F 
HETATM    7  F   UNL     1       1.491  -0.727  -0.061  1.00  0.00    -0.188 F 
BRANCH   5   8
HETATM    8  C   UNL     1       2.276  -2.901   0.624  1.00  0.00     0.091 A 
HETATM    9  C   UNL     1       3.242  -3.566   1.384  1.00  0.00     0.032 A 
HETATM   10  C   UNL     1       2.953  -4.831   1.889  1.00  0.00     0.003 A 
HETATM   11  C   UNL     1       1.713  -5.400   1.633  1.00  0.00     0.017 A 
HETATM   12  C   UNL     1       0.804  -4.679   0.878  1.00  0.00     0.088 A 
HETATM   13  N   UNL     1       1.056  -3.454   0.365  1.00  0.00    -0.364 N 
ATOM     14  HN  UNL     1       0.360  -2.961  -0.195  1.00  0.00     0.165 HD
ENDBRANCH   5   8
ENDBRANCH   1   5
BRANCH   3  15
HETATM   15  C   UNL     1       2.953  -1.188  -3.805  1.00  0.00     0.132 C 
BRANCH  15  16
HETATM   16  C   UNL     1       2.459  -2.416  -4.564  1.00  0.00     0.122 C 
BRANCH  16  17
HETATM   17  C   UNL     1       2.987  -2.414  -5.989  1.00  0.00     0.221 C 
HETATM   18  O   UNL     1       3.685  -1.486  -6.399  1.00  0.00    -0.273 OA
HETATM   19  N   UNL     1       2.652  -3.492  -6.797  1.00  0.00    -0.352 N 
HETATM   20  C   UNL     1       1.765  -4.596  -6.429  1.00  0.00     0.125 C 
HETATM   21  C   UNL     1       3.152  -3.533  -8.171  1.00  0.00     0.125 C 
HETATM   22  C   UNL     1       2.442  -5.943  -6.680  1.00  0.00     0.020 C 
HETATM   23  C   UNL     1       2.982  -6.043  -8.107  1.00  0.00     0.003 C 
HETATM   24  C   UNL     1       3.875  -4.849  -8.440  1.00  0.00     0.020 C 
ENDBRANCH  16  17
ENDBRANCH  15  16
ENDBRANCH   3  15
TORSDOF 5
