REMARK  4 active torsions:
REMARK  status: ('A' for Active; 'I' for Inactive)
REMARK    1  A    between atoms: C_2  and  C_4 
REMARK    2  A    between atoms: C_2  and  C_15 
REMARK    3  A    between atoms: C_4  and  N_5 
REMARK       I    between atoms: N_5  and  C_6 
REMARK    4  A    between atoms: C_6  and  C_8 
ROOT
HETATM    1  C   UNL     1       2.739  -1.318  -4.686  1.00  0.00     0.129 C 
HETATM    2  C   UNL     1       3.660  -1.330  -5.925  1.00  0.00     0.034 C 
HETATM    3  C   UNL     1       2.754  -1.304  -7.159  1.00  0.00     0.002 C 
HETATM    4  C   UNL     1       1.324  -1.315  -6.645  1.00  0.00     0.002 C 
HETATM    5  C   UNL     1       1.420  -0.751  -5.233  1.00  0.00     0.034 C 
HETATM    6  C   UNL     1       2.548  -2.691  -4.175  1.00  0.00     0.079 C 
HETATM    7  N   UNL     1       2.356  -3.761  -3.768  1.00  0.00    -0.196 NA
ENDROOT
BRANCH   1   8
HETATM    8  C   UNL     1       3.297  -0.447  -3.553  1.00  0.00     0.240 C 
HETATM    9  N   UNL     1       2.506  -0.350  -2.424  1.00  0.00    -0.359 N 
HETATM   10  H   UNL     1       1.540  -0.653  -2.463  1.00  0.00     0.162 HD
HETATM   11  O   UNL     1       4.382   0.126  -3.632  1.00  0.00    -0.272 OA
BRANCH   9  12
HETATM   12  C   UNL     1       2.908   0.455  -1.278  1.00  0.00     0.136 C 
BRANCH  12  13
HETATM   13  C   UNL     1       2.411  -0.087   0.095  1.00  0.00    -0.004 C 
HETATM   14  C   UNL     1       2.989  -1.503   0.339  1.00  0.00     0.021 C 
HETATM   15  C   UNL     1       3.029   0.813   1.198  1.00  0.00     0.021 C 
BRANCH  13  16
HETATM   16  C   UNL     1       0.871  -0.069   0.141  1.00  0.00    -0.046 A 
HETATM   17  C   UNL     1       0.157   1.069   0.548  1.00  0.00     0.025 A 
HETATM   18  C   UNL     1      -1.232   1.047   0.545  1.00  0.00     0.088 A 
HETATM   19  N   UNL     1      -1.967  -0.011   0.153  1.00  0.00    -0.375 N 
HETATM   20  C   UNL     1      -1.280  -1.101  -0.239  1.00  0.00     0.088 A 
ATOM     21  HN  UNL     1      -2.987   0.012   0.153  1.00  0.00     0.164 HD
HETATM   22  C   UNL     1       0.107  -1.176  -0.261  1.00  0.00     0.025 A 
ENDBRANCH  13  16
ENDBRANCH  12  13
ENDBRANCH   9  12
ENDBRANCH   1   8
TORSDOF 4
