REMARK  3 active torsions:
REMARK  status: ('A' for Active; 'I' for Inactive)
REMARK    1  A    between atoms: N_1  and  C_4 
REMARK    2  A    between atoms: C_7  and  C_14 
REMARK    3  A    between atoms: O_12  and  C_14 
ROOT
HETATM    1  N   UNL     1      -1.366  -3.160  -0.059  1.00  0.00    -0.290 N 
ATOM      2  HN  UNL     1      -0.491  -3.299   0.447  1.00  0.00     0.188 HD
HETATM    3  C   UNL     1      -1.602  -1.979  -0.664  1.00  0.00     0.097 A 
HETATM    4  N   UNL     1      -2.297  -4.193  -0.113  1.00  0.00    -0.304 N 
ATOM      5  HN  UNL     1      -2.112  -5.070   0.374  1.00  0.00     0.186 HD
HETATM    6  C   UNL     1      -2.772  -1.829  -1.400  1.00  0.00     0.045 A 
HETATM    7  C   UNL     1      -3.441  -4.040  -0.806  1.00  0.00     0.022 A 
HETATM    8  C   UNL     1      -3.704  -2.859  -1.475  1.00  0.00     0.029 A 
HETATM    9  C   UNL     1      -4.440  -5.152  -0.818  1.00  0.00     0.069 C 
ENDROOT
BRANCH   3  10
HETATM   10  N   UNL     1      -0.700  -0.917  -0.629  1.00  0.00    -0.262 NA
HETATM   11  C   UNL     1       0.667  -1.123  -0.118  1.00  0.00     0.088 C 
HETATM   12  C   UNL     1       1.162   0.319   0.166  1.00  0.00     0.023 C 
HETATM   13  C   UNL     1      -0.020   1.231  -0.148  1.00  0.00     0.017 C 
HETATM   14  C   UNL     1      -1.218   0.308  -0.025  1.00  0.00     0.098 C 
BRANCH  11  15
HETATM   15  C   UNL     1       1.561  -1.850  -1.132  1.00  0.00     0.184 C 
BRANCH  15  16
HETATM   16  O   UNL     1       2.895  -1.961  -0.634  1.00  0.00    -0.399 OA
HETATM   17  H   UNL     1       3.318  -2.680  -1.135  1.00  0.00     0.209 HD
ENDBRANCH  15  16
ENDBRANCH  11  15
ENDBRANCH   3  10
TORSDOF 3
