REMARK  3 active torsions:
REMARK  status: ('A' for Active; 'I' for Inactive)
REMARK    1  A    between atoms: C_8  and  C_9 
REMARK    2  A    between atoms: C_9  and  C_10 
REMARK       I    between atoms: C_10  and  N_12 
REMARK    3  A    between atoms: N_12  and  C_13 
ROOT
HETATM    1  C   UNL     1       2.075   3.287   0.665  1.00  0.00     0.222 C 
HETATM    2  O   UNL     1       1.421   2.555   1.401  1.00  0.00    -0.273 OA
HETATM    3  N   UNL     1       1.517   4.332  -0.054  1.00  0.00    -0.356 N 
HETATM    4  H   UNL     1       2.149   5.104  -0.245  1.00  0.00     0.162 HD
ENDROOT
BRANCH   1   5
HETATM    5  C   UNL     1       3.557   3.071   0.427  1.00  0.00     0.146 C 
BRANCH   5   6
HETATM    6  C   UNL     1       4.463   3.769   1.380  1.00  0.00     0.006 A 
HETATM    7  C   UNL     1       4.297   4.106   2.757  1.00  0.00     0.038 A 
HETATM    8  C   UNL     1       3.144   3.874   3.662  1.00  0.00     0.071 C 
HETATM    9  N   UNL     1       5.387   4.711   3.244  1.00  0.00    -0.265 N 
HETATM   10  O   UNL     1       6.298   4.747   2.214  1.00  0.00    -0.242 OA
ATOM     11  HN  UNL     1       5.516   5.073   4.189  1.00  0.00     0.194 HD
HETATM   12  C   UNL     1       5.755   4.180   1.109  1.00  0.00     0.081 A 
HETATM   13  C   UNL     1       6.629   4.106  -0.078  1.00  0.00     0.079 C 
ENDBRANCH   5   6
ENDBRANCH   1   5
BRANCH   3  14
HETATM   14  C   UNL     1       0.081   4.615   0.000  1.00  0.00     0.086 C 
HETATM   15  C   UNL     1      -0.765   3.435  -0.521  1.00  0.00     0.040 C 
HETATM   16  C   UNL     1      -0.426   3.066  -1.956  1.00  0.00     0.142 C 
HETATM   17  S   UNL     1      -0.751   4.419  -3.062  1.00  0.00     0.144 S 
HETATM   18  O   UNL     1      -0.057   4.154  -4.309  1.00  0.00    -0.228 OA
HETATM   19  O   UNL     1      -2.177   4.681  -3.046  1.00  0.00    -0.228 OA
HETATM   20  C   UNL     1       0.061   5.793  -2.276  1.00  0.00     0.142 C 
HETATM   21  C   UNL     1      -0.258   5.891  -0.789  1.00  0.00     0.040 C 
ENDBRANCH   3  14
TORSDOF 3
