REMARK  5 active torsions:
REMARK  status: ('A' for Active; 'I' for Inactive)
REMARK    1  A    between atoms: C_2  and  C_5 
REMARK    2  A    between atoms: C_10  and  N_11 
REMARK       I    between atoms: N_11  and  C_12 
REMARK    3  A    between atoms: C_12  and  C_14 
REMARK    4  A    between atoms: C_14  and  O_15 
REMARK    5  A    between atoms: O_15  and  C_16 
ROOT
HETATM    1  C   UNL     1       2.320  -0.031   1.742  1.00  0.00     0.065 A 
HETATM    2  C   UNL     1       3.138   0.950   2.164  1.00  0.00     0.107 A 
HETATM    3  N   UNL     1       4.150   0.692   3.057  1.00  0.00    -0.331 N 
HETATM    4  C   UNL     1       4.418  -0.558   3.577  1.00  0.00     0.272 A 
HETATM    5  O   UNL     1       5.324  -0.763   4.377  1.00  0.00    -0.266 OA
HETATM    6  C   UNL     1       3.545  -1.678   3.078  1.00  0.00     0.104 A 
HETATM    7  C   UNL     1       2.541  -1.377   2.240  1.00  0.00     0.052 A 
HETATM    8  H   UNL     1       4.762   1.438   3.365  1.00  0.00     0.168 HD
ENDROOT
BRANCH   6   9
HETATM    9  N   UNL     1       3.841  -2.946   3.527  1.00  0.00    -0.321 N 
HETATM   10  C   UNL     1       3.474  -4.134   2.919  1.00  0.00     0.246 C 
HETATM   11  O   UNL     1       2.900  -4.231   1.836  1.00  0.00    -0.271 OA
HETATM   12  H   UNL     1       4.503  -2.993   4.299  1.00  0.00     0.169 HD
BRANCH  10  13
HETATM   13  C   UNL     1       3.921  -5.367   3.687  1.00  0.00     0.271 C 
BRANCH  13  14
HETATM   14  O   UNL     1       3.348  -5.316   4.986  1.00  0.00    -0.377 OA
BRANCH  14  15
HETATM   15  C   UNL     1       3.604  -6.482   5.751  1.00  0.00     0.122 C 
HETATM   16  C   UNL     1       2.805  -6.411   7.051  1.00  0.00     0.032 C 
HETATM   17  C   UNL     1       3.677  -7.064   8.121  1.00  0.00     0.002 C 
HETATM   18  C   UNL     1       4.979  -7.455   7.432  1.00  0.00     0.002 C 
HETATM   19  C   UNL     1       5.052  -6.553   6.217  1.00  0.00     0.032 C 
ENDBRANCH  14  15
ENDBRANCH  13  14
ENDBRANCH  10  13
ENDBRANCH   6   9
BRANCH   1  20
HETATM   20  C   UNL     1       1.216   0.199   0.750  1.00  0.00     0.418 C 
HETATM   21  F   UNL     1       0.494  -0.917   0.477  1.00  0.00    -0.166 F 
HETATM   22  F   UNL     1       1.702   0.650  -0.435  1.00  0.00    -0.166 F 
HETATM   23  F   UNL     1       0.334   1.133   1.192  1.00  0.00    -0.166 F 
ENDBRANCH   1  20
TORSDOF 5
