REMARK  8 active torsions:
REMARK  status: ('A' for Active; 'I' for Inactive)
REMARK    1  A    between atoms: O_2  and  C_3 
REMARK    2  A    between atoms: C_3  and  C_4 
REMARK    3  A    between atoms: C_4  and  N_5 
REMARK    4  A    between atoms: C_6  and  S_7 
REMARK    5  A    between atoms: S_7  and  C_8 
REMARK    6  A    between atoms: C_8  and  C_9 
REMARK       I    between atoms: C_9  and  N_11 
REMARK    7  A    between atoms: N_11  and  C_12 
REMARK    8  A    between atoms: C_19  and  O_20 
ROOT
HETATM    1  N   UNL     1       6.154   4.165  -0.836  1.00  0.00    -0.292 N 
HETATM    2  C   UNL     1       6.048   2.911  -0.251  1.00  0.00     0.151 A 
HETATM    3  N   UNL     1       5.010   2.490   0.401  1.00  0.00    -0.317 N 
ATOM      4  HN  UNL     1       4.971   1.547   0.787  1.00  0.00     0.170 HD
HETATM    5  C   UNL     1       3.975   3.359   0.548  1.00  0.00     0.147 A 
HETATM    6  C   UNL     1       3.949   4.597   0.066  1.00  0.00     0.130 A 
HETATM    7  C   UNL     1       5.111   5.069  -0.687  1.00  0.00     0.253 A 
HETATM    8  O   UNL     1       5.111   6.232  -1.085  1.00  0.00    -0.268 OA
ENDROOT
BRANCH   2   9
HETATM    9  S   UNL     1       7.442   1.841  -0.317  1.00  0.00    -0.084 SA
BRANCH   9  10
HETATM   10  C   UNL     1       6.658   0.194  -0.363  1.00  0.00     0.185 C 
BRANCH  10  11
HETATM   11  C   UNL     1       7.688  -0.935  -0.478  1.00  0.00     0.227 C 
HETATM   12  O   UNL     1       7.462  -2.059  -0.036  1.00  0.00    -0.273 OA
HETATM   13  N   UNL     1       8.845  -0.630  -1.171  1.00  0.00    -0.356 N 
HETATM   14  H   UNL     1       8.915   0.298  -1.560  1.00  0.00     0.162 HD
BRANCH  13  15
HETATM   15  C   UNL     1       9.919  -1.576  -1.405  1.00  0.00     0.084 C 
HETATM   16  C   UNL     1      10.593  -2.093  -0.129  1.00  0.00     0.025 C 
HETATM   17  C   UNL     1      12.064  -2.329  -0.486  1.00  0.00     0.002 C 
HETATM   18  C   UNL     1      12.226  -1.897  -1.938  1.00  0.00     0.002 C 
HETATM   19  C   UNL     1      11.073  -0.937  -2.176  1.00  0.00     0.025 C 
ENDBRANCH  13  15
ENDBRANCH  10  11
ENDBRANCH   9  10
ENDBRANCH   2   9
BRANCH   1  20
HETATM   20  C   UNL     1       7.360   4.683  -1.509  1.00  0.00     0.160 C 
BRANCH  20  21
HETATM   21  C   UNL     1       7.732   4.006  -2.835  1.00  0.00     0.187 C 
BRANCH  21  22
HETATM   22  O   UNL     1       6.654   4.060  -3.766  1.00  0.00    -0.394 OA
HETATM   23  C   UNL     1       7.002   3.415  -4.987  1.00  0.00     0.201 C 
ENDBRANCH  21  22
ENDBRANCH  20  21
ENDBRANCH   1  20
BRANCH   5  24
HETATM   24  O   UNL     1       2.919   2.908   1.293  1.00  0.00    -0.346 OA
HETATM   25  H   UNL     1       3.208   2.019   1.565  1.00  0.00     0.219 HD
ENDBRANCH   5  24
TORSDOF 8
