REMARK  7 active torsions:
REMARK  status: ('A' for Active; 'I' for Inactive)
REMARK    1  A    between atoms: C_2  and  O_3 
REMARK    2  A    between atoms: O_3  and  C_4 
REMARK    3  A    between atoms: C_4  and  C_5 
REMARK    4  A    between atoms: C_5  and  O_6 
REMARK    5  A    between atoms: C_5  and  C_7 
REMARK    6  A    between atoms: C_7  and  N_8 
REMARK    7  A    between atoms: C_12  and  C_16 
ROOT
HETATM    1  N   UNL     1       6.931   2.852  -3.107  1.00  0.00    -0.308 N 
HETATM    2  C   UNL     1       6.901   4.204  -2.880  1.00  0.00     0.186 A 
HETATM    3  N   UNL     1       7.048   5.108  -3.792  1.00  0.00    -0.355 N 
ATOM      4  HN  UNL     1       7.012   6.102  -3.568  1.00  0.00     0.166 HD
HETATM    5  C   UNL     1       7.255   4.669  -5.073  1.00  0.00     0.019 A 
HETATM    6  C   UNL     1       7.376   3.379  -5.414  1.00  0.00     0.100 A 
HETATM    7  C   UNL     1       7.192   2.362  -4.366  1.00  0.00     0.250 A 
HETATM    8  O   UNL     1       7.196   1.171  -4.670  1.00  0.00    -0.268 OA
ENDROOT
BRANCH   1   9
HETATM    9  C   UNL     1       6.487   1.947  -2.062  1.00  0.00     0.166 C 
BRANCH   9  10
HETATM   10  C   UNL     1       4.980   2.070  -1.765  1.00  0.00     0.160 C 
BRANCH  10  11
HETATM   11  C   UNL     1       4.112   1.845  -3.018  1.00  0.00     0.200 C 
BRANCH  11  12
HETATM   12  O   UNL     1       2.733   2.055  -2.685  1.00  0.00    -0.389 OA
BRANCH  12  13
HETATM   13  C   UNL     1       1.898   1.937  -3.838  1.00  0.00     0.163 C 
HETATM   14  C   UNL     1       0.464   2.220  -3.437  1.00  0.00     0.033 C 
ENDBRANCH  12  13
ENDBRANCH  11  12
ENDBRANCH  10  11
BRANCH  10  15
HETATM   15  O   UNL     1       4.668   1.127  -0.731  1.00  0.00    -0.392 OA
HETATM   16  H   UNL     1       4.043   0.476  -1.098  1.00  0.00     0.210 HD
ENDBRANCH  10  15
ENDBRANCH   9  10
ENDBRANCH   1   9
BRANCH   5  17
HETATM   17  C   UNL     1       7.242   5.682  -6.162  1.00  0.00     0.036 C 
HETATM   18  C   UNL     1       8.541   5.831  -6.998  1.00  0.00     0.011 C 
HETATM   19  C   UNL     1       8.235   7.342  -7.067  1.00  0.00     0.001 C 
HETATM   20  C   UNL     1       7.452   7.166  -5.752  1.00  0.00     0.011 C 
ENDBRANCH   5  17
TORSDOF 7
