REMARK  6 active torsions:
REMARK  status: ('A' for Active; 'I' for Inactive)
REMARK    1  A    between atoms: C_2  and  N_3 
REMARK    2  A    between atoms: C_2  and  C_10 
REMARK       I    between atoms: C_10  and  N_12 
REMARK    3  A    between atoms: N_12  and  C_13 
REMARK    4  A    between atoms: C_13  and  C_14 
REMARK    5  A    between atoms: C_14  and  O_15 
REMARK    6  A    between atoms: C_14  and  C_16 
ROOT
HETATM    1  C   UNL     1       3.105   0.114  -1.601  1.00  0.00     0.251 C 
HETATM    2  O   UNL     1       2.411   0.588  -2.501  1.00  0.00    -0.271 OA
HETATM    3  N   UNL     1       4.442  -0.172  -1.809  1.00  0.00    -0.356 N 
HETATM    4  H   UNL     1       4.850  -0.857  -1.175  1.00  0.00     0.162 HD
ENDROOT
BRANCH   3   5
HETATM    5  C   UNL     1       4.968  -0.022  -3.160  1.00  0.00     0.159 C 
BRANCH   5   6
HETATM    6  C   UNL     1       6.449  -0.406  -3.320  1.00  0.00     0.169 C 
BRANCH   6   7
HETATM    7  O   UNL     1       6.643  -1.795  -3.037  1.00  0.00    -0.389 OA
HETATM    8  H   UNL     1       5.901  -2.283  -3.431  1.00  0.00     0.210 HD
ENDBRANCH   6   7
BRANCH   6   9
HETATM    9  C   UNL     1       6.936  -0.075  -4.718  1.00  0.00    -0.025 A 
HETATM   10  C   UNL     1       7.499   1.181  -4.979  1.00  0.00     0.027 A 
HETATM   11  C   UNL     1       7.873   1.494  -6.278  1.00  0.00     0.088 A 
HETATM   12  N   UNL     1       7.727   0.656  -7.324  1.00  0.00    -0.375 N 
HETATM   13  C   UNL     1       7.186  -0.551  -7.058  1.00  0.00     0.088 A 
ATOM     14  HN  UNL     1       8.011   0.921  -8.267  1.00  0.00     0.164 HD
HETATM   15  C   UNL     1       6.780  -0.955  -5.795  1.00  0.00     0.027 A 
ENDBRANCH   6   9
ENDBRANCH   5   6
ENDBRANCH   3   5
BRANCH   1  16
HETATM   16  C   UNL     1       2.571  -0.131  -0.165  1.00  0.00     0.311 C 
HETATM   17  C   UNL     1       1.089   0.271  -0.136  1.00  0.00     0.053 C 
BRANCH  16  18
HETATM   18  N   UNL     1       2.932  -1.484   0.326  1.00  0.00     0.110 N 
HETATM   19  C   UNL     1       2.315  -2.656  -0.324  1.00  0.00     0.220 C 
HETATM   20  C   UNL     1       3.119  -3.138  -1.532  1.00  0.00     0.043 C 
HETATM   21  C   UNL     1       2.322  -3.757   0.752  1.00  0.00     0.037 C 
HETATM   22  C   UNL     1       3.158  -3.184   1.881  1.00  0.00     0.037 C 
HETATM   23  C   UNL     1       2.881  -1.688   1.788  1.00  0.00     0.220 C 
HETATM   24  C   UNL     1       1.572  -1.361   2.517  1.00  0.00     0.043 C 
ENDBRANCH  16  18
ENDBRANCH   1  16
TORSDOF 6
