REMARK  6 active torsions:
REMARK  status: ('A' for Active; 'I' for Inactive)
REMARK    1  A    between atoms: C_2  and  C_3 
REMARK    2  A    between atoms: C_3  and  N_5 
REMARK       I    between atoms: N_5  and  C_6 
REMARK    3  A    between atoms: C_6  and  C_8 
REMARK    4  A    between atoms: C_8  and  N_10 
REMARK       I    between atoms: N_10  and  C_11 
REMARK    5  A    between atoms: C_11  and  C_13 
REMARK    6  A    between atoms: C_16  and  N_20 
ROOT
HETATM    1  N   UNL     1       7.283  -0.080  -4.082  1.00  0.00    -0.344 N 
HETATM    2  C   UNL     1       8.597   0.188  -4.390  1.00  0.00     0.253 C 
HETATM    3  O   UNL     1       9.454   0.420  -3.546  1.00  0.00    -0.268 OA
HETATM    4  H   UNL     1       6.573  -0.050  -4.808  1.00  0.00     0.163 HD
ENDROOT
BRANCH   2   5
HETATM    5  C   UNL     1       8.947   0.205  -5.834  1.00  0.00     0.047 A 
HETATM    6  C   UNL     1       8.206  -0.457  -6.806  1.00  0.00     0.022 A 
HETATM    7  C   UNL     1       8.592  -0.361  -8.148  1.00  0.00     0.049 A 
HETATM    8  C   UNL     1       9.715   0.378  -8.523  1.00  0.00     0.103 A 
HETATM    9  N   UNL     1      10.450   0.996  -7.571  1.00  0.00    -0.351 N 
HETATM   10  C   UNL     1      10.067   0.895  -6.264  1.00  0.00     0.106 A 
ATOM     11  HN  UNL     1      11.280   1.531  -7.826  1.00  0.00     0.166 HD
BRANCH   8  12
HETATM   12  N   UNL     1      10.045   0.554  -9.853  1.00  0.00    -0.363 N 
HETATM   13  C   UNL     1       9.852  -0.497 -10.862  1.00  0.00     0.150 C 
HETATM   14  C   UNL     1      11.204  -1.074 -11.314  1.00  0.00     0.187 C 
HETATM   15  O   UNL     1      12.095  -0.045 -11.768  1.00  0.00    -0.388 OA
HETATM   16  C   UNL     1      12.350   0.889 -10.703  1.00  0.00     0.187 C 
HETATM   17  C   UNL     1      11.054   1.559 -10.224  1.00  0.00     0.150 C 
ENDBRANCH   8  12
ENDBRANCH   2   5
BRANCH   1  18
HETATM   18  C   UNL     1       6.757  -0.114  -2.716  1.00  0.00     0.172 C 
HETATM   19  C   UNL     1       7.318  -1.294  -1.930  1.00  0.00     0.042 C 
BRANCH  18  20
HETATM   20  C   UNL     1       5.214  -0.210  -2.822  1.00  0.00     0.240 C 
HETATM   21  N   UNL     1       4.529  -0.178  -1.623  1.00  0.00    -0.355 N 
HETATM   22  H   UNL     1       5.052  -0.195  -0.757  1.00  0.00     0.162 HD
HETATM   23  O   UNL     1       4.648  -0.284  -3.914  1.00  0.00    -0.271 OA
BRANCH  21  24
HETATM   24  C   UNL     1       3.079  -0.323  -1.547  1.00  0.00     0.080 C 
HETATM   25  C   UNL     1       2.527   0.487  -0.375  1.00  0.00     0.032 C 
BRANCH  24  26
HETATM   26  C   UNL     1       2.652  -1.802  -1.493  1.00  0.00     0.020 C 
HETATM   27  C   UNL     1       3.109  -2.561  -0.253  1.00  0.00     0.007 C 
ENDBRANCH  24  26
ENDBRANCH  21  24
ENDBRANCH  18  20
ENDBRANCH   1  18
TORSDOF 6
