REMARK  5 active torsions:
REMARK  status: ('A' for Active; 'I' for Inactive)
REMARK    1  A    between atoms: N_2  and  C_4 
REMARK    2  A    between atoms: C_4  and  C_5 
REMARK    3  A    between atoms: C_5  and  N_6 
REMARK       I    between atoms: N_6  and  C_7 
REMARK    4  A    between atoms: C_7  and  C_9 
REMARK    5  A    between atoms: C_9  and  N_10 
ROOT
HETATM    1  N   UNL     1       2.303  -1.076   2.932  1.00  0.00    -0.357 N 
HETATM    2  C   UNL     1       1.837  -1.971   3.878  1.00  0.00     0.236 C 
HETATM    3  O   UNL     1       2.303  -3.099   4.031  1.00  0.00    -0.272 OA
HETATM    4  H   UNL     1       1.725  -0.282   2.672  1.00  0.00     0.162 HD
ENDROOT
BRANCH   1   5
HETATM    5  C   UNL     1       3.411  -1.375   2.029  1.00  0.00     0.164 C 
BRANCH   5   6
HETATM    6  C   UNL     1       3.022  -1.316   0.501  1.00  0.00     0.174 C 
HETATM    7  C   UNL     1       4.277  -1.551  -0.403  1.00  0.00     0.043 C 
HETATM    8  C   UNL     1       5.255  -2.655  -0.007  1.00  0.00     0.003 C 
HETATM    9  C   UNL     1       4.836  -4.106  -0.214  1.00  0.00     0.000 C 
HETATM   10  C   UNL     1       3.380  -4.403  -0.539  1.00  0.00     0.000 C 
HETATM   11  C   UNL     1       2.375  -3.885   0.481  1.00  0.00     0.003 C 
HETATM   12  C   UNL     1       1.959  -2.433   0.238  1.00  0.00     0.043 C 
BRANCH   6  13
HETATM   13  N   UNL     1       2.381   0.032   0.192  1.00  0.00     0.091 N 
HETATM   14  C   UNL     1       3.237   1.200   0.449  1.00  0.00     0.310 C 
HETATM   15  C   UNL     1       1.848   0.158  -1.173  1.00  0.00     0.310 C 
ENDBRANCH   6  13
ENDBRANCH   5   6
ENDBRANCH   1   5
BRANCH   2  16
HETATM   16  C   UNL     1       0.723  -1.428   4.778  1.00  0.00     0.235 C 
BRANCH  16  17
HETATM   17  N   UNL     1      -0.490  -2.246   4.762  1.00  0.00    -0.301 N 
HETATM   18  C   UNL     1      -0.663  -3.236   5.702  1.00  0.00     0.102 C 
HETATM   19  C   UNL     1      -1.806  -3.914   5.798  1.00  0.00     0.092 C 
HETATM   20  C   UNL     1      -2.915  -3.594   4.884  1.00  0.00     0.252 C 
HETATM   21  O   UNL     1      -4.009  -4.116   5.079  1.00  0.00    -0.268 OA
HETATM   22  N   UNL     1      -2.621  -2.709   3.864  1.00  0.00    -0.271 N 
HETATM   23  C   UNL     1      -3.642  -2.426   2.875  1.00  0.00     0.164 C 
HETATM   24  C   UNL     1      -1.444  -1.968   3.788  1.00  0.00     0.331 C 
HETATM   25  O   UNL     1      -1.263  -1.096   2.933  1.00  0.00    -0.246 OA
ENDBRANCH  16  17
ENDBRANCH   2  16
TORSDOF 5
