REMARK  3 active torsions:
REMARK  status: ('A' for Active; 'I' for Inactive)
REMARK    1  A    between atoms: C_2  and  C_3 
REMARK       I    between atoms: C_2  and  N_13 
REMARK    2  A    between atoms: C_3  and  N_4 
REMARK    3  A    between atoms: N_13  and  C_14 
ROOT
HETATM    1  N   UNL     1      -0.158  -0.723   0.865  1.00  0.00    -0.277 N 
HETATM    2  C   UNL     1       0.272  -1.976   1.180  1.00  0.00     0.203 A 
HETATM    3  N   UNL     1      -0.646  -2.857   0.849  1.00  0.00    -0.327 N 
ATOM      4  HN  UNL     1      -0.617  -3.871   0.952  1.00  0.00     0.169 HD
HETATM    5  C   UNL     1      -1.652  -2.081   0.332  1.00  0.00     0.204 A 
HETATM    6  C   UNL     1      -2.855  -2.633  -0.233  1.00  0.00     0.138 C 
HETATM    7  N   UNL     1      -3.827  -3.077  -0.705  1.00  0.00    -0.188 NA
HETATM    8  N   UNL     1      -1.396  -0.765   0.318  1.00  0.00    -0.273 N 
ATOM      9  HN  UNL     1      -1.980   0.002  -0.016  1.00  0.00     0.189 HD
ENDROOT
BRANCH   1  10
HETATM   10  C   UNL     1       0.556   0.540   0.863  1.00  0.00     0.252 C 
BRANCH  10  11
HETATM   11  C   UNL     1       1.933   0.505   1.491  1.00  0.00     0.237 C 
HETATM   12  O   UNL     1       2.098   0.304   2.689  1.00  0.00    -0.272 OA
HETATM   13  N   UNL     1       2.969   0.723   0.599  1.00  0.00    -0.355 N 
HETATM   14  H   UNL     1       2.722   1.024  -0.336  1.00  0.00     0.162 HD
BRANCH  13  15
HETATM   15  C   UNL     1       4.369   0.942   0.983  1.00  0.00     0.084 C 
HETATM   16  C   UNL     1       5.220   1.163  -0.277  1.00  0.00     0.025 C 
HETATM   17  C   UNL     1       5.273  -0.089  -1.156  1.00  0.00     0.002 C 
HETATM   18  C   UNL     1       5.645  -1.365  -0.400  1.00  0.00     0.000 C 
HETATM   19  C   UNL     1       5.022  -1.507   0.989  1.00  0.00     0.002 C 
HETATM   20  C   UNL     1       5.003  -0.204   1.780  1.00  0.00     0.025 C 
ENDBRANCH  13  15
ENDBRANCH  10  11
ENDBRANCH   1  10
TORSDOF 3
