REMARK  5 active torsions:
REMARK  status: ('A' for Active; 'I' for Inactive)
REMARK    1  A    between atoms: N_4  and  C_5 
REMARK    2  A    between atoms: C_5  and  C_6 
REMARK    3  A    between atoms: C_6  and  N_7 
REMARK       I    between atoms: N_7  and  C_8 
REMARK    4  A    between atoms: C_8  and  C_10 
REMARK    5  A    between atoms: C_10  and  N_11 
ROOT
HETATM    1  N   UNL     1       3.012   4.064  -4.148  1.00  0.00    -0.358 N 
HETATM    2  C   UNL     1       2.653   3.969  -5.475  1.00  0.00     0.237 C 
HETATM    3  O   UNL     1       1.945   3.064  -5.915  1.00  0.00    -0.272 OA
HETATM    4  H   UNL     1       3.656   4.810  -3.882  1.00  0.00     0.162 HD
ENDROOT
BRANCH   1   5
HETATM    5  C   UNL     1       2.560   3.125  -3.138  1.00  0.00     0.152 C 
BRANCH   5   6
HETATM    6  C   UNL     1       3.132   1.701  -3.305  1.00  0.00     0.292 C 
BRANCH   6   7
HETATM    7  N   UNL     1       2.623   0.732  -2.315  1.00  0.00     0.095 N 
HETATM    8  C   UNL     1       3.032   1.056  -0.934  1.00  0.00     0.303 C 
HETATM    9  C   UNL     1       2.517   0.011   0.080  1.00  0.00     0.146 C 
HETATM   10  C   UNL     1       0.999   0.062   0.263  1.00  0.00     0.041 C 
HETATM   11  O   UNL     1       2.961  -1.310  -0.268  1.00  0.00    -0.378 OA
HETATM   12  C   UNL     1       2.608  -1.674  -1.613  1.00  0.00     0.146 C 
HETATM   13  C   UNL     1       3.117  -0.630  -2.632  1.00  0.00     0.303 C 
HETATM   14  C   UNL     1       3.220  -3.044  -1.884  1.00  0.00     0.041 C 
ENDBRANCH   6   7
ENDBRANCH   5   6
ENDBRANCH   1   5
BRANCH   2  15
HETATM   15  C   UNL     1       3.114   5.111  -6.353  1.00  0.00     0.251 C 
BRANCH  15  16
HETATM   16  N   UNL     1       4.555   5.268  -6.324  1.00  0.00    -0.288 N 
HETATM   17  N   UNL     1       5.110   5.969  -5.308  1.00  0.00    -0.303 N 
HETATM   18  C   UNL     1       6.418   5.970  -5.588  1.00  0.00     0.024 A 
ATOM     19  HN  UNL     1       4.639   6.398  -4.512  1.00  0.00     0.186 HD
HETATM   20  C   UNL     1       7.386   6.665  -4.706  1.00  0.00     0.070 C 
HETATM   21  C   UNL     1       6.697   5.253  -6.771  1.00  0.00     0.052 A 
HETATM   22  C   UNL     1       5.476   4.808  -7.231  1.00  0.00     0.027 A 
HETATM   23  C   UNL     1       5.130   4.006  -8.429  1.00  0.00     0.070 C 
ENDBRANCH  15  16
ENDBRANCH   2  15
TORSDOF 5
