REMARK  2 active torsions:
REMARK  status: ('A' for Active; 'I' for Inactive)
REMARK       I    between atoms: N_2  and  C_3 
REMARK    1  A    between atoms: C_3  and  C_5 
REMARK    2  A    between atoms: C_11  and  N_12 
ROOT
HETATM    1  C   UNL     1       4.502  -0.543  -1.079  1.00  0.00     0.075 A 
HETATM    2  C   UNL     1       5.254   0.380  -0.322  1.00  0.00     0.022 A 
HETATM    3  C   UNL     1       6.629   0.238  -0.220  1.00  0.00     0.018 A 
HETATM    4  C   UNL     1       7.209  -0.808  -0.901  1.00  0.00     0.089 A 
HETATM    5  N   UNL     1       6.511  -1.702  -1.636  1.00  0.00    -0.352 N 
ATOM      6  HN  UNL     1       7.000  -2.455  -2.120  1.00  0.00     0.166 HD
HETATM    7  C   UNL     1       5.155  -1.601  -1.732  1.00  0.00     0.119 A 
ENDROOT
BRANCH   7   8
HETATM    8  N   UNL     1       4.560  -2.628  -2.420  1.00  0.00    -0.362 N 
HETATM    9  C   UNL     1       3.213  -3.144  -2.182  1.00  0.00     0.150 C 
HETATM   10  C   UNL     1       3.247  -4.683  -2.188  1.00  0.00     0.187 C 
HETATM   11  O   UNL     1       3.821  -5.204  -3.397  1.00  0.00    -0.388 OA
HETATM   12  C   UNL     1       5.170  -4.728  -3.549  1.00  0.00     0.187 C 
HETATM   13  C   UNL     1       5.228  -3.193  -3.600  1.00  0.00     0.150 C 
ENDBRANCH   7   8
BRANCH   1  14
HETATM   14  C   UNL     1       3.049  -0.257  -1.218  1.00  0.00     0.255 C 
HETATM   15  N   UNL     1       2.392   0.079  -0.046  1.00  0.00    -0.361 N 
HETATM   16  C   UNL     1       0.964   0.275  -0.032  1.00  0.00     0.149 C 
HETATM   17  H   UNL     1       2.871  -0.022   0.839  1.00  0.00     0.162 HD
HETATM   18  O   UNL     1       2.484  -0.311  -2.303  1.00  0.00    -0.268 OA
ENDBRANCH   1  14
TORSDOF 2
