REMARK  3 active torsions:
REMARK  status: ('A' for Active; 'I' for Inactive)
REMARK    1  A    between atoms: C_5  and  O_6 
REMARK    2  A    between atoms: C_5  and  C_7 
REMARK    3  A    between atoms: C_7  and  N_8 
ROOT
HETATM    1  N   UNL     1       5.138   0.233  -3.745  1.00  0.00    -0.307 N 
HETATM    2  C   UNL     1       5.338  -0.114  -5.054  1.00  0.00     0.186 C 
HETATM    3  N   UNL     1       5.645   0.714  -5.995  1.00  0.00    -0.355 N 
ATOM      4  HN  UNL     1       5.842   0.390  -6.942  1.00  0.00     0.166 HD
HETATM    5  C   UNL     1       5.696   2.049  -5.674  1.00  0.00     0.017 C 
HETATM    6  C   UNL     1       5.876   2.973  -6.847  1.00  0.00     0.069 C 
HETATM    7  C   UNL     1       5.562   2.517  -4.420  1.00  0.00     0.028 C 
HETATM    8  C   UNL     1       5.476   3.947  -3.989  1.00  0.00     0.056 C 
HETATM    9  C   UNL     1       5.432   1.516  -3.335  1.00  0.00     0.256 C 
HETATM   10  O   UNL     1       5.543   1.853  -2.161  1.00  0.00    -0.267 OA
ENDROOT
BRANCH   1  11
HETATM   11  C   UNL     1       4.653  -0.749  -2.772  1.00  0.00     0.170 C 
BRANCH  11  12
HETATM   12  C   UNL     1       3.096  -0.790  -2.690  1.00  0.00     0.074 C 
HETATM   13  C   UNL     1       2.445   0.553  -2.307  1.00  0.00     0.040 C 
HETATM   14  C   UNL     1       2.709   0.949  -0.855  1.00  0.00     0.007 C 
HETATM   15  C   UNL     1       2.273  -0.128   0.144  1.00  0.00    -0.019 C 
HETATM   16  C   UNL     1       0.750  -0.163   0.287  1.00  0.00     0.010 C 
HETATM   17  C   UNL     1       2.850  -1.500  -0.234  1.00  0.00     0.007 C 
HETATM   18  C   UNL     1       2.623  -1.873  -1.700  1.00  0.00     0.040 C 
BRANCH  12  19
HETATM   19  O   UNL     1       2.597  -1.180  -3.982  1.00  0.00    -0.388 OA
HETATM   20  H   UNL     1       2.671  -0.411  -4.576  1.00  0.00     0.210 HD
ENDBRANCH  12  19
ENDBRANCH  11  12
ENDBRANCH   1  11
TORSDOF 3
