REMARK  6 active torsions:
REMARK  status: ('A' for Active; 'I' for Inactive)
REMARK    1  A    between atoms: N_2  and  C_3 
REMARK    2  A    between atoms: N_2  and  C_16 
REMARK    3  A    between atoms: C_3  and  C_4 
REMARK    4  A    between atoms: C_4  and  N_5 
REMARK       I    between atoms: N_5  and  C_6 
REMARK    5  A    between atoms: C_6  and  C_8 
REMARK    6  A    between atoms: C_8  and  N_9 
ROOT
HETATM    1  N   UNL     1       3.017   3.713   0.084  1.00  0.00    -0.358 N 
HETATM    2  C   UNL     1       4.263   4.114  -0.362  1.00  0.00     0.237 C 
HETATM    3  O   UNL     1       4.932   3.437  -1.140  1.00  0.00    -0.272 OA
HETATM    4  H   UNL     1       2.554   4.235   0.818  1.00  0.00     0.162 HD
ENDROOT
BRANCH   2   5
HETATM    5  C   UNL     1       4.709   5.472   0.131  1.00  0.00     0.250 C 
BRANCH   5   6
HETATM    6  N   UNL     1       5.963   5.414   0.854  1.00  0.00    -0.294 N 
HETATM    7  C   UNL     1       7.188   5.054   0.365  1.00  0.00     0.118 A 
HETATM    8  C   UNL     1       8.088   5.221   1.396  1.00  0.00    -0.028 A 
HETATM    9  C   UNL     1       9.540   4.936   1.396  1.00  0.00     0.051 C 
HETATM   10  C   UNL     1       7.303   5.726   2.454  1.00  0.00     0.115 A 
HETATM   11  N   UNL     1       6.014   5.852   2.129  1.00  0.00    -0.309 N 
ATOM     12  HN  UNL     1       5.249   6.198   2.708  1.00  0.00     0.186 HD
ENDBRANCH   5   6
ENDBRANCH   2   5
BRANCH   1  13
HETATM   13  C   UNL     1       2.428   2.449  -0.337  1.00  0.00     0.152 C 
BRANCH  13  14
HETATM   14  C   UNL     1       2.885   1.256   0.524  1.00  0.00     0.292 C 
BRANCH  14  15
HETATM   15  N   UNL     1       2.435  -0.062   0.032  1.00  0.00     0.090 N 
HETATM   16  C   UNL     1       0.975  -0.167  -0.017  1.00  0.00     0.310 C 
BRANCH  15  17
HETATM   17  C   UNL     1       3.015  -1.172   0.820  1.00  0.00     0.222 A 
HETATM   18  C   UNL     1       4.504  -1.387   0.865  1.00  0.00     0.038 A 
HETATM   19  C   UNL     1       3.640  -2.328   0.083  1.00  0.00     0.038 A 
ENDBRANCH  15  17
ENDBRANCH  14  15
ENDBRANCH  13  14
ENDBRANCH   1  13
TORSDOF 6
