REMARK  7 active torsions:
REMARK  status: ('A' for Active; 'I' for Inactive)
REMARK    1  A    between atoms: C_2  and  C_3 
REMARK    2  A    between atoms: C_3  and  C_4 
REMARK    3  A    between atoms: C_4  and  O_5 
REMARK    4  A    between atoms: O_5  and  C_6 
REMARK    5  A    between atoms: C_6  and  C_8 
REMARK       I    between atoms: C_8  and  N_10 
REMARK    6  A    between atoms: N_10  and  C_11 
REMARK    7  A    between atoms: C_13  and  C_18 
ROOT
HETATM    1  C   UNL     1       6.073   3.182   5.680  1.00  0.00     0.104 A 
HETATM    2  C   UNL     1       7.257   3.425   6.269  1.00  0.00     0.052 A 
HETATM    3  C   UNL     1       7.377   4.182   7.504  1.00  0.00     0.065 A 
HETATM    4  C   UNL     1       6.259   4.678   8.061  1.00  0.00     0.107 A 
HETATM    5  N   UNL     1       5.029   4.429   7.510  1.00  0.00    -0.331 N 
HETATM    6  C   UNL     1       4.827   3.671   6.379  1.00  0.00     0.272 A 
HETATM    7  O   UNL     1       3.707   3.424   5.935  1.00  0.00    -0.266 OA
HETATM    8  H   UNL     1       4.188   4.793   7.946  1.00  0.00     0.168 HD
ENDROOT
BRANCH   1   9
HETATM    9  N   UNL     1       5.904   2.538   4.470  1.00  0.00    -0.320 N 
HETATM   10  C   UNL     1       6.864   2.396   3.487  1.00  0.00     0.251 C 
HETATM   11  O   UNL     1       8.018   2.814   3.572  1.00  0.00    -0.270 OA
HETATM   12  H   UNL     1       4.941   2.355   4.184  1.00  0.00     0.169 HD
BRANCH  10  13
HETATM   13  C   UNL     1       6.380   1.634   2.237  1.00  0.00     0.209 C 
HETATM   14  C   UNL     1       7.058   2.238   1.006  1.00  0.00     0.050 C 
BRANCH  13  15
HETATM   15  O   UNL     1       4.952   1.664   2.134  1.00  0.00    -0.377 OA
BRANCH  15  16
HETATM   16  C   UNL     1       4.453   0.846   1.074  1.00  0.00     0.168 C 
BRANCH  16  17
HETATM   17  C   UNL     1       2.930   0.855   1.110  1.00  0.00     0.026 C 
BRANCH  17  18
HETATM   18  C   UNL     1       2.352   0.082  -0.074  1.00  0.00    -0.002 C 
HETATM   19  C   UNL     1       0.833   0.106  -0.074  1.00  0.00     0.005 C 
ENDBRANCH  17  18
ENDBRANCH  16  17
ENDBRANCH  15  16
ENDBRANCH  13  15
ENDBRANCH  10  13
ENDBRANCH   1   9
BRANCH   3  20
HETATM   20  C   UNL     1       8.740   4.393   8.100  1.00  0.00     0.418 C 
HETATM   21  F   UNL     1       9.728   3.734   7.443  1.00  0.00    -0.166 F 
HETATM   22  F   UNL     1       9.082   5.707   8.113  1.00  0.00    -0.166 F 
HETATM   23  F   UNL     1       8.785   3.967   9.390  1.00  0.00    -0.166 F 
ENDBRANCH   3  20
TORSDOF 7
