REMARK  4 active torsions:
REMARK  status: ('A' for Active; 'I' for Inactive)
REMARK    1  A    between atoms: N_5  and  C_6 
REMARK    2  A    between atoms: C_6  and  C_7 
REMARK    3  A    between atoms: C_7  and  N_8 
REMARK       I    between atoms: N_8  and  C_9 
REMARK       I    between atoms: C_9  and  N_11 
REMARK    4  A    between atoms: N_11  and  C_12 
ROOT
HETATM    1  N   UNL     1       6.658   0.089  -3.896  1.00  0.00    -0.341 N 
HETATM    2  C   UNL     1       7.226  -1.077  -4.298  1.00  0.00     0.321 C 
HETATM    3  O   UNL     1       6.631  -2.066  -4.685  1.00  0.00    -0.247 OA
HETATM    4  N   UNL     1       8.636  -1.048  -4.125  1.00  0.00    -0.293 N 
HETATM    5  H   UNL     1       7.196   0.931  -3.770  1.00  0.00     0.164 HD
HETATM    6  H   UNL     1       9.068  -0.235  -3.719  1.00  0.00     0.172 HD
ENDROOT
BRANCH   1   7
HETATM    7  C   UNL     1       5.206   0.173  -3.850  1.00  0.00     0.154 C 
BRANCH   7   8
HETATM    8  C   UNL     1       4.598  -0.772  -2.783  1.00  0.00     0.292 C 
BRANCH   8   9
HETATM    9  N   UNL     1       3.128  -0.773  -2.737  1.00  0.00     0.090 N 
HETATM   10  C   UNL     1       2.538   0.527  -2.397  1.00  0.00     0.273 C 
HETATM   11  C   UNL     1       2.808   0.952  -0.951  1.00  0.00     0.034 C 
HETATM   12  C   UNL     1       2.337  -0.106   0.057  1.00  0.00    -0.015 C 
HETATM   13  C   UNL     1       0.812  -0.103   0.187  1.00  0.00     0.010 C 
HETATM   14  C   UNL     1       2.861  -1.495  -0.337  1.00  0.00     0.034 C 
HETATM   15  C   UNL     1       2.627  -1.815  -1.819  1.00  0.00     0.273 C 
ENDBRANCH   8   9
ENDBRANCH   7   8
ENDBRANCH   1   7
BRANCH   4  16
HETATM   16  C   UNL     1       9.410  -2.180  -4.350  1.00  0.00     0.127 A 
HETATM   17  C   UNL     1       9.049  -3.328  -5.024  1.00  0.00     0.076 A 
HETATM   18  C   UNL     1      10.125  -4.218  -4.874  1.00  0.00     0.025 A 
HETATM   19  C   UNL     1      10.182  -5.631  -5.328  1.00  0.00     0.070 C 
HETATM   20  N   UNL     1      11.143  -3.656  -4.214  1.00  0.00    -0.302 N 
HETATM   21  N   UNL     1      10.694  -2.418  -3.918  1.00  0.00    -0.281 N 
ATOM     22  HN  UNL     1      12.048  -4.067  -3.987  1.00  0.00     0.186 HD
HETATM   23  C   UNL     1      11.511  -1.551  -3.106  1.00  0.00     0.179 C 
ENDBRANCH   4  16
TORSDOF 4
