REMARK  4 active torsions:
REMARK  status: ('A' for Active; 'I' for Inactive)
REMARK    1  A    between atoms: C_2  and  S_3 
REMARK    2  A    between atoms: S_3  and  C_4 
REMARK    3  A    between atoms: C_8  and  N_9 
REMARK       I    between atoms: N_9  and  C_10 
REMARK       I    between atoms: C_10  and  N_12 
REMARK    4  A    between atoms: N_12  and  C_13 
ROOT
HETATM    1  N   UNL     1       4.414   0.266   0.983  1.00  0.00    -0.337 N 
HETATM    2  C   UNL     1       3.943   1.505   1.361  1.00  0.00     0.321 C 
HETATM    3  O   UNL     1       4.298   2.552   0.836  1.00  0.00    -0.247 OA
HETATM    4  N   UNL     1       2.960   1.375   2.319  1.00  0.00    -0.306 N 
HETATM    5  H   UNL     1       4.373  -0.473   1.671  1.00  0.00     0.164 HD
HETATM    6  H   UNL     1       2.441   0.506   2.236  1.00  0.00     0.171 HD
ENDROOT
BRANCH   1   7
HETATM    7  C   UNL     1       5.222   0.069  -0.213  1.00  0.00     0.100 C 
HETATM    8  C   UNL     1       4.762  -1.122  -1.080  1.00  0.00     0.070 C 
HETATM    9  C   UNL     1       5.397  -2.348  -0.415  1.00  0.00     0.017 C 
HETATM   10  C   UNL     1       6.639  -1.838   0.315  1.00  0.00     0.003 C 
HETATM   11  C   UNL     1       6.658  -0.322   0.140  1.00  0.00     0.026 C 
BRANCH   8  12
HETATM   12  S   UNL     1       2.960  -1.382  -1.267  1.00  0.00    -0.163 SA
BRANCH  12  13
HETATM   13  C   UNL     1       2.534   0.093  -2.243  1.00  0.00     0.070 C 
HETATM   14  C   UNL     1       1.117  -0.042  -2.776  1.00  0.00     0.016 C 
ENDBRANCH  12  13
ENDBRANCH   8  12
ENDBRANCH   1   7
BRANCH   4  15
HETATM   15  C   UNL     1       2.227   2.463   2.840  1.00  0.00     0.077 A 
HETATM   16  C   UNL     1       2.808   3.686   3.160  1.00  0.00     0.050 A 
HETATM   17  C   UNL     1       1.989   4.677   3.687  1.00  0.00     0.090 A 
HETATM   18  N   UNL     1       0.658   4.542   3.887  1.00  0.00    -0.372 N 
HETATM   19  C   UNL     1       0.122   3.342   3.555  1.00  0.00     0.132 A 
ATOM     20  HN  UNL     1       0.090   5.300   4.266  1.00  0.00     0.164 HD
HETATM   21  C   UNL     1       0.860   2.288   3.062  1.00  0.00     0.158 A 
HETATM   22  F   UNL     1       0.266   1.125   2.755  1.00  0.00    -0.202 F 
ENDBRANCH   4  15
TORSDOF 4
