REMARK  5 active torsions:
REMARK  status: ('A' for Active; 'I' for Inactive)
REMARK    1  A    between atoms: C_2  and  C_4 
REMARK    2  A    between atoms: C_4  and  N_5 
REMARK    3  A    between atoms: C_9  and  C_10 
REMARK    4  A    between atoms: C_10  and  N_11 
REMARK       I    between atoms: N_11  and  C_12 
REMARK       I    between atoms: C_12  and  N_14 
REMARK    5  A    between atoms: N_14  and  C_15 
ROOT
HETATM    1  N   UNL     1       6.581  -3.540  -3.517  1.00  0.00    -0.340 N 
HETATM    2  C   UNL     1       7.135  -4.416  -2.617  1.00  0.00     0.322 C 
HETATM    3  O   UNL     1       6.435  -5.159  -1.944  1.00  0.00    -0.247 OA
HETATM    4  N   UNL     1       8.501  -4.347  -2.593  1.00  0.00    -0.288 N 
HETATM    5  H   UNL     1       7.145  -2.843  -3.982  1.00  0.00     0.164 HD
HETATM    6  H   UNL     1       8.953  -3.512  -2.929  1.00  0.00     0.172 HD
ENDROOT
BRANCH   1   7
HETATM    7  C   UNL     1       5.140  -3.424  -3.666  1.00  0.00     0.158 C 
BRANCH   7   8
HETATM    8  C   UNL     1       4.620  -2.045  -3.254  1.00  0.00     0.167 C 
HETATM    9  O   UNL     1       5.169  -1.058  -4.153  1.00  0.00    -0.381 OA
HETATM   10  C   UNL     1       4.661   0.247  -3.834  1.00  0.00     0.198 C 
HETATM   11  C   UNL     1       4.940   0.630  -2.368  1.00  0.00     0.298 C 
HETATM   12  N   UNL     1       4.471  -0.368  -1.380  1.00  0.00     0.093 N 
HETATM   13  C   UNL     1       4.992  -1.690  -1.798  1.00  0.00     0.305 C 
BRANCH  12  14
HETATM   14  C   UNL     1       3.005  -0.340  -1.224  1.00  0.00     0.276 C 
BRANCH  14  15
HETATM   15  C   UNL     1       2.471  -1.310  -0.145  1.00  0.00     0.006 C 
HETATM   16  C   UNL     1       3.049  -0.989   1.234  1.00  0.00     0.011 C 
HETATM   17  C   UNL     1       0.943  -1.277  -0.105  1.00  0.00     0.011 C 
ENDBRANCH  14  15
ENDBRANCH  12  14
ENDBRANCH   7   8
ENDBRANCH   1   7
BRANCH   4  18
HETATM   18  C   UNL     1       9.314  -5.180  -1.860  1.00  0.00     0.168 A 
HETATM   19  N   UNL     1      10.578  -4.909  -1.617  1.00  0.00    -0.279 N 
HETATM   20  N   UNL     1      11.185  -5.896  -0.859  1.00  0.00    -0.303 N 
ATOM     21  HN  UNL     1      11.055  -4.070  -1.948  1.00  0.00     0.189 HD
HETATM   22  C   UNL     1      10.357  -6.887  -0.607  1.00  0.00     0.160 A 
ATOM     23  HN  UNL     1      12.152  -5.859  -0.537  1.00  0.00     0.186 HD
HETATM   24  S   UNL     1       8.798  -6.701  -1.280  1.00  0.00    -0.046 SA
ENDBRANCH   4  18
TORSDOF 5
