REMARK  8 active torsions:
REMARK  status: ('A' for Active; 'I' for Inactive)
REMARK    1  A    between atoms: N_2  and  C_15 
REMARK    2  A    between atoms: C_4  and  N_8 
REMARK    3  A    between atoms: N_8  and  C_9 
REMARK    4  A    between atoms: C_14  and  C_15 
REMARK    5  A    between atoms: C_14  and  C_23 
REMARK    6  A    between atoms: C_20  and  O_25 
REMARK    7  A    between atoms: C_23  and  O_26 
REMARK    8  A    between atoms: O_25  and  C_27 
ROOT
HETATM    1  C   UNL     1       0.342  -0.801  -0.110  1.00  0.00     0.122 A 
HETATM    2  N   UNL     1       1.453   1.083  -0.090  1.00  0.00    -0.326 N 
HETATM    3  C   UNL     1       0.184   0.575  -0.065  1.00  0.00     0.140 A 
HETATM    4  C   UNL     1      -0.834  -1.589  -0.026  1.00  0.00     0.135 A 
HETATM    5  N   UNL     1       1.689  -1.117  -0.199  1.00  0.00    -0.346 N 
ATOM      6  HN  UNL     1       2.105  -2.048  -0.231  1.00  0.00     0.167 HD
HETATM    7  C   UNL     1       2.316   0.036  -0.234  1.00  0.00     0.185 A 
HETATM    8  N   UNL     1      -2.016  -0.899   0.077  1.00  0.00    -0.337 N 
ATOM      9  HN  UNL     1      -2.897  -1.408   0.155  1.00  0.00     0.168 HD
HETATM   10  N   UNL     1      -0.959   1.273   0.020  1.00  0.00    -0.336 N 
ATOM     11  HN  UNL     1      -1.017   2.291   0.039  1.00  0.00     0.168 HD
HETATM   12  C   UNL     1      -2.016   0.447   0.076  1.00  0.00     0.183 A 
ENDROOT
BRANCH   4  13
HETATM   13  N   UNL     1      -0.899  -3.001  -0.010  1.00  0.00    -0.365 N 
HETATM   14  C   UNL     1       0.329  -3.725  -0.314  1.00  0.00     0.151 C 
BRANCH  13  15
HETATM   15  C   UNL     1      -1.954  -3.649   0.738  1.00  0.00     0.090 C 
HETATM   16  C   UNL     1      -1.895  -5.185   0.892  1.00  0.00     0.057 C 
HETATM   17  C   UNL     1      -3.420  -5.199   0.638  1.00  0.00     0.125 C 
HETATM   18  C   UNL     1      -3.231  -3.856  -0.105  1.00  0.00     0.057 C 
BRANCH  17  19
HETATM   19  O   UNL     1      -4.243  -5.173   1.827  1.00  0.00    -0.386 OA
BRANCH  19  20
HETATM   20  C   UNL     1      -5.649  -5.152   1.598  1.00  0.00     0.163 C 
HETATM   21  C   UNL     1      -6.356  -5.051   2.933  1.00  0.00     0.033 C 
ENDBRANCH  19  20
ENDBRANCH  17  19
ENDBRANCH  13  15
ENDBRANCH   4  13
BRANCH   2  22
HETATM   22  C   UNL     1       1.812   2.484   0.038  1.00  0.00     0.147 C 
BRANCH  22  23
HETATM   23  C   UNL     1       2.084   2.909   1.477  1.00  0.00     0.040 C 
HETATM   24  C   UNL     1       0.888   2.913   2.453  1.00  0.00     0.183 C 
HETATM   25  O   UNL     1       1.166   4.287   2.826  1.00  0.00    -0.389 OA
HETATM   26  C   UNL     1       2.018   4.437   1.662  1.00  0.00     0.183 C 
BRANCH  23  27
HETATM   27  C   UNL     1       3.325   2.283   2.106  1.00  0.00     0.179 C 
BRANCH  27  28
HETATM   28  O   UNL     1       4.460   2.577   1.298  1.00  0.00    -0.400 OA
HETATM   29  H   UNL     1       4.679   1.788   0.776  1.00  0.00     0.209 HD
ENDBRANCH  27  28
ENDBRANCH  23  27
ENDBRANCH  22  23
ENDBRANCH   2  22
TORSDOF 8
