REMARK  3 active torsions:
REMARK  status: ('A' for Active; 'I' for Inactive)
REMARK    1  A    between atoms: C_2  and  C_3 
REMARK       I    between atoms: C_2  and  N_10 
REMARK    2  A    between atoms: C_3  and  N_4 
REMARK    3  A    between atoms: N_10  and  C_11 
ROOT
HETATM    1  O   UNL     1       2.516   0.143  -1.039  1.00  0.00    -0.272 OA
HETATM    2  C   UNL     1       2.189   0.368   0.123  1.00  0.00     0.237 C 
HETATM    3  N   UNL     1       3.076   0.761   1.109  1.00  0.00    -0.353 N 
HETATM    4  H   UNL     1       2.655   1.194   1.929  1.00  0.00     0.163 HD
ENDROOT
BRANCH   3   5
HETATM    5  C   UNL     1       4.480   1.082   0.872  1.00  0.00     0.119 C 
HETATM    6  C   UNL     1       5.322  -0.052   0.259  1.00  0.00     0.057 C 
HETATM    7  C   UNL     1       5.962   0.551  -0.993  1.00  0.00     0.275 C 
HETATM    8  N   UNL     1       6.029   1.970  -0.653  1.00  0.00     0.095 N 
HETATM    9  C   UNL     1       6.319   2.862  -1.769  1.00  0.00     0.273 C 
HETATM   10  C   UNL     1       4.706   2.264  -0.080  1.00  0.00     0.245 C 
HETATM   11  C   UNL     1       6.361   4.308  -1.250  1.00  0.00     0.030 C 
HETATM   12  C   UNL     1       5.097   4.691  -0.468  1.00  0.00     0.004 C 
HETATM   13  C   UNL     1       4.746   3.635   0.584  1.00  0.00     0.038 C 
ENDBRANCH   3   5
BRANCH   2  14
HETATM   14  C   UNL     1       0.764   0.203   0.601  1.00  0.00     0.250 C 
BRANCH  14  15
HETATM   15  N   UNL     1       0.039   1.457   0.547  1.00  0.00    -0.295 N 
HETATM   16  C   UNL     1      -0.875   1.838  -0.394  1.00  0.00     0.112 A 
HETATM   17  C   UNL     1      -1.363   3.056   0.018  1.00  0.00     0.037 A 
HETATM   18  C   UNL     1      -0.691   3.319   1.226  1.00  0.00     0.108 A 
HETATM   19  N   UNL     1       0.165   2.346   1.557  1.00  0.00    -0.310 N 
ATOM     20  HN  UNL     1       0.769   2.289   2.377  1.00  0.00     0.186 HD
ENDBRANCH  14  15
ENDBRANCH   2  14
TORSDOF 3
