REMARK  4 active torsions:
REMARK  status: ('A' for Active; 'I' for Inactive)
REMARK    1  A    between atoms: C_2  and  S_3 
REMARK    2  A    between atoms: S_3  and  C_4 
REMARK    3  A    between atoms: C_8  and  N_10 
REMARK       I    between atoms: N_10  and  C_11 
REMARK       I    between atoms: C_11  and  N_13 
REMARK    4  A    between atoms: N_13  and  C_14 
ROOT
HETATM    1  N   UNL     1       5.740  -4.309  -3.302  1.00  0.00    -0.338 N 
HETATM    2  C   UNL     1       7.098  -4.496  -3.285  1.00  0.00     0.321 C 
HETATM    3  O   UNL     1       7.864  -3.648  -2.835  1.00  0.00    -0.247 OA
HETATM    4  N   UNL     1       7.504  -5.701  -3.795  1.00  0.00    -0.304 N 
HETATM    5  H   UNL     1       5.186  -4.913  -3.891  1.00  0.00     0.164 HD
HETATM    6  H   UNL     1       6.889  -6.184  -4.440  1.00  0.00     0.171 HD
ENDROOT
BRANCH   1   7
HETATM    7  C   UNL     1       5.148  -3.036  -2.885  1.00  0.00     0.087 C 
HETATM    8  C   UNL     1       5.551  -1.895  -3.832  1.00  0.00     0.025 C 
HETATM    9  C   UNL     1       4.994  -0.543  -3.396  1.00  0.00     0.003 C 
HETATM   10  C   UNL     1       5.299  -0.241  -1.926  1.00  0.00     0.015 C 
HETATM   11  C   UNL     1       4.859  -1.361  -0.967  1.00  0.00     0.049 C 
HETATM   12  C   UNL     1       5.473  -2.689  -1.418  1.00  0.00     0.040 C 
BRANCH  11  13
HETATM   13  S   UNL     1       3.021  -1.408  -0.860  1.00  0.00    -0.165 SA
BRANCH  13  14
HETATM   14  C   UNL     1       2.794  -2.770   0.327  1.00  0.00     0.070 C 
HETATM   15  C   UNL     1       1.312  -3.024   0.530  1.00  0.00     0.016 C 
ENDBRANCH  13  14
ENDBRANCH  11  13
ENDBRANCH   1   7
BRANCH   4  16
HETATM   16  C   UNL     1       8.828  -6.106  -3.838  1.00  0.00     0.105 A 
HETATM   17  C   UNL     1       9.788  -5.666  -3.007  1.00  0.00     0.037 A 
HETATM   18  C   UNL     1      11.159  -6.057  -3.149  1.00  0.00     0.020 A 
HETATM   19  C   UNL     1      11.516  -6.876  -4.146  1.00  0.00     0.094 A 
HETATM   20  N   UNL     1      10.576  -7.379  -5.028  1.00  0.00    -0.327 N 
HETATM   21  C   UNL     1      11.009  -8.235  -6.116  1.00  0.00     0.159 C 
HETATM   22  C   UNL     1       9.212  -7.087  -4.920  1.00  0.00     0.274 A 
HETATM   23  O   UNL     1       8.339  -7.546  -5.660  1.00  0.00    -0.266 OA
ENDBRANCH   4  16
TORSDOF 4
