REMARK  7 active torsions:
REMARK  status: ('A' for Active; 'I' for Inactive)
REMARK    1  A    between atoms: N_1  and  C_4 
REMARK    2  A    between atoms: C_4  and  C_5 
REMARK    3  A    between atoms: C_5  and  C_6 
REMARK    4  A    between atoms: C_6  and  C_7 
REMARK    5  A    between atoms: C_7  and  N_8 
REMARK    6  A    between atoms: N_8  and  C_9 
REMARK    7  A    between atoms: C_14  and  N_15 
ROOT
HETATM    1  C   UNL     1       7.915  -2.651  -0.807  1.00  0.00     0.245 C 
HETATM    2  C   UNL     1       8.641  -1.385  -0.303  1.00  0.00     0.038 C 
HETATM    3  C   UNL     1       8.352  -0.147  -1.153  1.00  0.00     0.002 C 
HETATM    4  C   UNL     1       8.638  -0.385  -2.634  1.00  0.00     0.002 C 
HETATM    5  C   UNL     1       7.960  -1.648  -3.166  1.00  0.00     0.029 C 
HETATM    6  C   UNL     1       8.305  -2.872  -2.296  1.00  0.00     0.140 C 
ENDROOT
BRANCH   1   7
HETATM    7  N   UNL     1       6.448  -2.573  -0.609  1.00  0.00     0.090 N 
HETATM    8  H   UNL     1       6.069  -1.727  -1.035  1.00  0.00     0.316 HD
BRANCH   7   9
HETATM    9  C   UNL     1       6.069  -2.632   0.801  1.00  0.00     0.271 C 
BRANCH   9  10
HETATM   10  C   UNL     1       4.559  -2.776   0.955  1.00  0.00     0.043 C 
BRANCH  10  11
HETATM   11  C   UNL     1       4.020  -4.097   0.405  1.00  0.00     0.105 C 
BRANCH  11  12
HETATM   12  C   UNL     1       2.525  -4.148   0.675  1.00  0.00    -0.078 C 
BRANCH  12  13
HETATM   13  N   UNL     1       1.285  -4.191   0.899  1.00  0.00    -0.370 N 
ATOM     14  HN2 UNL     1       2.289  -4.185   0.720  1.00  0.00     0.165 HD
ATOM     15  HN1 UNL     1       0.282  -4.225   1.080  1.00  0.00     0.165 HD
ENDBRANCH  12  13
ENDBRANCH  11  12
ENDBRANCH  10  11
ENDBRANCH   9  10
ENDBRANCH   7   9
ENDBRANCH   1   7
BRANCH   6  16
HETATM   16  N   UNL     1       7.812  -4.140  -2.819  1.00  0.00    -0.297 N 
HETATM   17  C   UNL     1       6.713  -4.373  -3.598  1.00  0.00     0.112 A 
HETATM   18  C   UNL     1       6.697  -5.724  -3.852  1.00  0.00     0.037 A 
HETATM   19  C   UNL     1       7.830  -6.223  -3.186  1.00  0.00     0.108 A 
HETATM   20  N   UNL     1       8.520  -5.264  -2.565  1.00  0.00    -0.310 N 
ATOM     21  HN  UNL     1       9.380  -5.357  -2.025  1.00  0.00     0.186 HD
ENDBRANCH   6  16
TORSDOF 7
