REMARK  8 active torsions:
REMARK  status: ('A' for Active; 'I' for Inactive)
REMARK    1  A    between atoms: C_2  and  C_3 
REMARK    2  A    between atoms: C_3  and  C_4 
REMARK    3  A    between atoms: C_4  and  N_5 
REMARK    4  A    between atoms: C_6  and  N_7 
REMARK    5  A    between atoms: C_8  and  N_9 
REMARK    6  A    between atoms: N_9  and  C_11 
REMARK    7  A    between atoms: C_11  and  C_12 
REMARK    8  A    between atoms: C_12  and  O_13 
ROOT
HETATM    1  N   UNL     1       4.873   2.096   1.989  1.00  0.00    -0.288 N 
HETATM    2  C   UNL     1       5.469   1.668   3.164  1.00  0.00     0.116 C 
HETATM    3  C   UNL     1       5.818   2.546   4.137  1.00  0.00     0.137 C 
HETATM    4  C   UNL     1       5.514   3.998   3.907  1.00  0.00     0.279 C 
HETATM    5  O   UNL     1       5.632   4.849   4.786  1.00  0.00    -0.265 OA
HETATM    6  N   UNL     1       5.095   4.325   2.653  1.00  0.00    -0.273 N 
HETATM    7  C   UNL     1       4.675   3.441   1.705  1.00  0.00     0.330 C 
HETATM    8  O   UNL     1       4.148   3.870   0.679  1.00  0.00    -0.246 OA
HETATM    9  H   UNL     1       4.887   5.295   2.479  1.00  0.00     0.173 HD
ENDROOT
BRANCH   3  10
HETATM   10  N   UNL     1       6.442   2.153   5.341  1.00  0.00    -0.376 N 
HETATM   11  C   UNL     1       5.655   2.090   6.571  1.00  0.00     0.150 C 
BRANCH  10  12
HETATM   12  C   UNL     1       7.883   2.418   5.532  1.00  0.00     0.149 C 
BRANCH  12  13
HETATM   13  C   UNL     1       8.686   1.112   5.410  1.00  0.00     0.186 C 
BRANCH  13  14
HETATM   14  O   UNL     1       8.586   0.602   4.075  1.00  0.00    -0.394 OA
HETATM   15  C   UNL     1       9.300  -0.612   3.907  1.00  0.00     0.201 C 
ENDBRANCH  13  14
ENDBRANCH  12  13
ENDBRANCH  10  12
ENDBRANCH   3  10
BRANCH   2  16
HETATM   16  N   UNL     1       5.750   0.315   3.385  1.00  0.00    -0.286 NA
HETATM   17  H   UNL     1       6.155  -0.105   2.559  1.00  0.00     0.125 HD
HETATM   18  H   UNL     1       6.440   0.272   4.144  1.00  0.00     0.125 HD
ENDBRANCH   2  16
BRANCH   1  19
HETATM   19  C   UNL     1       4.399   1.115   1.000  1.00  0.00     0.135 C 
BRANCH  19  20
HETATM   20  C   UNL     1       3.208   0.293   1.505  1.00  0.00     0.020 C 
BRANCH  20  21
HETATM   21  C   UNL     1       2.720  -0.701   0.453  1.00  0.00    -0.003 C 
HETATM   22  C   UNL     1       1.597  -1.567   1.003  1.00  0.00     0.005 C 
ENDBRANCH  20  21
ENDBRANCH  19  20
ENDBRANCH   1  19
TORSDOF 8
