REMARK  2 active torsions:
REMARK  status: ('A' for Active; 'I' for Inactive)
REMARK    1  A    between atoms: C_5  and  N_6 
REMARK       I    between atoms: N_6  and  C_7 
REMARK       I    between atoms: C_7  and  N_9 
REMARK    2  A    between atoms: N_9  and  C_10 
ROOT
HETATM    1  N   UNL     1       6.380   0.307  -0.456  1.00  0.00    -0.295 N 
HETATM    2  C   UNL     1       7.168   1.438  -0.524  1.00  0.00     0.322 C 
HETATM    3  O   UNL     1       6.679   2.558  -0.403  1.00  0.00    -0.247 OA
HETATM    4  N   UNL     1       8.458   1.197  -0.844  1.00  0.00    -0.336 N 
HETATM    5  H   UNL     1       5.391   0.497  -0.401  1.00  0.00     0.172 HD
HETATM    6  H   UNL     1       8.728   0.251  -0.584  1.00  0.00     0.164 HD
ENDROOT
BRANCH   1   7
HETATM    7  C   UNL     1       6.815  -1.026  -0.591  1.00  0.00     0.108 A 
HETATM    8  C   UNL     1       5.886  -2.015  -0.894  1.00  0.00     0.052 A 
HETATM    9  C   UNL     1       6.345  -3.315  -1.130  1.00  0.00     0.047 A 
HETATM   10  C   UNL     1       7.696  -3.594  -1.016  1.00  0.00     0.131 A 
HETATM   11  F   UNL     1       8.164  -4.825  -1.251  1.00  0.00    -0.205 F 
HETATM   12  C   UNL     1       8.553  -2.574  -0.668  1.00  0.00     0.132 A 
HETATM   13  N   UNL     1       8.139  -1.302  -0.458  1.00  0.00    -0.349 N 
ATOM     14  HN  UNL     1       8.803  -0.570  -0.207  1.00  0.00     0.167 HD
ENDBRANCH   1   7
BRANCH   4  15
HETATM   15  C   UNL     1       9.562   2.103  -1.036  1.00  0.00     0.117 C 
HETATM   16  C   UNL     1       9.410   3.165  -2.132  1.00  0.00     0.059 C 
HETATM   17  C   UNL     1      10.620   2.882  -3.035  1.00  0.00     0.124 C 
HETATM   18  C   UNL     1      10.386   1.634  -3.881  1.00  0.00     0.034 C 
HETATM   19  O   UNL     1      11.601   2.393  -2.090  1.00  0.00    -0.378 OA
HETATM   20  C   UNL     1      10.460   0.529  -2.830  1.00  0.00     0.036 C 
HETATM   21  C   UNL     1      10.792   1.325  -1.554  1.00  0.00     0.144 C 
ENDBRANCH   4  15
TORSDOF 2
