REMARK  4 active torsions:
REMARK  status: ('A' for Active; 'I' for Inactive)
REMARK    1  A    between atoms: C_2  and  N_3 
REMARK    2  A    between atoms: C_2  and  C_19 
REMARK       I    between atoms: N_3  and  C_4 
REMARK    3  A    between atoms: C_4  and  C_6 
REMARK    4  A    between atoms: C_12  and  N_13 
REMARK       I    between atoms: C_19  and  N_21 
ROOT
HETATM    1  C   UNL     1       3.267  -3.007  -2.055  1.00  0.00     0.075 A 
HETATM    2  C   UNL     1       4.019  -2.540  -3.155  1.00  0.00     0.022 A 
HETATM    3  C   UNL     1       4.324  -3.389  -4.210  1.00  0.00     0.018 A 
HETATM    4  C   UNL     1       3.880  -4.686  -4.126  1.00  0.00     0.089 A 
HETATM    5  N   UNL     1       3.135  -5.150  -3.103  1.00  0.00    -0.352 N 
ATOM      6  HN  UNL     1       2.819  -6.120  -3.109  1.00  0.00     0.166 HD
HETATM    7  C   UNL     1       2.799  -4.337  -2.060  1.00  0.00     0.119 A 
ENDROOT
BRANCH   1   8
HETATM    8  C   UNL     1       3.185  -2.101  -0.878  1.00  0.00     0.256 C 
HETATM    9  N   UNL     1       2.992  -0.749  -1.119  1.00  0.00    -0.344 N 
HETATM   10  H   UNL     1       2.809  -0.410  -2.055  1.00  0.00     0.163 HD
HETATM   11  O   UNL     1       3.336  -2.531   0.261  1.00  0.00    -0.268 OA
BRANCH   9  12
HETATM   12  C   UNL     1       2.801   0.194  -0.013  1.00  0.00     0.173 C 
HETATM   13  C   UNL     1       1.310   0.491   0.144  1.00  0.00     0.042 C 
BRANCH  12  14
HETATM   14  C   UNL     1       3.596   1.494  -0.271  1.00  0.00     0.241 C 
HETATM   15  O   UNL     1       3.075   2.422  -0.899  1.00  0.00    -0.271 OA
HETATM   16  N   UNL     1       4.925   1.560   0.146  1.00  0.00    -0.359 N 
HETATM   17  C   UNL     1       5.686   0.467   0.734  1.00  0.00     0.152 C 
HETATM   18  C   UNL     1       5.657   2.808  -0.020  1.00  0.00     0.152 C 
ENDBRANCH  12  14
ENDBRANCH   9  12
ENDBRANCH   1   8
BRANCH   7  19
HETATM   19  N   UNL     1       1.941  -4.928  -1.161  1.00  0.00    -0.362 N 
HETATM   20  C   UNL     1       2.094  -6.370  -0.892  1.00  0.00     0.150 C 
HETATM   21  C   UNL     1       0.713  -7.020  -0.715  1.00  0.00     0.187 C 
HETATM   22  O   UNL     1      -0.049  -6.366   0.311  1.00  0.00    -0.388 OA
HETATM   23  C   UNL     1      -0.237  -4.983  -0.025  1.00  0.00     0.187 C 
HETATM   24  C   UNL     1       1.103  -4.237  -0.178  1.00  0.00     0.150 C 
ENDBRANCH   7  19
TORSDOF 4
