REMARK  7 active torsions:
REMARK  status: ('A' for Active; 'I' for Inactive)
REMARK    1  A    between atoms: C_2  and  N_3 
REMARK    2  A    between atoms: C_2  and  C_13 
REMARK    3  A    between atoms: N_3  and  C_4 
REMARK    4  A    between atoms: C_4  and  C_5 
REMARK    5  A    between atoms: C_5  and  N_6 
REMARK       I    between atoms: C_13  and  N_15 
REMARK    6  A    between atoms: N_15  and  C_16 
REMARK    7  A    between atoms: C_16  and  C_17 
ROOT
HETATM    1  C   UNL     1       0.952  -0.203  -0.121  1.00  0.00     0.053 C 
HETATM    2  C   UNL     1       2.469  -0.174   0.068  1.00  0.00     0.307 C 
ENDROOT
BRANCH   2   3
HETATM    3  N   UNL     1       2.984   1.105   0.631  1.00  0.00     0.098 N 
HETATM    4  H   UNL     1       2.681   1.858   0.009  1.00  0.00     0.317 HD
BRANCH   3   5
HETATM    5  C   UNL     1       2.461   1.387   1.982  1.00  0.00     0.292 C 
BRANCH   5   6
HETATM    6  C   UNL     1       2.993   2.706   2.548  1.00  0.00     0.178 C 
BRANCH   6   7
HETATM    7  N   UNL     1       2.476   2.933   3.887  1.00  0.00    -0.302 N 
HETATM    8  C   UNL     1       3.055   2.557   5.064  1.00  0.00     0.118 A 
HETATM    9  C   UNL     1       2.175   2.912   6.064  1.00  0.00    -0.028 A 
HETATM   10  C   UNL     1       2.314   2.714   7.523  1.00  0.00     0.051 C 
HETATM   11  C   UNL     1       1.097   3.509   5.372  1.00  0.00     0.115 A 
HETATM   12  N   UNL     1       1.278   3.523   4.049  1.00  0.00    -0.310 N 
ATOM     13  HN  UNL     1       0.655   3.893   3.331  1.00  0.00     0.186 HD
ENDBRANCH   6   7
ENDBRANCH   5   6
ENDBRANCH   3   5
ENDBRANCH   2   3
BRANCH   2  14
HETATM   14  C   UNL     1       2.947  -1.392   0.886  1.00  0.00     0.250 C 
HETATM   15  O   UNL     1       2.184  -2.232   1.353  1.00  0.00    -0.271 OA
HETATM   16  N   UNL     1       4.316  -1.484   1.015  1.00  0.00    -0.357 N 
HETATM   17  H   UNL     1       4.886  -0.699   0.709  1.00  0.00     0.162 HD
BRANCH  16  18
HETATM   18  C   UNL     1       4.962  -2.594   1.695  1.00  0.00     0.154 C 
BRANCH  18  19
HETATM   19  C   UNL     1       5.816  -2.150   2.881  1.00  0.00     0.139 C 
HETATM   20  C   UNL     1       5.088  -1.359   3.959  1.00  0.00     0.035 C 
HETATM   21  C   UNL     1       6.074  -0.288   4.378  1.00  0.00     0.029 C 
HETATM   22  C   UNL     1       7.329  -0.584   3.588  1.00  0.00     0.168 C 
HETATM   23  O   UNL     1       6.894  -1.306   2.434  1.00  0.00    -0.384 OA
ENDBRANCH  18  19
ENDBRANCH  16  18
ENDBRANCH   2  14
TORSDOF 7
