REMARK  6 active torsions:
REMARK  status: ('A' for Active; 'I' for Inactive)
REMARK    1  A    between atoms: C_2  and  C_3 
REMARK    2  A    between atoms: C_3  and  C_5 
REMARK    3  A    between atoms: C_3  and  N_7 
REMARK    4  A    between atoms: C_5  and  O_6 
REMARK       I    between atoms: N_7  and  C_8 
REMARK       I    between atoms: C_8  and  N_10 
REMARK    5  A    between atoms: N_10  and  C_11 
REMARK    6  A    between atoms: C_14  and  N_18 
ROOT
HETATM    1  C   UNL     1       7.246  -0.153  -4.064  1.00  0.00     0.051 A 
HETATM    2  C   UNL     1       8.232   0.790  -4.292  1.00  0.00     0.035 A 
HETATM    3  C   UNL     1       8.849   0.835  -5.550  1.00  0.00     0.051 A 
HETATM    4  C   UNL     1       8.519  -0.087  -6.550  1.00  0.00     0.103 A 
HETATM    5  N   UNL     1       7.626  -1.062  -6.288  1.00  0.00    -0.350 N 
ATOM      6  HN  UNL     1       7.422  -1.781  -6.982  1.00  0.00     0.166 HD
HETATM    7  C   UNL     1       7.003  -1.068  -5.082  1.00  0.00     0.119 A 
ENDROOT
BRANCH   1   8
HETATM    8  N   UNL     1       6.493  -0.119  -2.867  1.00  0.00    -0.308 N 
HETATM    9  C   UNL     1       5.118  -0.215  -2.946  1.00  0.00     0.321 C 
HETATM   10  N   UNL     1       4.500  -0.137  -1.716  1.00  0.00    -0.332 N 
HETATM   11  O   UNL     1       4.492  -0.300  -3.994  1.00  0.00    -0.247 OA
HETATM   12  H   UNL     1       4.999  -0.581  -0.955  1.00  0.00     0.165 HD
HETATM   13  H   UNL     1       6.810   0.505  -2.139  1.00  0.00     0.170 HD
BRANCH  10  14
HETATM   14  C   UNL     1       3.021  -0.057  -1.608  1.00  0.00     0.051 C 
HETATM   15  C   UNL     1       2.361  -1.299  -2.252  1.00  0.00     0.041 C 
BRANCH  14  16
HETATM   16  C   UNL     1       2.591  -0.078  -0.112  1.00  0.00     0.028 C 
HETATM   17  C   UNL     1       3.094   1.072   0.749  1.00  0.00     0.007 C 
ENDBRANCH  14  16
BRANCH  14  18
HETATM   18  C   UNL     1       2.509   1.239  -2.308  1.00  0.00     0.194 C 
BRANCH  18  19
HETATM   19  O   UNL     1       1.098   1.405  -2.184  1.00  0.00    -0.398 OA
HETATM   20  H   UNL     1       0.694   0.861  -2.883  1.00  0.00     0.209 HD
ENDBRANCH  18  19
ENDBRANCH  14  18
ENDBRANCH  10  14
ENDBRANCH   1   8
BRANCH   4  21
HETATM   21  N   UNL     1       9.137  -0.063  -7.786  1.00  0.00    -0.363 N 
HETATM   22  C   UNL     1       9.436   1.200  -8.476  1.00  0.00     0.150 C 
HETATM   23  C   UNL     1       8.527   1.404  -9.701  1.00  0.00     0.187 C 
HETATM   24  O   UNL     1       8.555   0.272 -10.582  1.00  0.00    -0.388 OA
HETATM   25  C   UNL     1       8.086  -0.896  -9.884  1.00  0.00     0.187 C 
HETATM   26  C   UNL     1       8.983  -1.223  -8.682  1.00  0.00     0.150 C 
ENDBRANCH   4  21
TORSDOF 6
