REMARK  8 active torsions:
REMARK  status: ('A' for Active; 'I' for Inactive)
REMARK    1  A    between atoms: N_6  and  C_7 
REMARK    2  A    between atoms: C_7  and  C_8 
REMARK    3  A    between atoms: C_8  and  N_9 
REMARK    4  A    between atoms: N_9  and  C_10 
REMARK    5  A    between atoms: C_10  and  C_11 
REMARK    6  A    between atoms: C_11  and  O_12 
REMARK    7  A    between atoms: C_11  and  C_13 
REMARK    8  A    between atoms: C_13  and  N_14 
ROOT
HETATM    1  N   UNL     1       6.279  -3.780   0.110  1.00  0.00     0.087 N 
HETATM    2  H   UNL     1       6.799  -3.522   0.947  1.00  0.00     0.316 HD
ENDROOT
BRANCH   1   3
HETATM    3  C   UNL     1       5.116  -2.888  -0.026  1.00  0.00     0.291 C 
BRANCH   3   4
HETATM    4  C   UNL     1       4.158  -2.927   1.166  1.00  0.00     0.178 C 
BRANCH   4   5
HETATM    5  N   UNL     1       3.069  -1.991   0.998  1.00  0.00    -0.302 N 
HETATM    6  N   UNL     1       3.186  -0.738   1.464  1.00  0.00    -0.310 N 
HETATM    7  C   UNL     1       2.017  -0.175   1.149  1.00  0.00     0.115 A 
ATOM      8  HN  UNL     1       3.980  -0.316   1.945  1.00  0.00     0.186 HD
HETATM    9  C   UNL     1       1.146  -1.070   0.485  1.00  0.00    -0.028 A 
HETATM   10  C   UNL     1      -0.220  -0.817  -0.017  1.00  0.00     0.051 C 
HETATM   11  C   UNL     1       1.865  -2.243   0.409  1.00  0.00     0.118 A 
ENDBRANCH   4   5
ENDBRANCH   3   4
ENDBRANCH   1   3
BRANCH   1  12
HETATM   12  C   UNL     1       5.885  -5.195   0.150  1.00  0.00     0.302 C 
BRANCH  12  13
HETATM   13  C   UNL     1       7.080  -6.164   0.176  1.00  0.00     0.174 C 
BRANCH  13  14
HETATM   14  O   UNL     1       7.864  -5.980  -1.007  1.00  0.00    -0.392 OA
HETATM   15  H   UNL     1       8.308  -5.119  -0.903  1.00  0.00     0.210 HD
ENDBRANCH  13  14
BRANCH  13  16
HETATM   16  C   UNL     1       7.950  -6.019   1.457  1.00  0.00     0.305 C 
BRANCH  16  17
HETATM   17  N   UNL     1       9.141  -6.892   1.455  1.00  0.00     0.095 N 
HETATM   18  C   UNL     1       8.819  -8.330   1.396  1.00  0.00     0.298 C 
HETATM   19  C   UNL     1       8.260  -8.868   2.719  1.00  0.00     0.198 C 
HETATM   20  O   UNL     1       9.221  -8.702   3.767  1.00  0.00    -0.388 OA
HETATM   21  C   UNL     1       9.566  -7.321   3.933  1.00  0.00     0.198 C 
HETATM   22  C   UNL     1      10.021  -6.654   2.619  1.00  0.00     0.298 C 
ENDBRANCH  16  17
ENDBRANCH  13  16
ENDBRANCH  12  13
ENDBRANCH   1  12
TORSDOF 8
