REMARK  4 active torsions:
REMARK  status: ('A' for Active; 'I' for Inactive)
REMARK    1  A    between atoms: C_2  and  C_3 
REMARK       I    between atoms: N_6  and  C_10 
REMARK       I    between atoms: C_10  and  N_12 
REMARK    2  A    between atoms: N_12  and  C_13 
REMARK    3  A    between atoms: C_13  and  C_14 
REMARK    4  A    between atoms: C_14  and  C_15 
ROOT
HETATM    1  C   UNL     1       3.037  -1.230   0.384  1.00  0.00     0.073 C 
HETATM    2  C   UNL     1       3.113  -1.288   1.918  1.00  0.00     0.047 C 
HETATM    3  C   UNL     1       4.487  -1.187  -0.182  1.00  0.00     0.165 C 
HETATM    4  N   UNL     1       4.494  -1.458  -1.624  1.00  0.00    -0.329 N 
HETATM    5  C   UNL     1       3.865  -2.740  -1.939  1.00  0.00     0.153 C 
HETATM    6  C   UNL     1       2.426  -2.740  -1.414  1.00  0.00     0.189 C 
HETATM    7  O   UNL     1       2.373  -2.455  -0.006  1.00  0.00    -0.377 OA
HETATM    8  C   UNL     1       4.594  -0.530  -2.643  1.00  0.00     0.318 C 
HETATM    9  O   UNL     1       4.375  -0.815  -3.819  1.00  0.00    -0.247 OA
HETATM   10  N   UNL     1       4.909   0.751  -2.266  1.00  0.00    -0.343 N 
HETATM   11  H   UNL     1       5.546   0.821  -1.488  1.00  0.00     0.164 HD
ENDROOT
BRANCH  10  12
HETATM   12  C   UNL     1       5.097   1.747  -3.311  1.00  0.00     0.130 C 
BRANCH  12  13
HETATM   13  C   UNL     1       5.253   3.177  -2.791  1.00  0.00     0.078 C 
BRANCH  13  14
HETATM   14  C   UNL     1       6.448   3.352  -1.909  1.00  0.00     0.031 A 
HETATM   15  C   UNL     1       6.541   3.311  -0.534  1.00  0.00     0.045 A 
HETATM   16  C   UNL     1       7.895   3.552  -0.252  1.00  0.00     0.109 A 
HETATM   17  N   UNL     1       8.616   3.731  -1.357  1.00  0.00    -0.310 N 
HETATM   18  N   UNL     1       7.719   3.620  -2.355  1.00  0.00    -0.301 N 
ATOM     19  HN  UNL     1       9.617   3.911  -1.431  1.00  0.00     0.186 HD
HETATM   20  C   UNL     1       8.164   3.804  -3.717  1.00  0.00     0.177 C 
ENDBRANCH  13  14
ENDBRANCH  12  13
ENDBRANCH  10  12
BRANCH   1  21
HETATM   21  C   UNL     1       2.253   0.025  -0.075  1.00  0.00     0.035 C 
HETATM   22  C   UNL     1       0.808   0.096   0.397  1.00  0.00     0.008 C 
ENDBRANCH   1  21
TORSDOF 4
