REMARK  5 active torsions:
REMARK  status: ('A' for Active; 'I' for Inactive)
REMARK    1  A    between atoms: C_2  and  N_3 
REMARK    2  A    between atoms: C_2  and  C_14 
REMARK    3  A    between atoms: N_3  and  C_4 
REMARK    4  A    between atoms: C_4  and  C_5 
REMARK       I    between atoms: N_8  and  C_11 
REMARK    5  A    between atoms: C_14  and  N_16 
ROOT
HETATM    1  N   UNL     1       2.368   1.518   0.558  1.00  0.00     0.090 N 
HETATM    2  H   UNL     1       3.073   0.840   0.259  1.00  0.00     0.316 HD
ENDROOT
BRANCH   1   3
HETATM    3  C   UNL     1       1.176   0.784   1.063  1.00  0.00     0.240 C 
HETATM    4  C   UNL     1       0.638  -0.160  -0.027  1.00  0.00     0.045 C 
BRANCH   3   5
HETATM    5  C   UNL     1       0.057   1.685   1.675  1.00  0.00     0.136 C 
HETATM    6  C   UNL     1      -1.150   0.897   2.201  1.00  0.00     0.036 C 
BRANCH   5   7
HETATM    7  N   UNL     1       0.567   2.553   2.739  1.00  0.00    -0.297 N 
HETATM    8  C   UNL     1       0.566   3.922   2.738  1.00  0.00     0.112 A 
HETATM    9  C   UNL     1       1.049   4.306   3.965  1.00  0.00     0.037 A 
HETATM   10  C   UNL     1       1.293   3.101   4.646  1.00  0.00     0.108 A 
HETATM   11  N   UNL     1       0.984   2.029   3.911  1.00  0.00    -0.310 N 
ATOM     12  HN  UNL     1       1.048   1.046   4.174  1.00  0.00     0.186 HD
ENDBRANCH   5   7
ENDBRANCH   3   5
ENDBRANCH   1   3
BRANCH   1  13
HETATM   13  C   UNL     1       2.093   2.460  -0.520  1.00  0.00     0.274 C 
BRANCH  13  14
HETATM   14  C   UNL     1       3.362   3.154  -1.057  1.00  0.00     0.017 C 
HETATM   15  C   UNL     1       4.075   4.065  -0.035  1.00  0.00     0.026 C 
HETATM   16  C   UNL     1       3.395   5.422   0.191  1.00  0.00     0.126 C 
HETATM   17  N   UNL     1       2.982   6.062  -1.060  1.00  0.00    -0.352 N 
HETATM   18  C   UNL     1       2.201   5.212  -1.953  1.00  0.00     0.126 C 
HETATM   19  C   UNL     1       3.094   7.403  -1.400  1.00  0.00     0.215 C 
HETATM   20  C   UNL     1       3.010   3.972  -2.311  1.00  0.00     0.026 C 
HETATM   21  O   UNL     1       2.565   7.868  -2.416  1.00  0.00    -0.274 OA
HETATM   22  C   UNL     1       3.916   8.337  -0.551  1.00  0.00     0.117 C 
ENDBRANCH  13  14
ENDBRANCH   1  13
TORSDOF 5
