REMARK  7 active torsions:
REMARK  status: ('A' for Active; 'I' for Inactive)
REMARK    1  A    between atoms: N_6  and  C_7 
REMARK    2  A    between atoms: C_7  and  C_8 
REMARK    3  A    between atoms: C_8  and  N_9 
REMARK    4  A    between atoms: N_9  and  C_10 
REMARK    5  A    between atoms: C_10  and  C_11 
REMARK    6  A    between atoms: C_11  and  C_12 
REMARK    7  A    between atoms: C_12  and  N_13 
ROOT
HETATM    1  N   UNL     1       6.269  -4.087   0.081  1.00  0.00     0.085 N 
HETATM    2  H   UNL     1       6.849  -3.891   0.898  1.00  0.00     0.315 HD
ENDROOT
BRANCH   1   3
HETATM    3  C   UNL     1       5.117  -3.173   0.042  1.00  0.00     0.291 C 
BRANCH   3   4
HETATM    4  C   UNL     1       4.207  -3.233   1.272  1.00  0.00     0.178 C 
BRANCH   4   5
HETATM    5  N   UNL     1       3.110  -2.291   1.171  1.00  0.00    -0.302 N 
HETATM    6  N   UNL     1       1.968  -2.660   0.566  1.00  0.00    -0.310 N 
HETATM    7  C   UNL     1       1.188  -1.582   0.680  1.00  0.00     0.115 A 
ATOM      8  HN  UNL     1       1.749  -3.553   0.124  1.00  0.00     0.186 HD
HETATM    9  C   UNL     1       1.828  -0.519   1.356  1.00  0.00    -0.028 A 
HETATM   10  C   UNL     1       1.289   0.823   1.667  1.00  0.00     0.051 C 
HETATM   11  C   UNL     1       3.077  -1.018   1.661  1.00  0.00     0.118 A 
ENDBRANCH   4   5
ENDBRANCH   3   4
ENDBRANCH   1   3
BRANCH   1  12
HETATM   12  C   UNL     1       5.866  -5.496   0.085  1.00  0.00     0.271 C 
BRANCH  12  13
HETATM   13  C   UNL     1       7.106  -6.381   0.078  1.00  0.00     0.050 C 
BRANCH  13  14
HETATM   14  C   UNL     1       6.733  -7.866   0.158  1.00  0.00     0.127 C 
BRANCH  14  15
HETATM   15  N   UNL     1       7.921  -8.702   0.137  1.00  0.00    -0.352 N 
HETATM   16  C   UNL     1       8.545  -9.083  -1.103  1.00  0.00     0.126 C 
HETATM   17  C   UNL     1       9.885  -9.664  -0.704  1.00  0.00     0.029 C 
HETATM   18  C   UNL     1      10.162  -9.113   0.688  1.00  0.00     0.104 C 
HETATM   19  C   UNL     1       8.809  -8.708   1.205  1.00  0.00     0.219 C 
HETATM   20  O   UNL     1       8.575  -8.339   2.346  1.00  0.00    -0.273 OA
ENDBRANCH  14  15
ENDBRANCH  13  14
ENDBRANCH  12  13
ENDBRANCH   1  12
TORSDOF 7
