REMARK  6 active torsions:
REMARK  status: ('A' for Active; 'I' for Inactive)
REMARK    1  A    between atoms: C_2  and  C_3 
REMARK    2  A    between atoms: C_2  and  N_10 
REMARK    3  A    between atoms: C_3  and  N_4 
REMARK    4  A    between atoms: N_10  and  C_11 
REMARK    5  A    between atoms: C_11  and  C_12 
REMARK    6  A    between atoms: C_12  and  N_13 
ROOT
HETATM    1  N   UNL     1       3.030  -0.555  -1.208  1.00  0.00     0.090 N 
HETATM    2  H   UNL     1       2.680  -0.092  -2.050  1.00  0.00     0.316 HD
ENDROOT
BRANCH   1   3
HETATM    3  C   UNL     1       2.519   0.163  -0.017  1.00  0.00     0.236 C 
HETATM    4  C   UNL     1       2.957   1.633   0.004  1.00  0.00     0.044 C 
BRANCH   3   5
HETATM    5  C   UNL     1       0.982   0.035   0.044  1.00  0.00     0.183 C 
BRANCH   5   6
HETATM    6  N   UNL     1       0.424   0.617   1.254  1.00  0.00    -0.302 N 
HETATM    7  C   UNL     1       0.653   0.210   2.539  1.00  0.00     0.111 A 
HETATM    8  C   UNL     1       0.020   1.126   3.345  1.00  0.00     0.037 A 
HETATM    9  C   UNL     1      -0.584   2.029   2.453  1.00  0.00     0.108 A 
HETATM   10  N   UNL     1      -0.345   1.720   1.176  1.00  0.00    -0.310 N 
ATOM     11  HN  UNL     1      -0.669   2.205   0.339  1.00  0.00     0.186 HD
ENDBRANCH   5   6
ENDBRANCH   3   5
ENDBRANCH   1   3
BRANCH   1  12
HETATM   12  C   UNL     1       4.497  -0.616  -1.299  1.00  0.00     0.290 C 
BRANCH  12  13
HETATM   13  C   UNL     1       5.198  -1.332  -0.129  1.00  0.00     0.166 C 
BRANCH  13  14
HETATM   14  N   UNL     1       6.637  -1.236  -0.243  1.00  0.00    -0.267 N 
HETATM   15  C   UNL     1       7.450  -2.180  -0.805  1.00  0.00     0.245 A 
HETATM   16  O   UNL     1       7.111  -3.264  -1.256  1.00  0.00    -0.271 OA
HETATM   17  C   UNL     1       8.873  -1.645  -0.803  1.00  0.00     0.227 A 
HETATM   18  N   UNL     1       8.675  -0.357  -0.201  1.00  0.00    -0.334 N 
HETATM   19  C   UNL     1       7.352  -0.124   0.089  1.00  0.00     0.325 A 
HETATM   20  H   UNL     1       9.375   0.359  -0.062  1.00  0.00     0.164 HD
HETATM   21  O   UNL     1       6.926   0.925   0.543  1.00  0.00    -0.247 OA
ENDBRANCH  13  14
ENDBRANCH  12  13
ENDBRANCH   1  12
TORSDOF 6
