REMARK  4 active torsions:
REMARK  status: ('A' for Active; 'I' for Inactive)
REMARK    1  A    between atoms: C_8  and  N_9 
REMARK       I    between atoms: N_9  and  C_10 
REMARK       I    between atoms: C_10  and  N_12 
REMARK    2  A    between atoms: N_12  and  C_13 
REMARK    3  A    between atoms: C_13  and  C_14 
REMARK    4  A    between atoms: C_14  and  N_15 
ROOT
HETATM    1  N   UNL     1       2.516  -2.442   0.467  1.00  0.00    -0.294 N 
HETATM    2  C   UNL     1       1.159  -2.541   0.412  1.00  0.00     0.321 C 
HETATM    3  O   UNL     1       0.512  -1.502   0.281  1.00  0.00    -0.247 OA
HETATM    4  N   UNL     1       0.576  -3.770   0.551  1.00  0.00    -0.341 N 
HETATM    5  H   UNL     1       2.819  -1.485   0.392  1.00  0.00     0.172 HD
HETATM    6  H   UNL     1       1.190  -4.567   0.394  1.00  0.00     0.164 HD
ENDROOT
BRANCH   1   7
HETATM    7  C   UNL     1       3.480  -3.434   0.666  1.00  0.00     0.114 A 
HETATM    8  C   UNL     1       4.834  -3.069   0.780  1.00  0.00    -0.018 A 
HETATM    9  C   UNL     1       5.336  -1.658   0.679  1.00  0.00     0.052 C 
HETATM   10  C   UNL     1       5.757  -4.090   1.042  1.00  0.00     0.012 A 
HETATM   11  C   UNL     1       5.331  -5.404   1.167  1.00  0.00     0.018 A 
HETATM   12  C   UNL     1       3.985  -5.666   1.010  1.00  0.00     0.089 A 
HETATM   13  N   UNL     1       3.060  -4.720   0.751  1.00  0.00    -0.352 N 
ATOM     14  HN  UNL     1       2.078  -4.964   0.623  1.00  0.00     0.166 HD
ENDBRANCH   1   7
BRANCH   4  15
HETATM   15  C   UNL     1      -0.866  -3.856   0.453  1.00  0.00     0.154 C 
BRANCH  15  16
HETATM   16  C   UNL     1      -1.553  -5.223   0.701  1.00  0.00     0.292 C 
BRANCH  16  17
HETATM   17  N   UNL     1      -3.020  -5.094   0.545  1.00  0.00     0.094 N 
HETATM   18  C   UNL     1      -3.666  -4.241   1.569  1.00  0.00     0.298 C 
HETATM   19  C   UNL     1      -3.861  -4.939   2.920  1.00  0.00     0.198 C 
HETATM   20  O   UNL     1      -4.674  -6.107   2.766  1.00  0.00    -0.388 OA
HETATM   21  C   UNL     1      -4.063  -7.025   1.850  1.00  0.00     0.198 C 
HETATM   22  C   UNL     1      -3.752  -6.376   0.488  1.00  0.00     0.298 C 
ENDBRANCH  16  17
ENDBRANCH  15  16
ENDBRANCH   4  15
TORSDOF 4
