REMARK  4 active torsions:
REMARK  status: ('A' for Active; 'I' for Inactive)
REMARK    1  A    between atoms: C_5  and  C_6 
REMARK    2  A    between atoms: C_6  and  C_7 
REMARK    3  A    between atoms: C_7  and  N_8 
REMARK       I    between atoms: N_8  and  C_9 
REMARK    4  A    between atoms: C_9  and  C_11 
ROOT
HETATM    1  C   UNL     1       7.323  -1.425  -0.550  1.00  0.00     0.127 C 
ENDROOT
BRANCH   1   2
HETATM    2  C   UNL     1       6.723  -0.014  -0.520  1.00  0.00     0.059 C 
BRANCH   2   3
HETATM    3  C   UNL     1       5.257  -0.037  -0.184  1.00  0.00    -0.041 A 
HETATM    4  C   UNL     1       4.288  -0.127  -1.184  1.00  0.00     0.010 A 
HETATM    5  C   UNL     1       2.940  -0.213  -0.839  1.00  0.00     0.025 A 
HETATM    6  C   UNL     1       2.590  -0.211   0.507  1.00  0.00     0.005 A 
HETATM    7  C   UNL     1       1.161  -0.378   0.929  1.00  0.00     0.068 C 
HETATM    8  N   UNL     1       3.509  -0.108   1.496  1.00  0.00    -0.369 N 
HETATM    9  C   UNL     1       4.810  -0.021   1.132  1.00  0.00     0.095 A 
ATOM     10  HN  UNL     1       3.232  -0.096   2.478  1.00  0.00     0.165 HD
ENDBRANCH   2   3
ENDBRANCH   1   2
BRANCH   1  11
HETATM   11  N   UNL     1       8.708  -1.425  -0.985  1.00  0.00    -0.359 N 
HETATM   12  C   UNL     1       9.049  -1.449  -2.321  1.00  0.00     0.246 C 
HETATM   13  O   UNL     1       8.219  -1.399  -3.225  1.00  0.00    -0.271 OA
HETATM   14  H   UNL     1       9.458  -1.584  -0.318  1.00  0.00     0.162 HD
BRANCH  12  15
HETATM   15  C   UNL     1      10.565  -1.439  -2.581  1.00  0.00     0.213 C 
HETATM   16  C   UNL     1      10.941  -2.227  -3.828  1.00  0.00     0.043 C 
HETATM   17  C   UNL     1      12.285  -2.846  -3.505  1.00  0.00     0.029 C 
HETATM   18  C   UNL     1      12.616  -2.335  -2.121  1.00  0.00     0.168 C 
HETATM   19  O   UNL     1      11.364  -1.979  -1.521  1.00  0.00    -0.376 OA
ENDBRANCH  12  15
ENDBRANCH   1  11
TORSDOF 4
