REMARK  5 active torsions:
REMARK  status: ('A' for Active; 'I' for Inactive)
REMARK       I    between atoms: C_2  and  N_3 
REMARK       I    between atoms: C_2  and  N_13 
REMARK    1  A    between atoms: N_3  and  C_4 
REMARK    2  A    between atoms: C_4  and  C_5 
REMARK    3  A    between atoms: C_5  and  N_6 
REMARK    4  A    between atoms: N_13  and  C_14 
REMARK    5  A    between atoms: C_17  and  N_21 
ROOT
HETATM    1  O   UNL     1       2.597   0.953  -0.743  1.00  0.00    -0.247 OA
HETATM    2  C   UNL     1       2.214   0.097   0.043  1.00  0.00     0.320 C 
HETATM    3  N   UNL     1       0.877  -0.120   0.299  1.00  0.00    -0.341 N 
HETATM    4  N   UNL     1       3.017  -0.771   0.758  1.00  0.00    -0.308 N 
HETATM    5  H   UNL     1       0.634  -0.634   1.132  1.00  0.00     0.164 HD
HETATM    6  H   UNL     1       2.568  -1.624   1.058  1.00  0.00     0.170 HD
ENDROOT
BRANCH   4   7
HETATM    7  C   UNL     1       4.431  -0.751   0.774  1.00  0.00     0.051 A 
HETATM    8  C   UNL     1       5.186   0.349   0.403  1.00  0.00     0.035 A 
HETATM    9  C   UNL     1       6.582   0.262   0.393  1.00  0.00     0.051 A 
HETATM   10  C   UNL     1       7.234  -0.921   0.745  1.00  0.00     0.103 A 
HETATM   11  N   UNL     1       6.507  -1.975   1.175  1.00  0.00    -0.350 N 
HETATM   12  C   UNL     1       5.147  -1.869   1.187  1.00  0.00     0.119 A 
ATOM     13  HN  UNL     1       6.965  -2.832   1.484  1.00  0.00     0.166 HD
BRANCH  10  14
HETATM   14  N   UNL     1       8.615  -1.004   0.715  1.00  0.00    -0.363 N 
HETATM   15  C   UNL     1       9.397  -0.338  -0.340  1.00  0.00     0.150 C 
HETATM   16  C   UNL     1       9.981  -1.361  -1.329  1.00  0.00     0.187 C 
HETATM   17  O   UNL     1      10.737  -2.376  -0.655  1.00  0.00    -0.388 OA
HETATM   18  C   UNL     1       9.885  -3.092   0.258  1.00  0.00     0.187 C 
HETATM   19  C   UNL     1       9.289  -2.162   1.324  1.00  0.00     0.150 C 
ENDBRANCH  10  14
ENDBRANCH   4   7
BRANCH   3  20
HETATM   20  C   UNL     1      -0.162   0.672  -0.345  1.00  0.00     0.144 C 
BRANCH  20  21
HETATM   21  C   UNL     1      -0.970  -0.118  -1.379  1.00  0.00     0.154 C 
BRANCH  21  22
HETATM   22  N   UNL     1      -1.808  -1.171  -0.818  1.00  0.00    -0.287 N 
HETATM   23  C   UNL     1      -3.036  -0.949  -0.273  1.00  0.00     0.226 C 
HETATM   24  O   UNL     1      -3.576   0.133  -0.109  1.00  0.00    -0.273 OA
HETATM   25  C   UNL     1      -3.619  -2.265   0.164  1.00  0.00     0.112 C 
HETATM   26  C   UNL     1      -2.664  -3.292  -0.412  1.00  0.00     0.112 C 
HETATM   27  C   UNL     1      -1.454  -2.485  -0.787  1.00  0.00     0.226 C 
HETATM   28  O   UNL     1      -0.360  -2.966  -1.045  1.00  0.00    -0.273 OA
ENDBRANCH  21  22
ENDBRANCH  20  21
ENDBRANCH   3  20
TORSDOF 5
