REMARK  13 active torsions:
REMARK  status: ('A' for Active; 'I' for Inactive)
REMARK    1  A    between atoms: N_2  and  C_13 
REMARK    2  A    between atoms: C_6  and  N_8 
REMARK    3  A    between atoms: N_8  and  C_20 
REMARK    4  A    between atoms: N_8  and  C_25 
REMARK    5  A    between atoms: C_13  and  C_17 
REMARK    6  A    between atoms: N_14  and  C_18 
REMARK    7  A    between atoms: C_17  and  C_21 
REMARK    8  A    between atoms: C_17  and  O_24 
REMARK    9  A    between atoms: C_18  and  C_23 
REMARK   10  A    between atoms: C_20  and  C_26 
REMARK   11  A    between atoms: C_23  and  C_25 
REMARK   12  A    between atoms: C_26  and  C_29 
REMARK   13  A    between atoms: C_26  and  C_30 
ROOT
HETATM    1  C   UNL     1       0.340  -0.642  -0.816  1.00  0.00     0.117 A 
HETATM    2  N   UNL     1       1.408   1.289  -0.758  1.00  0.00    -0.325 N 
HETATM    3  C   UNL     1       0.154   0.734  -0.671  1.00  0.00     0.140 A 
HETATM    4  N   UNL     1       1.670  -0.898  -1.097  1.00  0.00    -0.346 N 
ATOM      5  HN  UNL     1       2.096  -1.805  -1.288  1.00  0.00     0.167 HD
HETATM    6  C   UNL     1      -0.797  -1.490  -0.631  1.00  0.00     0.114 A 
HETATM    7  C   UNL     1       2.272   0.271  -1.067  1.00  0.00     0.185 A 
HETATM    8  N   UNL     1      -0.998   1.380  -0.428  1.00  0.00    -0.336 N 
ATOM      9  HN  UNL     1      -1.084   2.390  -0.312  1.00  0.00     0.168 HD
HETATM   10  N   UNL     1      -1.992  -0.833  -0.436  1.00  0.00    -0.341 N 
ATOM     11  HN  UNL     1      -2.857  -1.366  -0.350  1.00  0.00     0.167 HD
HETATM   12  C   UNL     1      -2.021   0.514  -0.359  1.00  0.00     0.183 A 
ENDROOT
BRANCH   6  13
HETATM   13  N   UNL     1      -0.803  -2.921  -0.643  1.00  0.00    -0.266 NA
BRANCH  13  14
HETATM   14  C   UNL     1       0.369  -3.521   0.036  1.00  0.00     0.101 C 
BRANCH  14  15
HETATM   15  C   UNL     1       0.567  -5.032  -0.266  1.00  0.00    -0.002 C 
BRANCH  15  16
HETATM   16  C   UNL     1       0.821  -5.336  -1.760  1.00  0.00     0.001 C 
HETATM   17  C   UNL     1       2.044  -4.676  -2.380  1.00  0.00     0.005 C 
ENDBRANCH  15  16
BRANCH  15  18
HETATM   18  C   UNL     1       1.676  -5.642   0.623  1.00  0.00     0.001 C 
HETATM   19  C   UNL     1       1.285  -5.710   2.097  1.00  0.00     0.005 C 
ENDBRANCH  15  18
ENDBRANCH  14  15
ENDBRANCH  13  14
BRANCH  13  20
HETATM   20  C   UNL     1      -2.137  -3.504  -0.314  1.00  0.00     0.110 C 
BRANCH  20  21
HETATM   21  C   UNL     1      -3.035  -3.478  -1.539  1.00  0.00     0.118 C 
BRANCH  21  22
HETATM   22  C   UNL     1      -4.378  -4.171  -1.374  1.00  0.00    -0.077 C 
BRANCH  22  23
HETATM   23  N   UNL     1      -5.492  -4.746  -1.238  1.00  0.00    -0.370 N 
ATOM     24  HN2 UNL     1      -4.592  -4.288  -1.384  1.00  0.00     0.165 HD
ATOM     25  HN1 UNL     1      -6.393  -5.211  -1.127  1.00  0.00     0.165 HD
ENDBRANCH  22  23
ENDBRANCH  21  22
ENDBRANCH  20  21
ENDBRANCH  13  20
ENDBRANCH   6  13
BRANCH   2  26
HETATM   26  C   UNL     1       1.801   2.621  -0.311  1.00  0.00     0.165 C 
BRANCH  26  27
HETATM   27  C   UNL     1       2.452   3.525  -1.373  1.00  0.00     0.165 C 
BRANCH  27  28
HETATM   28  C   UNL     1       2.930   4.890  -0.829  1.00  0.00     0.151 C 
HETATM   29  O   UNL     1       3.901   4.693   0.224  1.00  0.00    -0.383 OA
HETATM   30  C   UNL     1       3.888   5.868   1.059  1.00  0.00     0.168 C 
HETATM   31  C   UNL     1       2.788   6.778   0.542  1.00  0.00     0.029 C 
HETATM   32  C   UNL     1       1.900   5.829  -0.235  1.00  0.00     0.036 C 
ENDBRANCH  27  28
BRANCH  27  33
HETATM   33  O   UNL     1       3.621   2.876  -1.910  1.00  0.00    -0.391 OA
HETATM   34  H   UNL     1       4.374   3.152  -1.349  1.00  0.00     0.210 HD
ENDBRANCH  27  33
ENDBRANCH  26  27
ENDBRANCH   2  26
TORSDOF 13
