REMARK  2 active torsions:
REMARK  status: ('A' for Active; 'I' for Inactive)
REMARK    1  A    between atoms: C_6  and  C_7 
REMARK       I    between atoms: C_7  and  N_9 
REMARK    2  A    between atoms: N_9  and  C_10 
ROOT
HETATM    1  C   UNL     1       2.115   1.058   2.185  1.00  0.00     0.251 C 
HETATM    2  O   UNL     1       2.350   0.258   3.087  1.00  0.00    -0.270 OA
HETATM    3  N   UNL     1       1.059   1.956   2.180  1.00  0.00    -0.323 N 
HETATM    4  H   UNL     1       1.177   2.738   1.538  1.00  0.00     0.169 HD
ENDROOT
BRANCH   3   5
HETATM    5  C   UNL     1       0.195   2.134   3.283  1.00  0.00     0.059 A 
HETATM    6  C   UNL     1      -0.296   1.033   3.980  1.00  0.00     0.048 A 
HETATM    7  C   UNL     1      -1.097   1.257   5.080  1.00  0.00     0.090 A 
HETATM    8  N   UNL     1      -1.410   2.487   5.537  1.00  0.00    -0.368 N 
HETATM    9  C   UNL     1      -0.925   3.559   4.857  1.00  0.00     0.029 A 
ATOM     10  HN  UNL     1      -1.992   2.608   6.366  1.00  0.00     0.165 HD
HETATM   11  C   UNL     1      -1.206   4.899   5.470  1.00  0.00     0.070 C 
HETATM   12  C   UNL     1      -0.154   3.428   3.698  1.00  0.00     0.083 A 
HETATM   13 CL   UNL     1       0.445   4.809   2.846  1.00  0.00    -0.080 Cl
ENDBRANCH   3   5
BRANCH   1  14
HETATM   14  C   UNL     1       2.972   1.147   0.906  1.00  0.00     0.217 C 
HETATM   15  C   UNL     1       4.486   1.185   1.088  1.00  0.00     0.022 C 
HETATM   16  C   UNL     1       5.103   0.302   2.160  1.00  0.00     0.013 C 
HETATM   17  C   UNL     1       4.758   2.661   1.298  1.00  0.00     0.033 C 
HETATM   18  C   UNL     1       3.666   3.342   0.499  1.00  0.00     0.169 C 
HETATM   19  O   UNL     1       2.662   2.363   0.192  1.00  0.00    -0.376 OA
ENDBRANCH   1  14
TORSDOF 2
