REMARK  5 active torsions:
REMARK  status: ('A' for Active; 'I' for Inactive)
REMARK    1  A    between atoms: C_2  and  C_5 
REMARK    2  A    between atoms: C_5  and  O_6 
REMARK    3  A    between atoms: O_6  and  C_7 
REMARK    4  A    between atoms: C_10  and  N_11 
REMARK       I    between atoms: N_11  and  C_12 
REMARK       I    between atoms: C_12  and  N_14 
REMARK    5  A    between atoms: N_14  and  C_15 
ROOT
HETATM    1  N   UNL     1       6.820  -5.371   3.401  1.00  0.00    -0.308 N 
HETATM    2  C   UNL     1       6.308  -6.641   3.529  1.00  0.00     0.321 C 
HETATM    3  O   UNL     1       5.122  -6.943   3.425  1.00  0.00    -0.247 OA
HETATM    4  N   UNL     1       7.245  -7.605   3.812  1.00  0.00    -0.330 N 
HETATM    5  H   UNL     1       7.721  -5.199   3.825  1.00  0.00     0.170 HD
HETATM    6  H   UNL     1       8.238  -7.434   3.711  1.00  0.00     0.165 HD
ENDROOT
BRANCH   1   7
HETATM    7  C   UNL     1       6.036  -4.251   3.021  1.00  0.00     0.051 A 
HETATM    8  C   UNL     1       4.819  -4.381   2.349  1.00  0.00     0.035 A 
HETATM    9  C   UNL     1       4.048  -3.261   2.059  1.00  0.00     0.058 A 
HETATM   10  C   UNL     1       4.542  -2.021   2.404  1.00  0.00     0.142 A 
HETATM   11  N   UNL     1       5.733  -1.825   3.008  1.00  0.00    -0.345 N 
HETATM   12  C   UNL     1       6.447  -2.948   3.305  1.00  0.00     0.119 A 
ATOM     13  HN  UNL     1       6.079  -0.891   3.229  1.00  0.00     0.167 HD
BRANCH  10  14
HETATM   14  O   UNL     1       3.719  -0.953   2.121  1.00  0.00    -0.327 OA
BRANCH  14  15
HETATM   15  C   UNL     1       4.416   0.292   2.022  1.00  0.00     0.294 C 
BRANCH  15  16
HETATM   16  C   UNL     1       4.621   1.011   3.347  1.00  0.00     0.408 C 
HETATM   17  F   UNL     1       4.090   0.364   4.405  1.00  0.00    -0.169 F 
HETATM   18  F   UNL     1       4.029   2.234   3.301  1.00  0.00    -0.169 F 
HETATM   19  F   UNL     1       5.933   1.228   3.600  1.00  0.00    -0.169 F 
ENDBRANCH  15  16
ENDBRANCH  14  15
ENDBRANCH  10  14
ENDBRANCH   1   7
BRANCH   4  20
HETATM   20  C   UNL     1       6.795  -8.995   3.839  1.00  0.00     0.172 C 
HETATM   21  C   UNL     1       6.248  -9.376   5.226  1.00  0.00     0.034 C 
HETATM   22  C   UNL     1       5.297 -10.572   5.157  1.00  0.00     0.004 C 
HETATM   23  C   UNL     1       5.943 -11.960   5.073  1.00  0.00     0.015 C 
HETATM   24  C   UNL     1       7.303 -12.092   4.381  1.00  0.00     0.095 C 
HETATM   25  N   UNL     1       7.438 -11.258   3.206  1.00  0.00    -0.261 NA
HETATM   26  C   UNL     1       7.903  -9.971   3.447  1.00  0.00     0.220 C 
HETATM   27  H   UNL     1       6.604 -11.292   2.632  1.00  0.00     0.130 HD
HETATM   28  O   UNL     1       9.095  -9.675   3.454  1.00  0.00    -0.278 OA
ENDBRANCH   4  20
TORSDOF 5
