REMARK  4 active torsions:
REMARK  status: ('A' for Active; 'I' for Inactive)
REMARK    1  A    between atoms: O_1  and  C_2 
REMARK    2  A    between atoms: C_2  and  C_3 
REMARK    3  A    between atoms: C_2  and  C_13 
REMARK    4  A    between atoms: C_3  and  N_4 
ROOT
HETATM    1  C   UNL     1       2.261  -0.041   0.043  1.00  0.00     0.172 C 
ENDROOT
BRANCH   1   2
HETATM    2  O   UNL     1       0.831  -0.072   0.031  1.00  0.00    -0.389 OA
HETATM    3  H   UNL     1       0.531  -0.093  -0.900  1.00  0.00     0.210 HD
ENDBRANCH   1   2
BRANCH   1   4
HETATM    4  C   UNL     1       2.852   0.635  -1.223  1.00  0.00     0.169 C 
BRANCH   4   5
HETATM    5  N   UNL     1       2.443   2.038  -1.393  1.00  0.00    -0.305 N 
HETATM    6  C   UNL     1       3.266   3.048  -0.926  1.00  0.00     0.125 A 
HETATM    7  C   UNL     1       2.896   4.332  -0.938  1.00  0.00     0.117 A 
HETATM    8 CL   UNL     1       3.896   5.575  -0.309  1.00  0.00    -0.077 Cl
HETATM    9  C   UNL     1       1.559   4.680  -1.481  1.00  0.00     0.272 A 
HETATM   10  O   UNL     1       1.107   5.819  -1.478  1.00  0.00    -0.266 OA
HETATM   11  N   UNL     1       0.838   3.627  -1.982  1.00  0.00    -0.274 N 
HETATM   12  C   UNL     1       1.188   2.304  -1.925  1.00  0.00     0.329 A 
HETATM   13  H   UNL     1      -0.083   3.837  -2.336  1.00  0.00     0.173 HD
HETATM   14  O   UNL     1       0.417   1.425  -2.307  1.00  0.00    -0.246 OA
ENDBRANCH   4   5
ENDBRANCH   1   4
BRANCH   1  15
HETATM   15  C   UNL     1       2.736   0.618   1.321  1.00  0.00     0.011 A 
HETATM   16  C   UNL     1       2.008   1.649   1.940  1.00  0.00     0.016 A 
HETATM   17  C   UNL     1       2.510   2.287   3.076  1.00  0.00     0.043 A 
HETATM   18  C   UNL     1       3.733   1.886   3.604  1.00  0.00     0.119 A 
HETATM   19  F   UNL     1       4.213   2.502   4.692  1.00  0.00    -0.206 F 
HETATM   20  C   UNL     1       4.467   0.866   3.017  1.00  0.00     0.085 A 
HETATM   21  C   UNL     1       3.966   0.247   1.877  1.00  0.00     0.128 A 
HETATM   22  F   UNL     1       4.696  -0.711   1.289  1.00  0.00    -0.205 F 
ENDBRANCH   1  15
TORSDOF 4
