REMARK  3 active torsions:
REMARK  status: ('A' for Active; 'I' for Inactive)
REMARK       I    between atoms: N_2  and  C_3 
REMARK    1  A    between atoms: C_3  and  C_5 
REMARK    2  A    between atoms: C_5  and  N_6 
REMARK    3  A    between atoms: C_8  and  N_9 
ROOT
HETATM    1  N   UNL     1       5.096  -2.665   0.086  1.00  0.00    -0.293 N 
HETATM    2  C   UNL     1       5.971  -3.148   1.019  1.00  0.00     0.141 A 
HETATM    3  C   UNL     1       6.232  -4.439   0.648  1.00  0.00     0.060 A 
HETATM    4  C   UNL     1       5.487  -4.652  -0.525  1.00  0.00     0.137 A 
HETATM    5  N   UNL     1       4.795  -3.565  -0.885  1.00  0.00    -0.307 N 
ATOM      6  HN  UNL     1       4.187  -3.442  -1.695  1.00  0.00     0.186 HD
ENDROOT
BRANCH   1   7
HETATM    7  C   UNL     1       4.535  -1.325   0.029  1.00  0.00     0.250 C 
BRANCH   7   8
HETATM    8  C   UNL     1       3.025  -1.282   0.162  1.00  0.00     0.237 C 
HETATM    9  N   UNL     1       2.326  -2.290  -0.460  1.00  0.00    -0.364 N 
HETATM   10  C   UNL     1       0.891  -2.367  -0.421  1.00  0.00     0.149 C 
HETATM   11  H   UNL     1       2.861  -3.064  -0.861  1.00  0.00     0.161 HD
HETATM   12  O   UNL     1       2.463  -0.342   0.725  1.00  0.00    -0.272 OA
ENDBRANCH   7   8
ENDBRANCH   1   7
BRANCH   3  13
HETATM   13  N   UNL     1       7.036  -5.292   1.293  1.00  0.00    -0.397 N 
HETATM   14  H   UNL     1       7.582  -5.020   2.104  1.00  0.00     0.156 HD
HETATM   15  H   UNL     1       7.238  -6.225   0.947  1.00  0.00     0.156 HD
ENDBRANCH   3  13
TORSDOF 3
