REMARK  7 active torsions:
REMARK  status: ('A' for Active; 'I' for Inactive)
REMARK    1  A    between atoms: N_5  and  C_6 
REMARK    2  A    between atoms: C_6  and  C_7 
REMARK    3  A    between atoms: C_7  and  O_8 
REMARK    4  A    between atoms: C_7  and  C_9 
REMARK    5  A    between atoms: C_9  and  N_10 
REMARK    6  A    between atoms: C_11  and  C_12 
REMARK    7  A    between atoms: C_12  and  O_13 
ROOT
HETATM    1  N   UNL     1       7.317  -1.108  -4.040  1.00  0.00    -0.330 N 
HETATM    2  C   UNL     1       8.116  -1.761  -3.123  1.00  0.00     0.108 A 
HETATM    3  N   UNL     1       8.672  -2.826  -3.671  1.00  0.00    -0.342 N 
ATOM      4  HN  UNL     1       9.341  -3.461  -3.236  1.00  0.00     0.167 HD
HETATM    5  C   UNL     1       8.168  -2.905  -4.944  1.00  0.00     0.060 A 
HETATM    6  C   UNL     1       8.409  -3.860  -5.942  1.00  0.00     0.032 A 
HETATM    7  C   UNL     1       7.737  -3.745  -7.165  1.00  0.00     0.002 A 
HETATM    8  C   UNL     1       6.851  -2.693  -7.393  1.00  0.00     0.002 A 
HETATM    9  C   UNL     1       6.626  -1.714  -6.422  1.00  0.00     0.032 A 
HETATM   10  C   UNL     1       7.296  -1.853  -5.200  1.00  0.00     0.062 A 
ENDROOT
BRANCH   1  11
HETATM   11  C   UNL     1       6.677   0.177  -3.875  1.00  0.00     0.164 C 
BRANCH  11  12
HETATM   12  C   UNL     1       5.140   0.180  -3.921  1.00  0.00     0.164 C 
BRANCH  12  13
HETATM   13  C   UNL     1       4.544  -0.657  -2.760  1.00  0.00     0.305 C 
BRANCH  13  14
HETATM   14  N   UNL     1       3.074  -0.817  -2.742  1.00  0.00     0.091 N 
HETATM   15  C   UNL     1       2.305   0.427  -2.612  1.00  0.00     0.273 C 
HETATM   16  C   UNL     1       2.501   1.109  -1.254  1.00  0.00     0.034 C 
HETATM   17  C   UNL     1       2.141   0.177  -0.089  1.00  0.00    -0.015 C 
HETATM   18  C   UNL     1       0.623   0.054   0.061  1.00  0.00     0.010 C 
HETATM   19  C   UNL     1       2.807  -1.197  -0.266  1.00  0.00     0.034 C 
HETATM   20  C   UNL     1       2.657  -1.759  -1.686  1.00  0.00     0.273 C 
ENDBRANCH  13  14
ENDBRANCH  12  13
BRANCH  12  21
HETATM   21  O   UNL     1       4.744   1.560  -3.879  1.00  0.00    -0.392 OA
HETATM   22  H   UNL     1       4.654   1.824  -2.949  1.00  0.00     0.210 HD
ENDBRANCH  12  21
ENDBRANCH  11  12
ENDBRANCH   1  11
BRANCH   2  23
HETATM   23  C   UNL     1       8.306  -1.351  -1.703  1.00  0.00     0.240 C 
BRANCH  23  24
HETATM   24  O   UNL     1       9.021  -0.124  -1.681  1.00  0.00    -0.393 OA
HETATM   25  H   UNL     1       9.920  -0.338  -1.991  1.00  0.00     0.209 HD
ENDBRANCH  23  24
ENDBRANCH   2  23
TORSDOF 7
