REMARK  5 active torsions:
REMARK  status: ('A' for Active; 'I' for Inactive)
REMARK    1  A    between atoms: C_2  and  C_4 
REMARK    2  A    between atoms: C_4  and  N_5 
REMARK    3  A    between atoms: C_4  and  C_9 
REMARK       I    between atoms: N_5  and  C_6 
REMARK       I    between atoms: C_9  and  N_11 
REMARK    4  A    between atoms: N_11  and  C_12 
REMARK    5  A    between atoms: C_15  and  N_19 
ROOT
HETATM    1  C   UNL     1       6.692   1.432   2.101  1.00  0.00     0.050 A 
HETATM    2  C   UNL     1       7.449   0.305   1.819  1.00  0.00     0.035 A 
HETATM    3  C   UNL     1       8.829   0.317   2.038  1.00  0.00     0.051 A 
HETATM    4  C   UNL     1       9.464   1.450   2.545  1.00  0.00     0.103 A 
HETATM    5  N   UNL     1       8.736   2.558   2.811  1.00  0.00    -0.350 N 
ATOM      6  HN  UNL     1       9.185   3.402   3.166  1.00  0.00     0.166 HD
HETATM    7  C   UNL     1       7.389   2.524   2.595  1.00  0.00     0.119 A 
ENDROOT
BRANCH   1   8
HETATM    8  N   UNL     1       5.289   1.482   1.949  1.00  0.00    -0.324 N 
HETATM    9  C   UNL     1       4.509   0.554   1.275  1.00  0.00     0.245 C 
HETATM   10  O   UNL     1       4.922  -0.367   0.573  1.00  0.00    -0.271 OA
HETATM   11  H   UNL     1       4.804   2.296   2.334  1.00  0.00     0.169 HD
BRANCH   9  12
HETATM   12  C   UNL     1       2.987   0.729   1.477  1.00  0.00     0.180 C 
BRANCH  12  13
HETATM   13  C   UNL     1       2.551   0.506   2.947  1.00  0.00     0.009 C 
HETATM   14  C   UNL     1       1.032   0.625   3.108  1.00  0.00     0.012 C 
HETATM   15  C   UNL     1       2.997  -0.872   3.457  1.00  0.00     0.012 C 
ENDBRANCH  12  13
BRANCH  12  16
HETATM   16  N   UNL     1       2.540   1.984   0.857  1.00  0.00    -0.348 N 
HETATM   17  C   UNL     1       2.704   3.224   1.419  1.00  0.00     0.214 C 
HETATM   18  O   UNL     1       3.255   3.400   2.502  1.00  0.00    -0.274 OA
HETATM   19  C   UNL     1       2.220   4.368   0.572  1.00  0.00     0.117 C 
HETATM   20  H   UNL     1       2.372   1.945  -0.142  1.00  0.00     0.163 HD
ENDBRANCH  12  16
ENDBRANCH   9  12
ENDBRANCH   1   8
BRANCH   4  21
HETATM   21  N   UNL     1      10.836   1.469   2.714  1.00  0.00    -0.363 N 
HETATM   22  C   UNL     1      11.572   0.289   3.193  1.00  0.00     0.150 C 
HETATM   23  C   UNL     1      12.079   0.503   4.629  1.00  0.00     0.187 C 
HETATM   24  O   UNL     1      12.842   1.713   4.749  1.00  0.00    -0.388 OA
HETATM   25  C   UNL     1      12.023   2.843   4.400  1.00  0.00     0.187 C 
HETATM   26  C   UNL     1      11.520   2.748   2.954  1.00  0.00     0.150 C 
ENDBRANCH   4  21
TORSDOF 5
