REMARK  4 active torsions:
REMARK  status: ('A' for Active; 'I' for Inactive)
REMARK    1  A    between atoms: C_2  and  N_3 
REMARK    2  A    between atoms: C_5  and  N_6 
REMARK       I    between atoms: N_6  and  C_7 
REMARK       I    between atoms: C_7  and  N_9 
REMARK    3  A    between atoms: N_9  and  C_10 
REMARK    4  A    between atoms: C_10  and  C_11 
ROOT
HETATM    1  N   UNL     1       4.214   0.177   4.623  1.00  0.00    -0.306 N 
HETATM    2  C   UNL     1       4.488   1.506   4.860  1.00  0.00     0.320 C 
HETATM    3  O   UNL     1       4.282   2.435   4.088  1.00  0.00    -0.247 OA
HETATM    4  N   UNL     1       5.088   1.705   6.085  1.00  0.00    -0.340 N 
HETATM    5  H   UNL     1       4.458  -0.498   5.331  1.00  0.00     0.171 HD
HETATM    6  H   UNL     1       4.874   1.056   6.829  1.00  0.00     0.164 HD
ENDROOT
BRANCH   1   7
HETATM    7  C   UNL     1       3.676  -0.304   3.441  1.00  0.00     0.070 A 
HETATM    8  C   UNL     1       3.322   0.411   2.323  1.00  0.00     0.141 A 
HETATM    9  N   UNL     1       2.837  -0.487   1.421  1.00  0.00    -0.302 N 
HETATM   10  N   UNL     1       2.856  -1.758   1.868  1.00  0.00    -0.308 N 
HETATM   11  C   UNL     1       3.367  -1.641   3.100  1.00  0.00     0.138 A 
ATOM     12  HN  UNL     1       2.554  -2.604   1.385  1.00  0.00     0.186 HD
BRANCH   9  13
HETATM   13  C   UNL     1       2.320  -0.171   0.104  1.00  0.00     0.143 C 
HETATM   14  C   UNL     1       0.829   0.116   0.137  1.00  0.00     0.028 C 
ENDBRANCH   9  13
ENDBRANCH   1   7
BRANCH   4  15
HETATM   15  C   UNL     1       5.393   3.064   6.508  1.00  0.00     0.156 C 
BRANCH  15  16
HETATM   16  C   UNL     1       6.543   3.135   7.507  1.00  0.00     0.139 C 
HETATM   17  C   UNL     1       7.871   2.597   6.995  1.00  0.00     0.035 C 
HETATM   18  C   UNL     1       8.516   1.970   8.214  1.00  0.00     0.029 C 
HETATM   19  C   UNL     1       7.511   2.161   9.331  1.00  0.00     0.168 C 
HETATM   20  O   UNL     1       6.249   2.370   8.689  1.00  0.00    -0.384 OA
ENDBRANCH  15  16
ENDBRANCH   4  15
TORSDOF 4
