REMARK  4 active torsions:
REMARK  status: ('A' for Active; 'I' for Inactive)
REMARK    1  A    between atoms: C_2  and  N_3 
REMARK    2  A    between atoms: C_7  and  N_9 
REMARK       I    between atoms: N_9  and  C_10 
REMARK       I    between atoms: C_10  and  N_12 
REMARK    3  A    between atoms: N_12  and  C_13 
REMARK    4  A    between atoms: C_15  and  C_20 
ROOT
HETATM    1  N   UNL     1       6.732   0.489   0.345  1.00  0.00    -0.337 N 
HETATM    2  C   UNL     1       7.134  -0.705  -0.191  1.00  0.00     0.321 C 
HETATM    3  O   UNL     1       6.400  -1.386  -0.899  1.00  0.00    -0.247 OA
HETATM    4  N   UNL     1       8.419  -1.060   0.155  1.00  0.00    -0.304 N 
HETATM    5  H   UNL     1       7.363   1.022   0.926  1.00  0.00     0.164 HD
HETATM    6  H   UNL     1       8.656  -0.869   1.124  1.00  0.00     0.171 HD
ENDROOT
BRANCH   4   7
HETATM    7  C   UNL     1       8.958  -2.240  -0.328  1.00  0.00     0.105 A 
HETATM    8  C   UNL     1       8.878  -2.631  -1.611  1.00  0.00     0.052 A 
HETATM    9  C   UNL     1       9.282  -3.961  -2.035  1.00  0.00     0.065 A 
HETATM   10  C   UNL     1       9.741  -4.817  -1.104  1.00  0.00     0.107 A 
HETATM   11  N   UNL     1       9.881  -4.429   0.207  1.00  0.00    -0.331 N 
HETATM   12  C   UNL     1       9.564  -3.175   0.677  1.00  0.00     0.272 A 
HETATM   13  H   UNL     1      10.224  -5.085   0.899  1.00  0.00     0.168 HD
HETATM   14  O   UNL     1       9.714  -2.839   1.849  1.00  0.00    -0.266 OA
BRANCH   9  15
HETATM   15  C   UNL     1       9.110  -4.356  -3.474  1.00  0.00     0.418 C 
HETATM   16  F   UNL     1       8.638  -3.351  -4.258  1.00  0.00    -0.166 F 
HETATM   17  F   UNL     1      10.289  -4.749  -4.022  1.00  0.00    -0.166 F 
HETATM   18  F   UNL     1       8.252  -5.399  -3.610  1.00  0.00    -0.166 F 
ENDBRANCH   9  15
ENDBRANCH   4   7
BRANCH   1  19
HETATM   19  C   UNL     1       5.349   0.909   0.172  1.00  0.00     0.114 C 
HETATM   20  C   UNL     1       5.225   2.425   0.034  1.00  0.00     0.029 C 
HETATM   21  C   UNL     1       3.754   2.817  -0.111  1.00  0.00     0.032 C 
HETATM   22  C   UNL     1       2.906   2.231   1.022  1.00  0.00     0.272 C 
HETATM   23  N   UNL     1       3.015   0.772   1.165  1.00  0.00     0.090 N 
HETATM   24  C   UNL     1       4.437   0.387   1.310  1.00  0.00     0.297 C 
BRANCH  23  25
HETATM   25  C   UNL     1       2.380   0.002   0.080  1.00  0.00     0.268 C 
HETATM   26  C   UNL     1       0.876   0.223  -0.051  1.00  0.00     0.037 C 
ENDBRANCH  23  25
ENDBRANCH   1  19
TORSDOF 4
