REMARK  5 active torsions:
REMARK  status: ('A' for Active; 'I' for Inactive)
REMARK    1  A    between atoms: C_7  and  C_8 
REMARK    2  A    between atoms: C_8  and  C_9 
REMARK    3  A    between atoms: C_9  and  N_10 
REMARK       I    between atoms: N_10  and  C_11 
REMARK       I    between atoms: C_11  and  N_13 
REMARK    4  A    between atoms: N_13  and  C_14 
REMARK    5  A    between atoms: C_14  and  C_15 
ROOT
HETATM    1  N   UNL     1       8.913   0.515  -0.207  1.00  0.00    -0.343 N 
HETATM    2  C   UNL     1       9.924  -0.413  -0.128  1.00  0.00     0.316 C 
HETATM    3  O   UNL     1       9.733  -1.618  -0.027  1.00  0.00    -0.247 OA
HETATM    4  N   UNL     1      11.170   0.146  -0.192  1.00  0.00    -0.343 N 
HETATM    5  H   UNL     1       9.130   1.402   0.223  1.00  0.00     0.164 HD
HETATM    6  H   UNL     1      11.245   1.104  -0.498  1.00  0.00     0.164 HD
ENDROOT
BRANCH   1   7
HETATM    7  C   UNL     1       7.552   0.015  -0.072  1.00  0.00     0.129 C 
BRANCH   7   8
HETATM    8  C   UNL     1       6.469   1.091  -0.163  1.00  0.00     0.068 C 
BRANCH   8   9
HETATM    9  C   UNL     1       5.098   0.492  -0.010  1.00  0.00     0.008 A 
HETATM   10  C   UNL     1       4.224   0.007  -0.972  1.00  0.00     0.019 A 
HETATM   11  N   UNL     1       3.037  -0.508  -0.474  1.00  0.00    -0.357 N 
HETATM   12  C   UNL     1       4.423  -0.027  -2.444  1.00  0.00     0.069 C 
HETATM   13  C   UNL     1       3.013  -0.422   0.837  1.00  0.00     0.047 A 
ATOM     14  HN  UNL     1       2.288  -0.899  -1.045  1.00  0.00     0.166 HD
HETATM   15  C   UNL     1       1.887  -0.898   1.685  1.00  0.00     0.076 C 
HETATM   16  S   UNL     1       4.399   0.295   1.549  1.00  0.00    -0.080 SA
ENDBRANCH   8   9
ENDBRANCH   7   8
ENDBRANCH   1   7
BRANCH   4  17
HETATM   17  C   UNL     1      12.367  -0.680  -0.156  1.00  0.00     0.131 C 
BRANCH  17  18
HETATM   18  C   UNL     1      12.861  -1.171  -1.517  1.00  0.00     0.029 C 
HETATM   19  C   UNL     1      13.266  -0.080  -2.493  1.00  0.00     0.034 C 
HETATM   20  C   UNL     1      12.964  -0.667  -3.862  1.00  0.00     0.168 C 
HETATM   21  O   UNL     1      12.420  -1.976  -3.659  1.00  0.00    -0.391 OA
HETATM   22  C   UNL     1      11.889  -2.006  -2.326  1.00  0.00     0.173 C 
ENDBRANCH  17  18
ENDBRANCH   4  17
TORSDOF 5
