REMARK  4 active torsions:
REMARK  status: ('A' for Active; 'I' for Inactive)
REMARK    1  A    between atoms: C_2  and  N_3 
REMARK    2  A    between atoms: C_2  and  C_21 
REMARK       I    between atoms: N_3  and  C_4 
REMARK       I    between atoms: C_4  and  N_6 
REMARK    3  A    between atoms: N_6  and  C_7 
REMARK    4  A    between atoms: C_10  and  N_15 
ROOT
HETATM    1  C   UNL     1       2.654   3.611  -3.475  1.00  0.00     0.058 A 
HETATM    2  C   UNL     1       2.138   2.878  -4.538  1.00  0.00     0.035 A 
HETATM    3  C   UNL     1       1.869   3.479  -5.764  1.00  0.00     0.051 A 
HETATM    4  C   UNL     1       2.131   4.824  -5.958  1.00  0.00     0.103 A 
HETATM    5  N   UNL     1       2.654   5.555  -4.949  1.00  0.00    -0.344 N 
ATOM      6  HN  UNL     1       2.872   6.541  -5.092  1.00  0.00     0.167 HD
HETATM    7  C   UNL     1       2.891   4.969  -3.733  1.00  0.00     0.034 A 
HETATM    8  C   UNL     1       3.413   5.907  -2.683  1.00  0.00     0.070 C 
ENDROOT
BRANCH   1   9
HETATM    9  N   UNL     1       2.922   3.017  -2.208  1.00  0.00    -0.307 N 
HETATM   10  C   UNL     1       2.660   1.706  -1.867  1.00  0.00     0.321 C 
HETATM   11  N   UNL     1       2.974   1.410  -0.555  1.00  0.00    -0.338 N 
HETATM   12  O   UNL     1       2.161   0.854  -2.594  1.00  0.00    -0.247 OA
HETATM   13  H   UNL     1       3.735   1.918  -0.132  1.00  0.00     0.164 HD
HETATM   14  H   UNL     1       3.245   3.619  -1.467  1.00  0.00     0.170 HD
BRANCH  11  15
HETATM   15  C   UNL     1       2.678   0.068  -0.050  1.00  0.00     0.086 C 
HETATM   16  C   UNL     1       2.304   0.116   1.423  1.00  0.00     0.032 C 
BRANCH  15  17
HETATM   17  C   UNL     1       3.883  -0.825  -0.368  1.00  0.00     0.008 C 
HETATM   18  C   UNL     1       3.723  -2.341  -0.065  1.00  0.00     0.007 C 
HETATM   19  C   UNL     1       5.206  -2.370   0.342  1.00  0.00     0.001 C 
HETATM   20  C   UNL     1       5.137  -0.845   0.548  1.00  0.00     0.007 C 
ENDBRANCH  15  17
ENDBRANCH  11  15
ENDBRANCH   1   9
BRANCH   4  21
HETATM   21  N   UNL     1       1.869   5.423  -7.164  1.00  0.00    -0.363 N 
HETATM   22  C   UNL     1       2.653   6.571  -7.618  1.00  0.00     0.150 C 
HETATM   23  C   UNL     1       1.716   7.713  -8.031  1.00  0.00     0.187 C 
HETATM   24  O   UNL     1       0.740   7.278  -8.996  1.00  0.00    -0.388 OA
HETATM   25  C   UNL     1      -0.065   6.225  -8.442  1.00  0.00     0.187 C 
HETATM   26  C   UNL     1       0.785   5.004  -8.054  1.00  0.00     0.150 C 
ENDBRANCH   4  21
TORSDOF 4
