REMARK  3 active torsions:
REMARK  status: ('A' for Active; 'I' for Inactive)
REMARK    1  A    between atoms: C_7  and  C_8 
REMARK    2  A    between atoms: C_8  and  C_9 
REMARK       I    between atoms: C_9  and  N_11 
REMARK    3  A    between atoms: N_11  and  C_12 
ROOT
HETATM    1  C   UNL     1       7.056   0.169  -0.310  1.00  0.00     0.149 C 
ENDROOT
BRANCH   1   2
HETATM    2  C   UNL     1       6.103   0.346   0.837  1.00  0.00     0.041 A 
HETATM    3  C   UNL     1       4.755   0.256   0.807  1.00  0.00     0.018 A 
HETATM    4  N   UNL     1       3.941   0.544   1.883  1.00  0.00    -0.349 N 
HETATM    5  C   UNL     1       3.992  -0.167  -0.422  1.00  0.00     0.069 C 
HETATM    6  C   UNL     1       4.494   0.948   2.975  1.00  0.00     0.080 A 
ATOM      7  HN  UNL     1       2.929   0.440   1.816  1.00  0.00     0.167 HD
HETATM    8  C   UNL     1       3.661   1.305   4.170  1.00  0.00     0.089 C 
HETATM    9  N   UNL     1       5.842   1.088   3.119  1.00  0.00    -0.313 N 
HETATM   10  C   UNL     1       6.712   0.773   2.118  1.00  0.00     0.255 A 
HETATM   11  H   UNL     1       6.246   1.398   3.989  1.00  0.00     0.170 HD
HETATM   12  O   UNL     1       7.928   0.860   2.262  1.00  0.00    -0.268 OA
ENDBRANCH   1   2
BRANCH   1  13
HETATM   13  C   UNL     1       7.596  -1.250  -0.401  1.00  0.00     0.222 C 
HETATM   14  O   UNL     1       6.971  -2.131  -0.989  1.00  0.00    -0.273 OA
HETATM   15  N   UNL     1       8.823  -1.472   0.194  1.00  0.00    -0.356 N 
HETATM   16  H   UNL     1       9.301  -0.694   0.640  1.00  0.00     0.162 HD
BRANCH  15  17
HETATM   17  C   UNL     1       9.516  -2.759   0.065  1.00  0.00     0.084 C 
HETATM   18  C   UNL     1      10.291  -3.097   1.350  1.00  0.00     0.025 C 
HETATM   19  C   UNL     1      10.632  -4.587   1.448  1.00  0.00     0.002 C 
HETATM   20  C   UNL     1      11.932  -5.017   0.773  1.00  0.00     0.000 C 
HETATM   21  C   UNL     1      12.295  -4.335  -0.542  1.00  0.00     0.000 C 
HETATM   22  C   UNL     1      11.121  -4.074  -1.480  1.00  0.00     0.002 C 
HETATM   23  C   UNL     1      10.400  -2.754  -1.191  1.00  0.00     0.025 C 
ENDBRANCH  15  17
ENDBRANCH   1  13
TORSDOF 3
