REMARK  5 active torsions:
REMARK  status: ('A' for Active; 'I' for Inactive)
REMARK       I    between atoms: N_2  and  C_3 
REMARK    1  A    between atoms: C_3  and  C_5 
REMARK    2  A    between atoms: C_5  and  N_6 
REMARK    3  A    between atoms: C_9  and  N_12 
REMARK       I    between atoms: N_12  and  C_13 
REMARK    4  A    between atoms: C_13  and  C_15 
REMARK    5  A    between atoms: C_15  and  N_16 
ROOT
HETATM    1  N   UNL     1       5.270   1.723   1.874  1.00  0.00     0.097 N 
HETATM    2  C   UNL     1       5.049   3.129   1.493  1.00  0.00     0.275 C 
HETATM    3  C   UNL     1       5.797   3.566   0.233  1.00  0.00     0.055 C 
HETATM    4  C   UNL     1       7.296   3.276   0.326  1.00  0.00     0.087 C 
HETATM    5  C   UNL     1       7.549   1.836   0.781  1.00  0.00     0.055 C 
HETATM    6  C   UNL     1       6.713   1.458   2.010  1.00  0.00     0.275 C 
ENDROOT
BRANCH   4   7
HETATM    7  N   UNL     1       7.958   4.237   1.206  1.00  0.00    -0.355 N 
HETATM    8  C   UNL     1       9.035   5.001   0.803  1.00  0.00     0.236 C 
HETATM    9  O   UNL     1       9.541   4.928  -0.315  1.00  0.00    -0.272 OA
HETATM   10  H   UNL     1       7.743   4.219   2.200  1.00  0.00     0.162 HD
BRANCH   8  11
HETATM   11  C   UNL     1       9.599   5.918   1.888  1.00  0.00     0.234 C 
BRANCH  11  12
HETATM   12  N   UNL     1      10.731   5.288   2.558  1.00  0.00    -0.316 N 
HETATM   13  C   UNL     1      12.007   5.450   2.043  1.00  0.00     0.095 A 
HETATM   14  C   UNL     1      13.067   4.882   2.630  1.00  0.00     0.017 A 
HETATM   15  C   UNL     1      12.889   4.095   3.825  1.00  0.00     0.007 A 
HETATM   16  C   UNL     1      11.666   3.899   4.337  1.00  0.00     0.074 A 
HETATM   17  C   UNL     1      10.474   4.495   3.673  1.00  0.00     0.247 A 
HETATM   18  O   UNL     1       9.350   4.272   4.116  1.00  0.00    -0.268 OA
ENDBRANCH  11  12
ENDBRANCH   8  11
ENDBRANCH   4   7
BRANCH   1  19
HETATM   19  C   UNL     1       4.637   0.766   0.933  1.00  0.00     0.374 C 
BRANCH  19  20
HETATM   20  C   UNL     1       3.114   0.925   0.903  1.00  0.00     0.245 C 
HETATM   21  N   UNL     1       2.506   0.720   2.123  1.00  0.00    -0.364 N 
HETATM   22  C   UNL     1       1.087   0.903   2.281  1.00  0.00     0.149 C 
HETATM   23  H   UNL     1       3.112   0.748   2.937  1.00  0.00     0.161 HD
HETATM   24  O   UNL     1       2.498   1.189  -0.127  1.00  0.00    -0.272 OA
ENDBRANCH  19  20
ENDBRANCH   1  19
TORSDOF 5
