REMARK  4 active torsions:
REMARK  status: ('A' for Active; 'I' for Inactive)
REMARK    1  A    between atoms: C_2  and  C_4 
REMARK    2  A    between atoms: C_4  and  N_6 
REMARK       I    between atoms: N_6  and  C_7 
REMARK       I    between atoms: C_7  and  N_9 
REMARK    3  A    between atoms: N_9  and  C_10 
REMARK    4  A    between atoms: C_15  and  C_17 
ROOT
HETATM    1  N   UNL     1       4.669  -1.458   0.971  1.00  0.00    -0.338 N 
HETATM    2  C   UNL     1       5.220  -2.554   1.618  1.00  0.00     0.322 C 
HETATM    3  O   UNL     1       4.520  -3.459   2.056  1.00  0.00    -0.247 OA
HETATM    4  N   UNL     1       6.583  -2.454   1.740  1.00  0.00    -0.288 N 
HETATM    5  H   UNL     1       5.236  -1.036   0.249  1.00  0.00     0.164 HD
HETATM    6  H   UNL     1       7.029  -1.559   1.631  1.00  0.00     0.172 HD
ENDROOT
BRANCH   4   7
HETATM    7  C   UNL     1       7.283  -3.444   2.386  1.00  0.00     0.169 A 
HETATM    8  N   UNL     1       6.905  -4.660   2.710  1.00  0.00    -0.279 N 
HETATM    9  N   UNL     1       7.865  -5.321   3.447  1.00  0.00    -0.296 N 
ATOM     10  HN  UNL     1       6.007  -5.067   2.447  1.00  0.00     0.189 HD
HETATM   11  C   UNL     1       8.932  -4.578   3.638  1.00  0.00     0.074 A 
ATOM     12  HN  UNL     1       7.760  -6.272   3.801  1.00  0.00     0.187 HD
HETATM   13  S   UNL     1       8.876  -3.044   2.864  1.00  0.00    -0.037 SA
BRANCH  11  14
HETATM   14  C   UNL     1      10.099  -5.034   4.515  1.00  0.00     0.044 A 
HETATM   15  C   UNL     1      10.386  -6.516   4.659  1.00  0.00     0.012 A 
HETATM   16  C   UNL     1       9.754  -5.784   5.791  1.00  0.00     0.012 A 
ENDBRANCH  11  14
ENDBRANCH   4   7
BRANCH   1  17
HETATM   17  C   UNL     1       3.214  -1.396   0.797  1.00  0.00     0.085 C 
HETATM   18  C   UNL     1       2.799  -2.257  -0.403  1.00  0.00     0.032 C 
BRANCH  17  19
HETATM   19  C   UNL     1       2.704   0.063   0.673  1.00  0.00    -0.000 C 
HETATM   20  C   UNL     1       1.169   0.119   0.647  1.00  0.00     0.011 C 
HETATM   21  C   UNL     1       3.200   0.939   1.830  1.00  0.00     0.011 C 
ENDBRANCH  17  19
ENDBRANCH   1  17
TORSDOF 4
