REMARK  4 active torsions:
REMARK  status: ('A' for Active; 'I' for Inactive)
REMARK       I    between atoms: N_1  and  C_2 
REMARK    1  A    between atoms: C_2  and  C_4 
REMARK    2  A    between atoms: C_4  and  C_5 
REMARK    3  A    between atoms: C_8  and  N_9 
REMARK       I    between atoms: N_9  and  C_10 
REMARK    4  A    between atoms: C_10  and  C_12 
ROOT
HETATM    1  C   UNL     1       4.537  -0.482   0.272  1.00  0.00     0.026 A 
HETATM    2  C   UNL     1       5.132   0.719  -0.073  1.00  0.00     0.078 A 
HETATM    3  S   UNL     1       6.823   0.498  -0.288  1.00  0.00    -0.064 SA
HETATM    4  C   UNL     1       6.623  -1.165   0.023  1.00  0.00     0.151 A 
HETATM    5  N   UNL     1       5.415  -1.557   0.324  1.00  0.00    -0.339 N 
ATOM      6  HN  UNL     1       5.154  -2.514   0.563  1.00  0.00     0.168 HD
ENDROOT
BRANCH   4   7
HETATM    7  N   UNL     1       7.767  -1.910  -0.068  1.00  0.00    -0.307 N 
HETATM    8  C   UNL     1       7.729  -3.285  -0.062  1.00  0.00     0.228 C 
HETATM    9  O   UNL     1       6.712  -3.979  -0.082  1.00  0.00    -0.273 OA
HETATM   10  H   UNL     1       8.631  -1.414  -0.228  1.00  0.00     0.171 HD
BRANCH   8  11
HETATM   11  C   UNL     1       9.107  -3.944  -0.049  1.00  0.00     0.082 C 
HETATM   12  C   UNL     1       9.829  -3.652   1.279  1.00  0.00     0.018 C 
HETATM   13  C   UNL     1      11.171  -2.922   1.242  1.00  0.00     0.027 C 
HETATM   14  C   UNL     1      11.783  -2.714  -0.097  1.00  0.00    -0.031 C 
HETATM   15  C   UNL     1      11.199  -3.041  -1.252  1.00  0.00    -0.030 C 
HETATM   16  C   UNL     1       9.850  -3.666  -1.364  1.00  0.00     0.041 C 
ENDBRANCH   8  11
ENDBRANCH   4   7
BRANCH   1  17
HETATM   17  C   UNL     1       3.098  -0.716   0.606  1.00  0.00     0.160 C 
BRANCH  17  18
HETATM   18  C   UNL     1       2.412  -1.721  -0.301  1.00  0.00     0.221 C 
HETATM   19  N   UNL     1       3.137  -2.806  -0.692  1.00  0.00    -0.370 N 
HETATM   20  H   UNL     1       2.716  -3.506  -1.285  1.00  0.00     0.159 HD
HETATM   21  H   UNL     1       4.123  -2.903  -0.440  1.00  0.00     0.159 HD
HETATM   22  O   UNL     1       1.227  -1.618  -0.615  1.00  0.00    -0.273 OA
ENDBRANCH  17  18
ENDBRANCH   1  17
TORSDOF 4
