REMARK  5 active torsions:
REMARK  status: ('A' for Active; 'I' for Inactive)
REMARK    1  A    between atoms: C_6  and  C_7 
REMARK    2  A    between atoms: C_7  and  N_8 
REMARK    3  A    between atoms: N_8  and  C_9 
REMARK    4  A    between atoms: C_9  and  C_10 
REMARK    5  A    between atoms: C_10  and  C_11 
ROOT
HETATM    1  N   UNL     1       2.681  -3.540  -3.389  1.00  0.00     0.086 N 
HETATM    2  H   UNL     1       3.013  -2.865  -4.084  1.00  0.00     0.315 HD
ENDROOT
BRANCH   1   3
HETATM    3  C   UNL     1       3.152  -3.077  -2.074  1.00  0.00     0.303 C 
BRANCH   3   4
HETATM    4  C   UNL     1       2.598  -1.682  -1.757  1.00  0.00     0.177 C 
HETATM    5  O   UNL     1       3.125  -0.734  -2.708  1.00  0.00    -0.381 OA
HETATM    6  C   UNL     1       2.615   0.576  -2.427  1.00  0.00     0.198 C 
HETATM    7  C   UNL     1       2.970   1.024  -0.997  1.00  0.00     0.298 C 
HETATM    8  N   UNL     1       2.557   0.078   0.062  1.00  0.00     0.088 N 
HETATM    9  C   UNL     1       1.114   0.120   0.300  1.00  0.00     0.310 C 
HETATM   10  C   UNL     1       3.002  -1.278  -0.320  1.00  0.00     0.305 C 
ENDBRANCH   3   4
ENDBRANCH   1   3
BRANCH   1  11
HETATM   11  C   UNL     1       3.193  -4.879  -3.716  1.00  0.00     0.275 C 
BRANCH  11  12
HETATM   12  C   UNL     1       2.629  -5.952  -2.780  1.00  0.00     0.087 C 
BRANCH  12  13
HETATM   13  C   UNL     1       3.114  -7.331  -3.123  1.00  0.00     0.010 A 
HETATM   14  C   UNL     1       2.381  -8.148  -3.977  1.00  0.00     0.025 A 
HETATM   15  C   UNL     1       2.827  -9.445  -4.203  1.00  0.00     0.003 A 
HETATM   16  C   UNL     1       3.989  -9.885  -3.579  1.00  0.00     0.017 A 
HETATM   17  C   UNL     1       4.669  -9.001  -2.761  1.00  0.00     0.088 A 
HETATM   18  N   UNL     1       4.260  -7.736  -2.527  1.00  0.00    -0.369 N 
ATOM     19  HN  UNL     1       4.794  -7.110  -1.924  1.00  0.00     0.165 HD
ENDBRANCH  12  13
ENDBRANCH  11  12
ENDBRANCH   1  11
TORSDOF 5
