REMARK  7 active torsions:
REMARK  status: ('A' for Active; 'I' for Inactive)
REMARK    1  A    between atoms: N_1  and  C_10 
REMARK    2  A    between atoms: N_2  and  C_8 
REMARK    3  A    between atoms: C_7  and  O_11 
REMARK    4  A    between atoms: C_10  and  C_20 
REMARK    5  A    between atoms: O_11  and  C_21 
REMARK    6  A    between atoms: C_20  and  C_21 
REMARK    7  A    between atoms: C_20  and  O_22 
ROOT
HETATM    1  C   UNL     1      -1.410   2.274  -0.184  1.00  0.00     0.171 C 
ENDROOT
BRANCH   1   2
HETATM    2  N   UNL     1      -0.652   1.016  -0.116  1.00  0.00    -0.261 N 
HETATM    3  C   UNL     1      -1.198  -0.192  -0.551  1.00  0.00     0.333 C 
HETATM    4  N   UNL     1      -0.443  -1.334  -0.272  1.00  0.00    -0.279 N 
HETATM    5  O   UNL     1      -2.291  -0.274  -1.111  1.00  0.00    -0.246 OA
HETATM    6  C   UNL     1       0.880  -1.257   0.113  1.00  0.00     0.146 C 
HETATM    7  C   UNL     1       1.472  -0.088   0.310  1.00  0.00     0.200 C 
HETATM    8  C   UNL     1       0.700   1.160   0.192  1.00  0.00     0.291 C 
HETATM    9  F   UNL     1       2.766   0.006   0.680  1.00  0.00    -0.199 F 
HETATM   10  O   UNL     1       1.261   2.243   0.355  1.00  0.00    -0.264 OA
BRANCH   4  11
HETATM   11  C   UNL     1      -1.140  -2.611  -0.313  1.00  0.00     0.232 C 
HETATM   12  O   UNL     1      -0.643  -3.490   0.715  1.00  0.00    -0.366 OA
HETATM   13  C   UNL     1      -0.911  -4.838   0.297  1.00  0.00     0.170 C 
HETATM   14  C   UNL     1      -1.496  -4.770  -1.103  1.00  0.00     0.031 C 
HETATM   15  C   UNL     1      -1.029  -3.416  -1.595  1.00  0.00     0.056 C 
ENDBRANCH   4  11
ENDBRANCH   1   2
BRANCH   1  16
HETATM   16  C   UNL     1      -2.950   2.267  -0.109  1.00  0.00     0.161 C 
BRANCH  16  17
HETATM   17  C   UNL     1      -3.542   1.552   1.111  1.00  0.00     0.209 C 
BRANCH  17  18
HETATM   18  O   UNL     1      -3.045   2.108   2.345  1.00  0.00    -0.347 OA
BRANCH  18  19
HETATM   19  C   UNL     1      -4.011   2.195   3.328  1.00  0.00     0.081 C 
HETATM   20  C   UNL     1      -4.808   1.095   3.732  1.00  0.00    -0.022 C 
HETATM   21  C   UNL     1      -5.895   1.320   4.611  1.00  0.00    -0.053 C 
HETATM   22  C   UNL     1      -4.513  -0.319   3.305  1.00  0.00     0.052 C 
HETATM   23  C   UNL     1      -6.094   2.597   5.151  1.00  0.00     0.008 C 
HETATM   24  C   UNL     1      -6.911   0.260   4.954  1.00  0.00     0.049 C 
HETATM   25  C   UNL     1      -5.220   3.637   4.853  1.00  0.00     0.010 C 
HETATM   26  C   UNL     1      -4.169   3.450   3.945  1.00  0.00    -0.028 C 
HETATM   27  C   UNL     1      -3.267   4.626   3.688  1.00  0.00     0.051 C 
ENDBRANCH  18  19
ENDBRANCH  17  18
ENDBRANCH  16  17
BRANCH  16  28
HETATM   28  O   UNL     1      -3.409   3.633  -0.112  1.00  0.00    -0.392 OA
HETATM   29  H   UNL     1      -3.303   3.966   0.798  1.00  0.00     0.210 HD
ENDBRANCH  16  28
ENDBRANCH   1  16
TORSDOF 7
