REMARK  5 active torsions:
REMARK  status: ('A' for Active; 'I' for Inactive)
REMARK    1  A    between atoms: C_2  and  C_5 
REMARK    2  A    between atoms: C_9  and  N_10 
REMARK       I    between atoms: N_10  and  C_11 
REMARK       I    between atoms: C_11  and  N_13 
REMARK    3  A    between atoms: N_13  and  C_14 
REMARK    4  A    between atoms: C_16  and  C_17 
REMARK    5  A    between atoms: C_17  and  O_18 
ROOT
HETATM    1  N   UNL     1       1.116  -4.772  -1.496  1.00  0.00    -0.289 N 
HETATM    2  C   UNL     1       0.314  -5.540  -0.702  1.00  0.00     0.322 C 
HETATM    3  O   UNL     1       0.623  -6.701  -0.450  1.00  0.00    -0.247 OA
HETATM    4  N   UNL     1      -0.840  -4.965  -0.281  1.00  0.00    -0.335 N 
HETATM    5  H   UNL     1       1.916  -5.225  -1.910  1.00  0.00     0.172 HD
HETATM    6  H   UNL     1      -0.899  -3.956  -0.389  1.00  0.00     0.164 HD
ENDROOT
BRANCH   1   7
HETATM    7  C   UNL     1       0.894  -3.452  -1.773  1.00  0.00     0.152 A 
HETATM    8  N   UNL     1      -0.010  -2.670  -1.236  1.00  0.00    -0.345 N 
HETATM    9  C   UNL     1       0.117  -1.403  -1.763  1.00  0.00     0.105 A 
ATOM     10  HN  UNL     1      -0.698  -2.954  -0.539  1.00  0.00     0.167 HD
HETATM   11  C   UNL     1       1.105  -1.236  -2.721  1.00  0.00     0.009 A 
HETATM   12  S   UNL     1       1.909  -2.756  -2.938  1.00  0.00    -0.056 SA
BRANCH  11  13
HETATM   13  C   UNL     1       1.514   0.012  -3.495  1.00  0.00    -0.016 C 
HETATM   14  C   UNL     1       0.745   1.254  -2.993  1.00  0.00     0.020 C 
HETATM   15  C   UNL     1       1.202  -0.159  -4.993  1.00  0.00     0.020 C 
HETATM   16  C   UNL     1       3.018   0.285  -3.303  1.00  0.00     0.020 C 
ENDBRANCH  11  13
ENDBRANCH   1   7
BRANCH   4  17
HETATM   17  C   UNL     1      -1.827  -5.602   0.538  1.00  0.00     0.109 C 
HETATM   18  C   UNL     1      -1.570  -5.385   2.034  1.00  0.00     0.040 C 
HETATM   19  C   UNL     1      -2.942  -5.058   2.648  1.00  0.00     0.034 C 
HETATM   20  C   UNL     1      -3.711  -4.542   1.464  1.00  0.00    -0.022 C 
HETATM   21  C   UNL     1      -3.111  -4.868   0.316  1.00  0.00    -0.005 C 
BRANCH  19  22
HETATM   22  C   UNL     1      -2.825  -4.064   3.805  1.00  0.00     0.172 C 
BRANCH  22  23
HETATM   23  O   UNL     1      -4.094  -3.839   4.412  1.00  0.00    -0.400 OA
HETATM   24  H   UNL     1      -4.654  -3.396   3.751  1.00  0.00     0.209 HD
ENDBRANCH  22  23
ENDBRANCH  19  22
ENDBRANCH   4  17
TORSDOF 5
