REMARK  4 active torsions:
REMARK  status: ('A' for Active; 'I' for Inactive)
REMARK    1  A    between atoms: N_1  and  C_14 
REMARK    2  A    between atoms: N_2  and  C_15 
REMARK    3  A    between atoms: C_9  and  C_14 
REMARK    4  A    between atoms: C_10  and  C_17 
ROOT
HETATM    1  C   UNL     1      -1.724   2.269  -0.080  1.00  0.00     0.223 C 
ENDROOT
BRANCH   1   2
HETATM    2  N   UNL     1      -0.879   1.078  -0.008  1.00  0.00    -0.256 N 
HETATM    3  C   UNL     1      -1.462  -0.157  -0.289  1.00  0.00     0.334 C 
HETATM    4  N   UNL     1      -0.660  -1.273  -0.048  1.00  0.00    -0.279 N 
HETATM    5  O   UNL     1      -2.606  -0.269  -0.724  1.00  0.00    -0.246 OA
HETATM    6  C   UNL     1       0.703  -1.165   0.126  1.00  0.00     0.146 C 
HETATM    7  C   UNL     1       1.299   0.022   0.155  1.00  0.00     0.200 C 
HETATM    8  C   UNL     1       0.496   1.260   0.064  1.00  0.00     0.292 C 
HETATM    9  F   UNL     1       2.634   0.154   0.288  1.00  0.00    -0.199 F 
HETATM   10  O   UNL     1       1.046   2.358   0.025  1.00  0.00    -0.264 OA
BRANCH   4  11
HETATM   11  C   UNL     1      -1.341  -2.550   0.069  1.00  0.00     0.232 C 
HETATM   12  O   UNL     1      -0.677  -3.402   1.019  1.00  0.00    -0.366 OA
HETATM   13  C   UNL     1      -1.003  -4.760   0.677  1.00  0.00     0.170 C 
HETATM   14  C   UNL     1      -1.826  -4.720  -0.599  1.00  0.00     0.031 C 
HETATM   15  C   UNL     1      -1.445  -3.382  -1.196  1.00  0.00     0.056 C 
ENDBRANCH   4  11
ENDBRANCH   1   2
BRANCH   1  16
HETATM   16  C   UNL     1      -2.880   2.213   0.865  1.00  0.00     0.159 A 
HETATM   17  O   UNL     1      -4.099   1.826   0.363  1.00  0.00    -0.276 OA
HETATM   18  C   UNL     1      -4.901   1.886   1.475  1.00  0.00     0.174 A 
HETATM   19  N   UNL     1      -4.248   2.318   2.536  1.00  0.00    -0.277 N 
HETATM   20  N   UNL     1      -2.939   2.528   2.143  1.00  0.00    -0.280 N 
ATOM     21  HN  UNL     1      -4.634   2.468   3.468  1.00  0.00     0.189 HD
ATOM     22  HN  UNL     1      -2.171   2.861   2.727  1.00  0.00     0.189 HD
BRANCH  18  23
HETATM   23  C   UNL     1      -6.291   1.454   1.335  1.00  0.00     0.017 A 
HETATM   24  C   UNL     1      -6.822   1.034   0.104  1.00  0.00     0.017 A 
HETATM   25  C   UNL     1      -8.150   0.597   0.005  1.00  0.00     0.020 A 
HETATM   26  C   UNL     1      -8.959   0.574   1.138  1.00  0.00     0.011 A 
HETATM   27  C   UNL     1      -8.456   0.990   2.368  1.00  0.00     0.020 A 
HETATM   28 BR   UNL     1     -10.744  -0.035   1.008  1.00  0.00    -0.051 Br
HETATM   29  C   UNL     1      -7.130   1.429   2.463  1.00  0.00     0.017 A 
ENDBRANCH  18  23
ENDBRANCH   1  16
TORSDOF 4
