REMARK  7 active torsions:
REMARK  status: ('A' for Active; 'I' for Inactive)
REMARK    1  A    between atoms: O_2  and  C_3 
REMARK    2  A    between atoms: C_3  and  C_4 
REMARK    3  A    between atoms: C_4  and  O_5 
REMARK    4  A    between atoms: O_5  and  C_6 
REMARK    5  A    between atoms: C_6  and  C_7 
REMARK       I    between atoms: C_7  and  N_9 
REMARK    6  A    between atoms: N_9  and  C_10 
REMARK    7  A    between atoms: C_13  and  N_17 
ROOT
HETATM    1  C   UNL     1       8.574   5.190  -2.672  1.00  0.00     0.050 A 
HETATM    2  C   UNL     1       8.279   6.413  -2.094  1.00  0.00     0.035 A 
HETATM    3  C   UNL     1       8.617   7.586  -2.754  1.00  0.00     0.051 A 
HETATM    4  C   UNL     1       9.258   7.549  -3.989  1.00  0.00     0.103 A 
HETATM    5  N   UNL     1       9.680   6.369  -4.497  1.00  0.00    -0.350 N 
ATOM      6  HN  UNL     1      10.242   6.334  -5.347  1.00  0.00     0.166 HD
HETATM    7  C   UNL     1       9.331   5.227  -3.838  1.00  0.00     0.119 A 
ENDROOT
BRANCH   1   8
HETATM    8  N   UNL     1       8.115   3.974  -2.120  1.00  0.00    -0.324 N 
HETATM    9  C   UNL     1       7.029   3.871  -1.258  1.00  0.00     0.245 C 
HETATM   10  O   UNL     1       6.298   4.795  -0.900  1.00  0.00    -0.271 OA
HETATM   11  H   UNL     1       8.497   3.108  -2.488  1.00  0.00     0.169 HD
BRANCH   9  12
HETATM   12  C   UNL     1       6.724   2.448  -0.813  1.00  0.00     0.270 C 
BRANCH  12  13
HETATM   13  O   UNL     1       7.832   1.885  -0.127  1.00  0.00    -0.380 OA
BRANCH  13  14
HETATM   14  C   UNL     1       7.475   0.655   0.502  1.00  0.00     0.194 C 
BRANCH  14  15
HETATM   15  C   UNL     1       8.651   0.155   1.328  1.00  0.00     0.193 C 
BRANCH  15  16
HETATM   16  O   UNL     1       8.335  -1.124   1.870  1.00  0.00    -0.394 OA
HETATM   17  C   UNL     1       9.417  -1.641   2.634  1.00  0.00     0.201 C 
ENDBRANCH  15  16
ENDBRANCH  14  15
ENDBRANCH  13  14
ENDBRANCH  12  13
ENDBRANCH   9  12
ENDBRANCH   1   8
BRANCH   4  18
HETATM   18  N   UNL     1       9.437   8.723  -4.696  1.00  0.00    -0.367 N 
HETATM   19  C   UNL     1       8.384   9.736  -4.716  1.00  0.00     0.124 C 
HETATM   20  C   UNL     1       7.907   9.987  -6.144  1.00  0.00     0.020 C 
HETATM   21  C   UNL     1       9.076  10.293  -7.072  1.00  0.00     0.003 C 
HETATM   22  C   UNL     1      10.107   9.167  -7.020  1.00  0.00     0.020 C 
HETATM   23  C   UNL     1      10.571   8.888  -5.592  1.00  0.00     0.124 C 
ENDBRANCH   4  18
TORSDOF 7
