REMARK  3 active torsions:
REMARK  status: ('A' for Active; 'I' for Inactive)
REMARK       I    between atoms: N_7  and  C_8 
REMARK       I    between atoms: C_8  and  N_10 
REMARK    1  A    between atoms: N_10  and  C_11 
REMARK    2  A    between atoms: C_11  and  C_12 
REMARK    3  A    between atoms: C_12  and  C_13 
ROOT
HETATM    1  C   UNL     1       1.045   0.113   0.138  1.00  0.00     0.034 C 
HETATM    2  C   UNL     1       2.559  -0.024  -0.050  1.00  0.00     0.108 C 
HETATM    3  C   UNL     1       3.062   0.916  -1.168  1.00  0.00     0.192 C 
HETATM    4  O   UNL     1       2.584   0.510  -2.460  1.00  0.00    -0.388 OA
HETATM    5  C   UNL     1       3.043  -0.817  -2.773  1.00  0.00     0.187 C 
HETATM    6  C   UNL     1       2.548  -1.831  -1.738  1.00  0.00     0.154 C 
HETATM    7  N   UNL     1       2.928  -1.420  -0.379  1.00  0.00    -0.326 N 
HETATM    8  C   UNL     1       3.838  -2.204   0.306  1.00  0.00     0.318 C 
HETATM    9  O   UNL     1       4.356  -3.205  -0.183  1.00  0.00    -0.247 OA
HETATM   10  N   UNL     1       4.136  -1.792   1.580  1.00  0.00    -0.343 N 
HETATM   11  H   UNL     1       3.387  -1.324   2.065  1.00  0.00     0.164 HD
ENDROOT
BRANCH  10  12
HETATM   12  C   UNL     1       5.044  -2.578   2.413  1.00  0.00     0.130 C 
BRANCH  12  13
HETATM   13  C   UNL     1       6.514  -2.263   2.128  1.00  0.00     0.077 C 
BRANCH  13  14
HETATM   14  C   UNL     1       7.457  -3.115   2.922  1.00  0.00     0.018 A 
HETATM   15  C   UNL     1       7.981  -4.331   2.530  1.00  0.00     0.076 A 
HETATM   16  S   UNL     1       9.064  -4.919   3.721  1.00  0.00    -0.087 SA
HETATM   17  C   UNL     1       8.764  -3.518   4.669  1.00  0.00     0.046 A 
HETATM   18  C   UNL     1       9.458  -3.327   5.972  1.00  0.00     0.076 C 
HETATM   19  N   UNL     1       7.901  -2.664   4.157  1.00  0.00    -0.357 N 
ATOM     20  HN  UNL     1       7.603  -1.797   4.604  1.00  0.00     0.166 HD
ENDBRANCH  13  14
ENDBRANCH  12  13
ENDBRANCH  10  12
TORSDOF 3
