REMARK  3 active torsions:
REMARK  status: ('A' for Active; 'I' for Inactive)
REMARK    1  A    between atoms: C_2  and  C_3 
REMARK    2  A    between atoms: C_3  and  C_4 
REMARK    3  A    between atoms: C_8  and  C_11 
ROOT
HETATM    1  C   UNL     1       4.494   1.343  -0.646  1.00  0.00     0.097 A 
HETATM    2  N   UNL     1       5.267   1.786   0.352  1.00  0.00    -0.287 N 
ATOM      3  HN  UNL     1       4.997   2.207   1.241  1.00  0.00     0.188 HD
HETATM    4  N   UNL     1       6.494   1.528  -0.129  1.00  0.00    -0.285 N 
HETATM    5  C   UNL     1       6.438   0.946  -1.365  1.00  0.00     0.128 A 
HETATM    6  N   UNL     1       5.173   0.822  -1.716  1.00  0.00    -0.331 N 
ATOM      7  HN  UNL     1       4.791   0.432  -2.578  1.00  0.00     0.168 HD
HETATM    8  H   UNL     1       7.321   1.752   0.418  1.00  0.00     0.188 HD
ENDROOT
BRANCH   5   9
HETATM    9  C   UNL     1       7.654   0.501  -2.112  1.00  0.00     0.218 C 
HETATM   10  C   UNL     1       8.800   0.016  -1.195  1.00  0.00     0.309 C 
HETATM   11  N   UNL     1       9.430   1.123  -0.435  1.00  0.00     0.088 N 
HETATM   12  C   UNL     1       9.886   2.140  -1.405  1.00  0.00     0.295 C 
HETATM   13  H   UNL     1      10.250   0.755   0.054  1.00  0.00     0.316 HD
HETATM   14  C   UNL     1       8.748   2.628  -2.314  1.00  0.00     0.198 C 
HETATM   15  O   UNL     1       8.098   1.549  -2.995  1.00  0.00    -0.375 OA
ENDBRANCH   5   9
BRANCH   1  16
HETATM   16  C   UNL     1       3.010   1.363  -0.593  1.00  0.00     0.077 C 
BRANCH  16  17
HETATM   17  C   UNL     1       2.427  -0.048  -0.707  1.00  0.00     0.003 C 
HETATM   18  C   UNL     1       0.909  -0.040  -0.658  1.00  0.00     0.005 C 
ENDBRANCH  16  17
ENDBRANCH   1  16
TORSDOF 3
