REMARK  5 active torsions:
REMARK  status: ('A' for Active; 'I' for Inactive)
REMARK       I    between atoms: N_1  and  C_2 
REMARK    1  A    between atoms: C_2  and  C_4 
REMARK    2  A    between atoms: C_4  and  C_5 
REMARK    3  A    between atoms: C_5  and  N_6 
REMARK    4  A    between atoms: C_5  and  C_17 
REMARK       I    between atoms: N_6  and  C_7 
REMARK       I    between atoms: C_7  and  N_9 
REMARK    5  A    between atoms: N_9  and  C_10 
ROOT
HETATM    1  N   UNL     1       4.845   0.834  -1.181  1.00  0.00    -0.337 N 
HETATM    2  C   UNL     1       5.817  -0.016  -1.674  1.00  0.00     0.322 C 
HETATM    3  O   UNL     1       6.501  -0.715  -0.940  1.00  0.00    -0.247 OA
HETATM    4  N   UNL     1       5.831  -0.019  -3.046  1.00  0.00    -0.288 N 
HETATM    5  H   UNL     1       4.627   1.656  -1.726  1.00  0.00     0.164 HD
HETATM    6  H   UNL     1       5.013   0.297  -3.538  1.00  0.00     0.172 HD
ENDROOT
BRANCH   1   7
HETATM    7  C   UNL     1       4.585   0.887   0.250  1.00  0.00     0.099 C 
BRANCH   7   8
HETATM    8  C   UNL     1       3.104   1.131   0.544  1.00  0.00     0.128 C 
BRANCH   8   9
HETATM    9  C   UNL     1       2.199   0.092  -0.072  1.00  0.00     0.217 C 
HETATM   10  N   UNL     1       2.356  -1.193   0.352  1.00  0.00    -0.370 N 
HETATM   11  H   UNL     1       1.779  -1.889  -0.105  1.00  0.00     0.159 HD
HETATM   12  H   UNL     1       3.213  -1.525   0.775  1.00  0.00     0.159 HD
HETATM   13  O   UNL     1       1.317   0.376  -0.878  1.00  0.00    -0.274 OA
ENDBRANCH   8   9
ENDBRANCH   7   8
BRANCH   7  14
HETATM   14  C   UNL     1       5.442   1.913   0.957  1.00  0.00     0.009 A 
HETATM   15  C   UNL     1       5.334   3.390   0.657  1.00  0.00     0.007 A 
HETATM   16  C   UNL     1       6.596   2.653   0.314  1.00  0.00     0.007 A 
ENDBRANCH   7  14
ENDBRANCH   1   7
BRANCH   4  17
HETATM   17  C   UNL     1       6.697  -0.836  -3.723  1.00  0.00     0.168 A 
HETATM   18  N   UNL     1       7.799  -1.422  -3.320  1.00  0.00    -0.279 N 
HETATM   19  N   UNL     1       8.345  -2.227  -4.303  1.00  0.00    -0.303 N 
ATOM     20  HN  UNL     1       8.205  -1.299  -2.392  1.00  0.00     0.189 HD
HETATM   21  C   UNL     1       7.624  -2.204  -5.402  1.00  0.00     0.160 A 
ATOM     22  HN  UNL     1       9.200  -2.771  -4.189  1.00  0.00     0.186 HD
HETATM   23  S   UNL     1       6.265  -1.155  -5.346  1.00  0.00    -0.046 SA
ENDBRANCH   4  17
TORSDOF 5
