REMARK  5 active torsions:
REMARK  status: ('A' for Active; 'I' for Inactive)
REMARK    1  A    between atoms: C_2  and  C_3 
REMARK       I    between atoms: C_2  and  N_11 
REMARK    2  A    between atoms: C_3  and  N_4 
REMARK    3  A    between atoms: N_11  and  C_12 
REMARK    4  A    between atoms: C_12  and  C_13 
REMARK    5  A    between atoms: C_12  and  C_16 
ROOT
HETATM    1  O   UNL     1       2.303   2.135  -0.126  1.00  0.00    -0.272 OA
HETATM    2  C   UNL     1       2.020   1.069  -0.670  1.00  0.00     0.237 C 
HETATM    3  N   UNL     1       2.958   0.199  -1.178  1.00  0.00    -0.354 N 
HETATM    4  H   UNL     1       2.659  -0.587  -1.739  1.00  0.00     0.162 HD
ENDROOT
BRANCH   2   5
HETATM    5  C   UNL     1       0.591   0.599  -0.796  1.00  0.00     0.252 C 
BRANCH   5   6
HETATM    6  N   UNL     1      -0.158   1.412  -1.725  1.00  0.00    -0.278 N 
HETATM    7  C   UNL     1      -0.511   2.719  -1.600  1.00  0.00     0.201 A 
HETATM    8  N   UNL     1      -1.290   3.060  -2.603  1.00  0.00    -0.346 N 
HETATM    9  C   UNL     1      -1.386   1.905  -3.323  1.00  0.00     0.198 A 
ATOM     10  HN  UNL     1      -1.718   3.966  -2.796  1.00  0.00     0.167 HD
HETATM   11  N   UNL     1      -0.713   0.864  -2.825  1.00  0.00    -0.293 N 
ATOM     12  HN  UNL     1      -0.639  -0.089  -3.181  1.00  0.00     0.188 HD
ENDBRANCH   5   6
ENDBRANCH   2   5
BRANCH   3  13
HETATM   13  C   UNL     1       4.384   0.466  -1.141  1.00  0.00     0.092 C 
BRANCH  13  14
HETATM   14  C   UNL     1       5.072  -0.863  -0.935  1.00  0.00     0.009 A 
HETATM   15  C   UNL     1       4.956  -1.589   0.385  1.00  0.00     0.007 A 
HETATM   16  C   UNL     1       6.270  -0.984  -0.023  1.00  0.00     0.007 A 
ENDBRANCH  13  14
BRANCH  13  17
HETATM   17  C   UNL     1       4.877   1.120  -2.412  1.00  0.00     0.009 A 
HETATM   18  C   UNL     1       4.375   2.479  -2.846  1.00  0.00     0.007 A 
HETATM   19  C   UNL     1       4.044   1.265  -3.669  1.00  0.00     0.007 A 
ENDBRANCH  13  17
ENDBRANCH   3  13
TORSDOF 5
