REMARK  5 active torsions:
REMARK  status: ('A' for Active; 'I' for Inactive)
REMARK    1  A    between atoms: C_2  and  C_3 
REMARK    2  A    between atoms: C_2  and  N_11 
REMARK    3  A    between atoms: C_3  and  N_4 
REMARK    4  A    between atoms: N_11  and  C_12 
REMARK    5  A    between atoms: C_12  and  C_13 
REMARK       I    between atoms: C_13  and  N_15 
ROOT
HETATM    1  N   UNL     1       3.081   0.565  -1.379  1.00  0.00     0.098 N 
HETATM    2  H   UNL     1       2.752   1.522  -1.522  1.00  0.00     0.317 HD
ENDROOT
BRANCH   1   3
HETATM    3  C   UNL     1       2.508  -0.011  -0.142  1.00  0.00     0.236 C 
HETATM    4  C   UNL     1       2.867   0.834   1.089  1.00  0.00     0.044 C 
BRANCH   3   5
HETATM    5  C   UNL     1       0.969  -0.128  -0.210  1.00  0.00     0.183 C 
BRANCH   5   6
HETATM    6  N   UNL     1       0.488  -0.996  -1.266  1.00  0.00    -0.301 N 
HETATM    7  C   UNL     1       0.084  -0.606  -2.511  1.00  0.00     0.118 A 
HETATM    8  C   UNL     1      -0.354  -1.742  -3.155  1.00  0.00    -0.028 A 
HETATM    9  C   UNL     1      -0.868  -1.864  -4.536  1.00  0.00     0.051 C 
HETATM   10  C   UNL     1      -0.201  -2.762  -2.188  1.00  0.00     0.115 A 
HETATM   11  N   UNL     1       0.305  -2.311  -1.036  1.00  0.00    -0.310 N 
ATOM     12  HN  UNL     1       0.505  -2.837  -0.185  1.00  0.00     0.186 HD
ENDBRANCH   5   6
ENDBRANCH   3   5
ENDBRANCH   1   3
BRANCH   1  13
HETATM   13  C   UNL     1       4.553   0.584  -1.353  1.00  0.00     0.372 C 
BRANCH  13  14
HETATM   14  C   UNL     1       5.118   1.064  -2.695  1.00  0.00     0.248 C 
HETATM   15  O   UNL     1       5.285   2.269  -2.899  1.00  0.00    -0.271 OA
HETATM   16  N   UNL     1       5.483   0.099  -3.615  1.00  0.00    -0.347 N 
HETATM   17  C   UNL     1       6.295   0.461  -4.776  1.00  0.00     0.152 C 
HETATM   18  C   UNL     1       4.901  -1.245  -3.689  1.00  0.00     0.152 C 
HETATM   19  C   UNL     1       5.537   0.197  -6.079  1.00  0.00     0.187 C 
HETATM   20  O   UNL     1       5.060  -1.159  -6.132  1.00  0.00    -0.388 OA
HETATM   21  C   UNL     1       4.178  -1.430  -5.029  1.00  0.00     0.187 C 
ENDBRANCH  13  14
ENDBRANCH   1  13
TORSDOF 5
