REMARK  6 active torsions:
REMARK  status: ('A' for Active; 'I' for Inactive)
REMARK    1  A    between atoms: S_2  and  C_4 
REMARK    2  A    between atoms: N_8  and  C_9 
REMARK    3  A    between atoms: C_9  and  C_10 
REMARK    4  A    between atoms: C_10  and  O_11 
REMARK    5  A    between atoms: C_10  and  C_12 
REMARK    6  A    between atoms: C_12  and  N_13 
ROOT
HETATM    1  C   UNL     1       4.757   4.955   3.443  1.00  0.00     0.156 C 
ENDROOT
BRANCH   1   2
HETATM    2  C   UNL     1       4.860   3.431   3.333  1.00  0.00     0.183 C 
BRANCH   2   3
HETATM    3  N   UNL     1       4.149   2.856   2.207  1.00  0.00    -0.283 N 
HETATM    4  C   UNL     1       3.882   3.392   0.988  1.00  0.00     0.202 A 
HETATM    5  N   UNL     1       3.310   2.488   0.227  1.00  0.00    -0.329 N 
HETATM    6  C   UNL     1       3.223   1.388   1.050  1.00  0.00     0.190 A 
ATOM      7  HN  UNL     1       3.004   2.579  -0.742  1.00  0.00     0.168 HD
HETATM    8  N   UNL     1       3.732   1.581   2.275  1.00  0.00    -0.275 N 
ATOM      9  HN  UNL     1       3.788   0.928   3.057  1.00  0.00     0.189 HD
BRANCH   6  10
HETATM   10  S   UNL     1       2.540  -0.115   0.489  1.00  0.00     0.081 S 
HETATM   11  C   UNL     1       3.752  -0.394  -0.820  1.00  0.00     0.136 C 
HETATM   12  O   UNL     1       2.733  -1.161   1.550  1.00  0.00    -0.250 OA
ENDBRANCH   6  10
ENDBRANCH   2   3
ENDBRANCH   1   2
BRANCH   1  13
HETATM   13  O   UNL     1       3.385   5.330   3.604  1.00  0.00    -0.392 OA
HETATM   14  H   UNL     1       3.006   4.895   4.389  1.00  0.00     0.210 HD
ENDBRANCH   1  13
BRANCH   1  15
HETATM   15  C   UNL     1       5.598   5.476   4.616  1.00  0.00     0.163 C 
BRANCH  15  16
HETATM   16  N   UNL     1       5.572   6.926   4.698  1.00  0.00    -0.339 N 
HETATM   17  C   UNL     1       4.654   7.643   5.414  1.00  0.00     0.184 A 
HETATM   18  N   UNL     1       4.836   8.936   5.277  1.00  0.00    -0.350 N 
HETATM   19  C   UNL     1       5.911   9.057   4.434  1.00  0.00     0.060 A 
ATOM     20  HN  UNL     1       4.295   9.688   5.705  1.00  0.00     0.166 HD
HETATM   21  C   UNL     1       6.519  10.218   3.936  1.00  0.00     0.039 A 
HETATM   22  C   UNL     1       6.409   7.812   4.066  1.00  0.00     0.062 A 
HETATM   23  C   UNL     1       7.633  10.115   3.079  1.00  0.00    -0.054 A 
HETATM   24  C   UNL     1       8.253  11.388   2.568  1.00  0.00     0.049 C 
HETATM   25  C   UNL     1       8.133   8.842   2.729  1.00  0.00    -0.054 A 
HETATM   26  C   UNL     1       9.330   8.661   1.830  1.00  0.00     0.049 C 
HETATM   27  C   UNL     1       7.515   7.669   3.220  1.00  0.00     0.039 A 
ENDBRANCH  15  16
ENDBRANCH   1  15
TORSDOF 6
