REMARK  2 active torsions:
REMARK  status: ('A' for Active; 'I' for Inactive)
REMARK       I    between atoms: C_2  and  N_3 
REMARK    1  A    between atoms: C_2  and  C_11 
REMARK    2  A    between atoms: N_3  and  C_4 
ROOT
HETATM    1  O   UNL     1       0.875   0.616  -0.397  1.00  0.00    -0.270 OA
HETATM    2  C   UNL     1       2.015   0.183  -0.260  1.00  0.00     0.254 C 
HETATM    3  N   UNL     1       2.572  -0.899  -0.920  1.00  0.00    -0.311 N 
HETATM    4  H   UNL     1       3.491  -1.189  -0.613  1.00  0.00     0.170 HD
ENDROOT
BRANCH   3   5
HETATM    5  C   UNL     1       1.979  -1.607  -1.970  1.00  0.00     0.107 A 
HETATM    6  C   UNL     1       2.632  -2.752  -2.422  1.00  0.00     0.048 A 
HETATM    7  C   UNL     1       2.076  -3.484  -3.471  1.00  0.00     0.005 A 
HETATM    8  C   UNL     1       0.893  -3.048  -4.053  1.00  0.00     0.017 A 
HETATM    9  C   UNL     1       0.313  -1.898  -3.550  1.00  0.00     0.089 A 
HETATM   10  N   UNL     1       0.833  -1.183  -2.528  1.00  0.00    -0.352 N 
ATOM     11  HN  UNL     1       0.367  -0.342  -2.189  1.00  0.00     0.166 HD
ENDBRANCH   3   5
BRANCH   2  12
HETATM   12  C   UNL     1       2.967   0.730   0.828  1.00  0.00     0.237 C 
HETATM   13  C   UNL     1       2.621   2.173   1.208  1.00  0.00     0.209 C 
HETATM   14  O   UNL     1       3.080   3.103   0.215  1.00  0.00    -0.386 OA
HETATM   15  C   UNL     1       4.491   2.978   0.034  1.00  0.00     0.193 C 
HETATM   16  C   UNL     1       4.862   1.552  -0.367  1.00  0.00     0.195 C 
HETATM   17  O   UNL     1       4.371   0.571   0.559  1.00  0.00    -0.372 OA
ENDBRANCH   2  12
TORSDOF 2
