REMARK  7 active torsions:
REMARK  status: ('A' for Active; 'I' for Inactive)
REMARK    1  A    between atoms: N_6  and  C_7 
REMARK    2  A    between atoms: C_7  and  C_8 
REMARK    3  A    between atoms: C_8  and  N_9 
REMARK    4  A    between atoms: N_9  and  C_10 
REMARK    5  A    between atoms: C_10  and  C_12 
REMARK    6  A    between atoms: C_10  and  C_14 
REMARK    7  A    between atoms: C_12  and  O_13 
ROOT
HETATM    1  N   UNL     1       6.066  -4.000   0.199  1.00  0.00     0.097 N 
HETATM    2  H   UNL     1       6.846  -3.869   0.844  1.00  0.00     0.317 HD
ENDROOT
BRANCH   1   3
HETATM    3  C   UNL     1       5.006  -3.032   0.451  1.00  0.00     0.292 C 
BRANCH   3   4
HETATM    4  C   UNL     1       5.559  -1.607   0.629  1.00  0.00     0.179 C 
BRANCH   4   5
HETATM    5  N   UNL     1       6.224  -1.095  -0.557  1.00  0.00    -0.295 N 
HETATM    6  C   UNL     1       5.655  -0.467  -1.637  1.00  0.00     0.026 A 
HETATM    7  C   UNL     1       6.694  -0.242  -2.517  1.00  0.00     0.052 A 
HETATM    8  C   UNL     1       4.210  -0.161  -1.754  1.00  0.00     0.070 C 
HETATM    9  C   UNL     1       7.846  -0.734  -1.871  1.00  0.00     0.024 A 
HETATM   10  C   UNL     1       9.238  -0.777  -2.379  1.00  0.00     0.070 C 
HETATM   11  N   UNL     1       7.566  -1.198  -0.649  1.00  0.00    -0.303 N 
ATOM     12  HN  UNL     1       8.217  -1.549   0.053  1.00  0.00     0.186 HD
ENDBRANCH   4   5
ENDBRANCH   3   4
ENDBRANCH   1   3
BRANCH   1  13
HETATM   13  C   UNL     1       5.749  -5.434   0.003  1.00  0.00     0.178 C 
HETATM   14  C   UNL     1       5.150  -5.977   1.320  1.00  0.00     0.051 C 
BRANCH  13  15
HETATM   15  C   UNL     1       4.707  -5.598  -1.145  1.00  0.00     0.205 C 
BRANCH  15  16
HETATM   16  O   UNL     1       4.354  -6.940  -1.438  1.00  0.00    -0.398 OA
HETATM   17  H   UNL     1       4.090  -7.380  -0.615  1.00  0.00     0.209 HD
ENDBRANCH  15  16
ENDBRANCH  13  15
BRANCH  13  18
HETATM   18  C   UNL     1       7.160  -6.117  -0.278  1.00  0.00     0.026 C 
HETATM   19  C   UNL     1       7.931  -5.547  -1.495  1.00  0.00     0.007 C 
HETATM   20  C   UNL     1       7.650  -6.249  -2.819  1.00  0.00     0.000 C 
HETATM   21  C   UNL     1       7.880  -7.748  -2.722  1.00  0.00     0.000 C 
HETATM   22  C   UNL     1       7.084  -8.379  -1.591  1.00  0.00     0.000 C 
HETATM   23  C   UNL     1       7.258  -7.659  -0.257  1.00  0.00     0.007 C 
ENDBRANCH  13  18
ENDBRANCH   1  13
TORSDOF 7
