REMARK  4 active torsions:
REMARK  status: ('A' for Active; 'I' for Inactive)
REMARK    1  A    between atoms: C_5  and  N_8 
REMARK       I    between atoms: N_8  and  C_9 
REMARK    2  A    between atoms: C_9  and  C_11 
REMARK    3  A    between atoms: C_11  and  N_12 
REMARK    4  A    between atoms: C_15  and  C_18 
ROOT
HETATM    1  N   UNL     1       4.563  -0.696  -3.044  1.00  0.00    -0.355 N 
HETATM    2  C   UNL     1       5.224  -1.571  -3.884  1.00  0.00     0.237 C 
HETATM    3  O   UNL     1       4.651  -2.373  -4.619  1.00  0.00    -0.272 OA
HETATM    4  H   UNL     1       5.105  -0.299  -2.284  1.00  0.00     0.162 HD
ENDROOT
BRANCH   2   5
HETATM    5  C   UNL     1       6.730  -1.459  -3.841  1.00  0.00     0.250 C 
BRANCH   5   6
HETATM    6  N   UNL     1       7.266  -2.358  -2.844  1.00  0.00    -0.294 N 
HETATM    7  C   UNL     1       7.701  -3.635  -3.041  1.00  0.00     0.113 A 
HETATM    8  C   UNL     1       8.053  -4.111  -1.803  1.00  0.00     0.054 A 
HETATM    9  C   UNL     1       7.818  -3.037  -0.900  1.00  0.00     0.133 A 
HETATM   10  N   UNL     1       7.357  -1.952  -1.561  1.00  0.00    -0.294 N 
ATOM     11  HN  UNL     1       7.130  -1.035  -1.177  1.00  0.00     0.187 HD
BRANCH   9  12
HETATM   12  C   UNL     1       8.025  -3.062   0.591  1.00  0.00     0.433 C 
HETATM   13  F   UNL     1       8.379  -4.301   1.034  1.00  0.00    -0.165 F 
HETATM   14  F   UNL     1       9.009  -2.215   0.994  1.00  0.00    -0.165 F 
HETATM   15  F   UNL     1       6.901  -2.719   1.277  1.00  0.00    -0.165 F 
ENDBRANCH   9  12
ENDBRANCH   5   6
ENDBRANCH   2   5
BRANCH   1  16
HETATM   16  C   UNL     1       3.110  -0.720  -2.898  1.00  0.00     0.084 C 
HETATM   17  C   UNL     1       2.590   0.668  -2.511  1.00  0.00     0.025 C 
HETATM   18  C   UNL     1       2.903   1.037  -1.060  1.00  0.00     0.006 C 
HETATM   19  C   UNL     1       2.428  -0.024  -0.058  1.00  0.00    -0.019 C 
HETATM   20  C   UNL     1       0.903  -0.018   0.087  1.00  0.00     0.010 C 
HETATM   21  C   UNL     1       2.961  -1.411  -0.444  1.00  0.00     0.006 C 
HETATM   22  C   UNL     1       2.663  -1.793  -1.895  1.00  0.00     0.025 C 
ENDBRANCH   1  16
TORSDOF 4
