REMARK  5 active torsions:
REMARK  status: ('A' for Active; 'I' for Inactive)
REMARK    1  A    between atoms: N_1  and  C_2 
REMARK    2  A    between atoms: C_7  and  O_18 
REMARK    3  A    between atoms: C_11  and  C_21 
REMARK    4  A    between atoms: C_12  and  N_20 
REMARK    5  A    between atoms: C_21  and  O_22 
ROOT
HETATM    1  N   UNL     1       1.474   1.186  -0.179  1.00  0.00    -0.297 N 
HETATM    2  C   UNL     1       1.973  -0.071  -0.389  1.00  0.00     0.142 A 
HETATM    3  C   UNL     1       0.859  -0.867  -0.595  1.00  0.00     0.122 A 
HETATM    4  N   UNL     1      -0.302  -0.130  -0.466  1.00  0.00    -0.346 N 
ATOM      5  HN  UNL     1      -1.263  -0.463  -0.542  1.00  0.00     0.167 HD
HETATM    6  C   UNL     1       0.107   1.101  -0.223  1.00  0.00     0.188 A 
HETATM    7  C   UNL     1       1.099  -2.221  -0.887  1.00  0.00     0.131 A 
HETATM    8  N   UNL     1       3.258  -0.450  -0.416  1.00  0.00    -0.336 N 
ATOM      9  HN  UNL     1       4.049   0.177  -0.270  1.00  0.00     0.168 HD
HETATM   10  N   UNL     1       2.377  -2.664  -0.894  1.00  0.00    -0.337 N 
ATOM     11  HN  UNL     1       2.589  -3.646  -1.070  1.00  0.00     0.168 HD
HETATM   12  C   UNL     1       3.365  -1.773  -0.662  1.00  0.00     0.183 A 
ENDROOT
BRANCH   1  13
HETATM   13  C   UNL     1       2.273   2.379  -0.016  1.00  0.00     0.262 C 
HETATM   14  C   UNL     1       2.585   2.738   1.437  1.00  0.00     0.204 C 
HETATM   15  C   UNL     1       2.528   4.260   1.464  1.00  0.00     0.234 C 
HETATM   16  F   UNL     1       3.758   4.760   1.754  1.00  0.00    -0.244 F 
HETATM   17  C   UNL     1       2.083   4.682   0.072  1.00  0.00     0.184 C 
HETATM   18  O   UNL     1       1.555   3.501  -0.567  1.00  0.00    -0.353 OA
BRANCH  14  19
HETATM   19  O   UNL     1       3.860   2.248   1.857  1.00  0.00    -0.388 OA
HETATM   20  H   UNL     1       4.500   2.988   1.803  1.00  0.00     0.210 HD
ENDBRANCH  14  19
BRANCH  17  21
HETATM   21  C   UNL     1       3.240   5.213  -0.784  1.00  0.00     0.199 C 
BRANCH  21  22
HETATM   22  O   UNL     1       2.765   5.545  -2.087  1.00  0.00    -0.398 OA
HETATM   23  H   UNL     1       2.281   4.764  -2.420  1.00  0.00     0.209 HD
ENDBRANCH  21  22
ENDBRANCH  17  21
ENDBRANCH   1  13
BRANCH   7  24
HETATM   24  N   UNL     1       0.084  -3.128  -1.163  1.00  0.00    -0.383 N 
HETATM   25  H   UNL     1      -0.827  -2.831  -0.837  1.00  0.00     0.157 HD
HETATM   26  H   UNL     1       0.365  -4.084  -0.995  1.00  0.00     0.157 HD
ENDBRANCH   7  24
TORSDOF 5
