REMARK  5 active torsions:
REMARK  status: ('A' for Active; 'I' for Inactive)
REMARK    1  A    between atoms: O_1  and  C_2 
REMARK    2  A    between atoms: C_2  and  C_3 
REMARK    3  A    between atoms: C_9  and  N_10 
REMARK       I    between atoms: N_10  and  C_11 
REMARK    4  A    between atoms: C_11  and  C_13 
REMARK    5  A    between atoms: C_13  and  C_14 
ROOT
HETATM    1  N   UNL     1       5.100   0.816   0.370  1.00  0.00    -0.356 N 
HETATM    2  C   UNL     1       6.401   0.375   0.266  1.00  0.00     0.222 C 
HETATM    3  O   UNL     1       6.971  -0.284   1.132  1.00  0.00    -0.273 OA
HETATM    4  H   UNL     1       4.610   1.058  -0.490  1.00  0.00     0.162 HD
ENDROOT
BRANCH   1   5
HETATM    5  C   UNL     1       4.252   0.529   1.522  1.00  0.00     0.090 C 
HETATM    6  C   UNL     1       2.762   0.840   1.232  1.00  0.00     0.032 C 
HETATM    7  C   UNL     1       2.477   2.339   1.002  1.00  0.00     0.009 C 
HETATM    8  C   UNL     1       2.465   3.141   2.300  1.00  0.00     0.001 C 
HETATM    9  C   UNL     1       3.818   3.647   2.787  1.00  0.00     0.000 C 
HETATM   10  C   UNL     1       5.026   2.729   2.639  1.00  0.00     0.002 C 
HETATM   11  C   UNL     1       4.758   1.233   2.799  1.00  0.00     0.026 C 
BRANCH   6  12
HETATM   12  C   UNL     1       2.230  -0.001   0.057  1.00  0.00     0.170 C 
BRANCH  12  13
HETATM   13  O   UNL     1       2.820   0.401  -1.177  1.00  0.00    -0.400 OA
HETATM   14  H   UNL     1       2.426  -0.172  -1.863  1.00  0.00     0.209 HD
ENDBRANCH  12  13
ENDBRANCH   6  12
ENDBRANCH   1   5
BRANCH   2  15
HETATM   15  C   UNL     1       7.090   0.792  -1.019  1.00  0.00     0.142 C 
BRANCH  15  16
HETATM   16  C   UNL     1       7.071  -0.294  -2.056  1.00  0.00    -0.034 A 
HETATM   17  C   UNL     1       8.072  -1.267  -2.111  1.00  0.00     0.010 A 
HETATM   18  C   UNL     1       8.013  -2.261  -3.081  1.00  0.00     0.018 A 
HETATM   19  C   UNL     1       6.946  -2.253  -3.963  1.00  0.00     0.087 A 
HETATM   20  N   UNL     1       5.953  -1.338  -3.935  1.00  0.00    -0.375 N 
HETATM   21  C   UNL     1       6.037  -0.383  -2.983  1.00  0.00     0.095 A 
ATOM     22  HN  UNL     1       5.179  -1.366  -4.599  1.00  0.00     0.164 HD
ENDBRANCH  15  16
ENDBRANCH   2  15
TORSDOF 5
