REMARK  3 active torsions:
REMARK  status: ('A' for Active; 'I' for Inactive)
REMARK    1  A    between atoms: O_2  and  C_3 
REMARK    2  A    between atoms: C_4  and  N_5 
REMARK       I    between atoms: N_5  and  C_6 
REMARK       I    between atoms: C_6  and  N_8 
REMARK    3  A    between atoms: N_8  and  C_9 
ROOT
HETATM    1  N   UNL     1       2.152  -3.074  -0.172  1.00  0.00    -0.303 N 
HETATM    2  C   UNL     1       1.835  -2.566   1.069  1.00  0.00     0.321 C 
HETATM    3  O   UNL     1       2.444  -1.684   1.658  1.00  0.00    -0.247 OA
HETATM    4  N   UNL     1       0.723  -3.187   1.599  1.00  0.00    -0.338 N 
HETATM    5  H   UNL     1       1.932  -4.044  -0.303  1.00  0.00     0.171 HD
HETATM    6  H   UNL     1       0.319  -3.967   1.107  1.00  0.00     0.164 HD
ENDROOT
BRANCH   1   7
HETATM    7  C   UNL     1       3.156  -2.540  -0.972  1.00  0.00     0.113 A 
HETATM    8  C   UNL     1       4.038  -3.259  -1.770  1.00  0.00     0.188 A 
HETATM    9  N   UNL     1       4.851  -2.305  -2.337  1.00  0.00    -0.273 N 
HETATM   10  N   UNL     1       4.519  -1.041  -2.042  1.00  0.00    -0.299 N 
HETATM   11  C   UNL     1       5.956  -2.560  -3.231  1.00  0.00     0.180 C 
HETATM   12  C   UNL     1       3.486  -1.168  -1.200  1.00  0.00     0.053 A 
ATOM     13  HN  UNL     1       4.952  -0.182  -2.380  1.00  0.00     0.187 HD
HETATM   14  C   UNL     1       2.809   0.069  -0.730  1.00  0.00     0.072 C 
BRANCH   8  15
HETATM   15  O   UNL     1       4.296  -4.544  -2.045  1.00  0.00    -0.338 OA
HETATM   16  C   UNL     1       3.326  -5.514  -1.701  1.00  0.00     0.211 C 
ENDBRANCH   8  15
ENDBRANCH   1   7
BRANCH   4  17
HETATM   17  C   UNL     1       0.244  -2.899   2.952  1.00  0.00     0.086 C 
HETATM   18  C   UNL     1       0.827  -3.940   3.920  1.00  0.00     0.025 C 
HETATM   19  C   UNL     1       0.651  -3.565   5.389  1.00  0.00     0.002 C 
HETATM   20  C   UNL     1      -0.668  -4.011   6.013  1.00  0.00     0.000 C 
HETATM   21  C   UNL     1      -1.919  -3.869   5.153  1.00  0.00     0.000 C 
HETATM   22  C   UNL     1      -1.959  -2.615   4.286  1.00  0.00     0.002 C 
HETATM   23  C   UNL     1      -1.283  -2.819   2.929  1.00  0.00     0.025 C 
ENDBRANCH   4  17
TORSDOF 3
