REMARK  5 active torsions:
REMARK  status: ('A' for Active; 'I' for Inactive)
REMARK    1  A    between atoms: C_2  and  C_3 
REMARK    2  A    between atoms: C_2  and  N_17 
REMARK       I    between atoms: C_3  and  N_5 
REMARK    3  A    between atoms: N_5  and  C_6 
REMARK    4  A    between atoms: C_6  and  C_7 
REMARK    5  A    between atoms: C_7  and  N_10 
ROOT
HETATM    1  C   UNL     1       1.150   1.484  -1.260  1.00  0.00     0.242 C 
HETATM    2  O   UNL     1       0.475   2.461  -0.940  1.00  0.00    -0.271 OA
HETATM    3  N   UNL     1       2.413   1.602  -1.802  1.00  0.00    -0.357 N 
HETATM    4  H   UNL     1       3.047   0.814  -1.716  1.00  0.00     0.162 HD
ENDROOT
BRANCH   3   5
HETATM    5  C   UNL     1       2.997   2.911  -2.057  1.00  0.00     0.163 C 
BRANCH   5   6
HETATM    6  C   UNL     1       2.608   3.594  -3.431  1.00  0.00     0.168 C 
HETATM    7  C   UNL     1       3.103   2.629  -4.544  1.00  0.00     0.050 C 
HETATM    8  C   UNL     1       1.079   3.693  -3.583  1.00  0.00     0.050 C 
BRANCH   6   9
HETATM    9  N   UNL     1       3.313   4.908  -3.558  1.00  0.00     0.102 N 
HETATM   10  C   UNL     1       3.108   5.889  -2.471  1.00  0.00     0.303 C 
HETATM   11  C   UNL     1       1.890   6.825  -2.632  1.00  0.00     0.302 C 
HETATM   12  N   UNL     1       1.863   7.574  -3.898  1.00  0.00     0.087 N 
HETATM   13  C   UNL     1       2.840   8.659  -3.892  1.00  0.00     0.310 C 
HETATM   14  C   UNL     1       2.081   6.650  -5.026  1.00  0.00     0.302 C 
HETATM   15  C   UNL     1       3.231   5.618  -4.853  1.00  0.00     0.303 C 
ENDBRANCH   6   9
ENDBRANCH   5   6
ENDBRANCH   3   5
BRANCH   1  16
HETATM   16  C   UNL     1       0.653   0.067  -1.065  1.00  0.00     0.196 C 
HETATM   17  C   UNL     1      -0.873   0.024  -0.991  1.00  0.00     0.044 C 
BRANCH  16  18
HETATM   18  N   UNL     1       1.255  -0.482   0.133  1.00  0.00    -0.273 N 
HETATM   19  C   UNL     1       1.235   0.027   1.395  1.00  0.00     0.202 A 
HETATM   20  N   UNL     1       1.923  -0.758   2.191  1.00  0.00    -0.346 N 
HETATM   21  C   UNL     1       2.356  -1.745   1.353  1.00  0.00     0.198 A 
ATOM     22  HN  UNL     1       2.093  -0.656   3.192  1.00  0.00     0.167 HD
HETATM   23  N   UNL     1       1.990  -1.609   0.075  1.00  0.00    -0.292 N 
ATOM     24  HN  UNL     1       2.208  -2.199  -0.728  1.00  0.00     0.188 HD
ENDBRANCH  16  18
ENDBRANCH   1  16
TORSDOF 5
