REMARK  6 active torsions:
REMARK  status: ('A' for Active; 'I' for Inactive)
REMARK    1  A    between atoms: C_2  and  N_3 
REMARK    2  A    between atoms: C_2  and  C_13 
REMARK    3  A    between atoms: N_3  and  C_4 
REMARK    4  A    between atoms: C_4  and  C_5 
REMARK    5  A    between atoms: C_5  and  N_6 
REMARK    6  A    between atoms: C_13  and  N_15 
ROOT
HETATM    1  N   UNL     1       2.872   0.805   1.171  1.00  0.00     0.091 N 
HETATM    2  H   UNL     1       2.476   1.736   1.037  1.00  0.00     0.316 HD
ENDROOT
BRANCH   1   3
HETATM    3  C   UNL     1       2.523  -0.053   0.010  1.00  0.00     0.240 C 
HETATM    4  C   UNL     1       1.001  -0.053  -0.205  1.00  0.00     0.045 C 
BRANCH   3   5
HETATM    5  C   UNL     1       3.131  -1.493   0.048  1.00  0.00     0.136 C 
HETATM    6  C   UNL     1       2.771  -2.344  -1.175  1.00  0.00     0.036 C 
BRANCH   5   7
HETATM    7  N   UNL     1       4.586  -1.465   0.216  1.00  0.00    -0.297 N 
HETATM    8  C   UNL     1       5.511  -0.930  -0.639  1.00  0.00     0.118 A 
HETATM    9  C   UNL     1       6.748  -1.160  -0.073  1.00  0.00    -0.028 A 
HETATM   10  C   UNL     1       8.078  -0.770  -0.587  1.00  0.00     0.051 C 
HETATM   11  C   UNL     1       6.452  -1.857   1.119  1.00  0.00     0.115 A 
HETATM   12  N   UNL     1       5.146  -2.079   1.279  1.00  0.00    -0.309 N 
ATOM     13  HN  UNL     1       4.681  -2.592   2.028  1.00  0.00     0.186 HD
ENDBRANCH   5   7
ENDBRANCH   3   5
ENDBRANCH   1   3
BRANCH   1  14
HETATM   14  C   UNL     1       2.431   0.268   2.466  1.00  0.00     0.290 C 
BRANCH  14  15
HETATM   15  C   UNL     1       2.859   1.152   3.650  1.00  0.00     0.166 C 
BRANCH  15  16
HETATM   16  N   UNL     1       2.366   0.627   4.914  1.00  0.00    -0.267 N 
HETATM   17  C   UNL     1       3.144   0.154   5.932  1.00  0.00     0.245 A 
HETATM   18  O   UNL     1       4.365   0.109   5.969  1.00  0.00    -0.271 OA
HETATM   19  C   UNL     1       2.234  -0.302   7.062  1.00  0.00     0.227 A 
HETATM   20  N   UNL     1       0.946  -0.018   6.498  1.00  0.00    -0.334 N 
HETATM   21  C   UNL     1       1.046   0.543   5.246  1.00  0.00     0.325 A 
HETATM   22  H   UNL     1       0.047  -0.173   6.936  1.00  0.00     0.164 HD
HETATM   23  O   UNL     1       0.085   0.882   4.577  1.00  0.00    -0.247 OA
ENDBRANCH  15  16
ENDBRANCH  14  15
ENDBRANCH   1  14
TORSDOF 6
