REMARK  5 active torsions:
REMARK  status: ('A' for Active; 'I' for Inactive)
REMARK    1  A    between atoms: S_2  and  C_5 
REMARK    2  A    between atoms: C_8  and  C_11 
REMARK    3  A    between atoms: C_11  and  O_12 
REMARK    4  A    between atoms: C_11  and  C_13 
REMARK    5  A    between atoms: C_13  and  N_14 
ROOT
HETATM    1  C   UNL     1       3.715  -3.967  -4.325  1.00  0.00     0.169 C 
ENDROOT
BRANCH   1   2
HETATM    2  C   UNL     1       3.569  -3.015  -3.147  1.00  0.00    -0.028 A 
HETATM    3  C   UNL     1       3.038  -1.730  -3.375  1.00  0.00     0.011 A 
HETATM    4  C   UNL     1       2.820  -0.844  -2.318  1.00  0.00     0.024 A 
HETATM    5  C   UNL     1       3.139  -1.240  -1.020  1.00  0.00     0.058 A 
HETATM    6  C   UNL     1       3.751  -2.470  -0.779  1.00  0.00     0.024 A 
HETATM    7  C   UNL     1       3.967  -3.350  -1.843  1.00  0.00     0.011 A 
BRANCH   5   8
HETATM    8  S   UNL     1       2.711  -0.192   0.349  1.00  0.00     0.171 S 
HETATM    9  C   UNL     1       1.091  -0.782   0.775  1.00  0.00     0.167 C 
HETATM   10  O   UNL     1       2.586   1.163  -0.152  1.00  0.00    -0.223 OA
HETATM   11  O   UNL     1       3.612  -0.508   1.441  1.00  0.00    -0.223 OA
ENDBRANCH   5   8
ENDBRANCH   1   2
BRANCH   1  12
HETATM   12  O   UNL     1       5.021  -3.796  -4.871  1.00  0.00    -0.389 OA
HETATM   13  H   UNL     1       5.673  -3.880  -4.157  1.00  0.00     0.210 HD
ENDBRANCH   1  12
BRANCH   1  14
HETATM   14  C   UNL     1       3.458  -5.444  -3.977  1.00  0.00     0.166 C 
BRANCH  14  15
HETATM   15  N   UNL     1       3.572  -6.321  -5.125  1.00  0.00    -0.338 N 
HETATM   16  C   UNL     1       4.734  -6.931  -5.517  1.00  0.00     0.184 A 
HETATM   17  N   UNL     1       4.555  -7.684  -6.574  1.00  0.00    -0.350 N 
HETATM   18  C   UNL     1       3.227  -7.559  -6.885  1.00  0.00     0.060 A 
ATOM     19  HN  UNL     1       5.255  -8.244  -7.061  1.00  0.00     0.166 HD
HETATM   20  C   UNL     1       2.506  -8.145  -7.932  1.00  0.00     0.032 A 
HETATM   21  C   UNL     1       2.575  -6.717  -5.984  1.00  0.00     0.062 A 
HETATM   22  C   UNL     1       1.139  -7.873  -8.045  1.00  0.00     0.002 A 
HETATM   23  C   UNL     1       0.502  -7.035  -7.127  1.00  0.00     0.002 A 
HETATM   24  C   UNL     1       1.205  -6.436  -6.074  1.00  0.00     0.032 A 
ENDBRANCH  14  15
ENDBRANCH   1  14
TORSDOF 5
