REMARK  5 active torsions:
REMARK  status: ('A' for Active; 'I' for Inactive)
REMARK    1  A    between atoms: C_2  and  C_5 
REMARK       I    between atoms: C_5  and  N_7 
REMARK    2  A    between atoms: N_7  and  C_8 
REMARK    3  A    between atoms: C_8  and  C_9 
REMARK    4  A    between atoms: C_9  and  C_10 
REMARK    5  A    between atoms: C_13  and  C_17 
ROOT
HETATM    1  C   UNL     1       6.987  -1.275  -4.448  1.00  0.00     0.149 A 
HETATM    2  N   UNL     1       6.742  -0.729  -5.618  1.00  0.00    -0.326 N 
ATOM      3  HN  UNL     1       6.146   0.068  -5.843  1.00  0.00     0.169 HD
HETATM    4  C   UNL     1       7.496  -1.510  -6.458  1.00  0.00     0.108 A 
HETATM    5  N   UNL     1       8.168  -2.500  -5.857  1.00  0.00    -0.247 N 
ATOM      6  HN  UNL     1       8.782  -3.197  -6.280  1.00  0.00     0.196 HD
HETATM    7  O   UNL     1       7.826  -2.348  -4.513  1.00  0.00    -0.223 OA
ENDROOT
BRANCH   1   8
HETATM    8  C   UNL     1       6.518  -0.870  -3.103  1.00  0.00     0.106 C 
BRANCH   8   9
HETATM    9  C   UNL     1       4.994  -0.824  -3.043  1.00  0.00     0.130 C 
BRANCH   9  10
HETATM   10  N   UNL     1       4.501  -0.423  -1.734  1.00  0.00    -0.360 N 
HETATM   11  C   UNL     1       4.311  -1.341  -0.722  1.00  0.00     0.225 C 
HETATM   12  O   UNL     1       4.595  -2.527  -0.870  1.00  0.00    -0.273 OA
HETATM   13  H   UNL     1       4.336   0.560  -1.562  1.00  0.00     0.162 HD
BRANCH  11  14
HETATM   14  C   UNL     1       3.732  -0.775   0.589  1.00  0.00     0.030 C 
HETATM   15  C   UNL     1       3.532  -1.925   1.593  1.00  0.00     0.024 C 
HETATM   16  C   UNL     1       2.371  -0.113   0.326  1.00  0.00     0.024 C 
HETATM   17  C   UNL     1       4.703   0.247   1.196  1.00  0.00     0.024 C 
ENDBRANCH  11  14
ENDBRANCH   9  10
ENDBRANCH   8   9
ENDBRANCH   1   8
BRANCH   4  18
HETATM   18  C   UNL     1       7.602  -1.261  -7.954  1.00  0.00     0.055 A 
HETATM   19  C   UNL     1       7.486   0.170  -8.446  1.00  0.00     0.013 A 
HETATM   20  C   UNL     1       6.380  -0.791  -8.715  1.00  0.00     0.013 A 
ENDBRANCH   4  18
TORSDOF 5
