REMARK  5 active torsions:
REMARK  status: ('A' for Active; 'I' for Inactive)
REMARK    1  A    between atoms: C_2  and  C_3 
REMARK    2  A    between atoms: C_2  and  N_16 
REMARK       I    between atoms: C_3  and  N_5 
REMARK    3  A    between atoms: N_5  and  C_6 
REMARK    4  A    between atoms: C_6  and  C_7 
REMARK    5  A    between atoms: C_7  and  N_8 
ROOT
HETATM    1  C   UNL     1       3.077  -0.094  -1.468  1.00  0.00     0.242 C 
HETATM    2  O   UNL     1       3.679   0.791  -2.075  1.00  0.00    -0.271 OA
HETATM    3  N   UNL     1       2.736  -1.292  -2.063  1.00  0.00    -0.358 N 
HETATM    4  H   UNL     1       2.346  -2.042  -1.498  1.00  0.00     0.162 HD
ENDROOT
BRANCH   3   5
HETATM    5  C   UNL     1       3.125  -1.566  -3.436  1.00  0.00     0.152 C 
BRANCH   5   6
HETATM    6  C   UNL     1       2.630  -2.933  -3.931  1.00  0.00     0.292 C 
BRANCH   6   7
HETATM    7  N   UNL     1       2.991  -3.245  -5.326  1.00  0.00     0.090 N 
HETATM    8  C   UNL     1       2.426  -2.315  -6.317  1.00  0.00     0.276 C 
HETATM    9  C   UNL     1       0.900  -2.434  -6.477  1.00  0.00     0.010 C 
HETATM   10  C   UNL     1       0.394  -1.465  -7.544  1.00  0.00     0.011 C 
HETATM   11  C   UNL     1       0.514  -3.879  -6.821  1.00  0.00     0.012 C 
HETATM   12  C   UNL     1       1.120  -4.864  -5.812  1.00  0.00     0.010 C 
HETATM   13  C   UNL     1       0.824  -6.308  -6.211  1.00  0.00     0.011 C 
HETATM   14  C   UNL     1       2.637  -4.632  -5.680  1.00  0.00     0.276 C 
ENDBRANCH   6   7
ENDBRANCH   5   6
ENDBRANCH   3   5
BRANCH   1  15
HETATM   15  C   UNL     1       2.608   0.075  -0.030  1.00  0.00     0.196 C 
HETATM   16  C   UNL     1       2.985   1.442   0.535  1.00  0.00     0.044 C 
BRANCH  15  17
HETATM   17  N   UNL     1       3.121  -1.002   0.798  1.00  0.00    -0.273 N 
HETATM   18  C   UNL     1       4.416  -1.314   1.074  1.00  0.00     0.202 A 
HETATM   19  N   UNL     1       4.454  -2.374   1.850  1.00  0.00    -0.346 N 
HETATM   20  C   UNL     1       3.135  -2.684   2.014  1.00  0.00     0.198 A 
ATOM     21  HN  UNL     1       5.270  -2.849   2.236  1.00  0.00     0.167 HD
HETATM   22  N   UNL     1       2.279  -1.891   1.363  1.00  0.00    -0.292 N 
ATOM     23  HN  UNL     1       1.262  -1.944   1.308  1.00  0.00     0.188 HD
ENDBRANCH  15  17
ENDBRANCH   1  15
TORSDOF 5
