REMARK  4 active torsions:
REMARK  status: ('A' for Active; 'I' for Inactive)
REMARK       I    between atoms: C_2  and  N_3 
REMARK    1  A    between atoms: C_2  and  C_12 
REMARK    2  A    between atoms: N_3  and  C_4 
REMARK    3  A    between atoms: C_4  and  C_5 
REMARK    4  A    between atoms: C_5  and  N_6 
ROOT
HETATM    1  O   UNL     1       0.997   0.361  -0.402  1.00  0.00    -0.273 OA
HETATM    2  C   UNL     1       2.153   0.016  -0.176  1.00  0.00     0.221 C 
HETATM    3  N   UNL     1       2.720  -1.086  -0.782  1.00  0.00    -0.359 N 
HETATM    4  H   UNL     1       3.627  -1.410  -0.470  1.00  0.00     0.162 HD
ENDROOT
BRANCH   3   5
HETATM    5  C   UNL     1       1.958  -1.931  -1.685  1.00  0.00     0.143 C 
BRANCH   5   6
HETATM    6  C   UNL     1       1.500  -1.192  -2.944  1.00  0.00     0.148 C 
BRANCH   6   7
HETATM    7  N   UNL     1       0.793  -2.058  -3.860  1.00  0.00    -0.350 N 
HETATM    8  C   UNL     1       1.333  -2.746  -4.909  1.00  0.00     0.108 A 
HETATM    9  C   UNL     1       0.266  -3.382  -5.498  1.00  0.00     0.106 A 
HETATM   10  N   UNL     1      -0.899  -3.099  -4.832  1.00  0.00    -0.361 N 
HETATM   11  C   UNL     1      -0.554  -2.289  -3.857  1.00  0.00     0.182 A 
ATOM     12  HN  UNL     1      -1.834  -3.444  -5.048  1.00  0.00     0.166 HD
ENDBRANCH   6   7
ENDBRANCH   5   6
ENDBRANCH   3   5
BRANCH   2  13
HETATM   13  C   UNL     1       3.103   0.788   0.744  1.00  0.00     0.078 C 
HETATM   14  C   UNL     1       3.562  -0.054   1.940  1.00  0.00     0.014 C 
HETATM   15  C   UNL     1       2.436  -0.279   2.947  1.00  0.00     0.001 C 
HETATM   16  C   UNL     1       1.849   1.043   3.431  1.00  0.00     0.000 C 
HETATM   17  C   UNL     1       1.403   1.936   2.278  1.00  0.00     0.001 C 
HETATM   18  C   UNL     1       2.494   2.115   1.221  1.00  0.00     0.014 C 
ENDBRANCH   2  13
TORSDOF 4
