REMARK  2 active torsions:
REMARK  status: ('A' for Active; 'I' for Inactive)
REMARK       I    between atoms: N_1  and  C_2 
REMARK    1  A    between atoms: C_2  and  C_4 
REMARK    2  A    between atoms: N_9  and  C_10 
ROOT
HETATM    1  C   UNL     1       4.641  -2.210  -1.665  1.00  0.00     0.126 A 
HETATM    2  N   UNL     1       4.685  -3.529  -1.333  1.00  0.00    -0.350 N 
ATOM      3  HN  UNL     1       3.834  -4.007  -1.036  1.00  0.00     0.166 HD
HETATM    4  C   UNL     1       5.857  -4.212  -1.396  1.00  0.00     0.112 A 
HETATM    5  C   UNL     1       7.057  -3.641  -1.766  1.00  0.00     0.061 A 
HETATM    6  C   UNL     1       8.257  -4.415  -1.805  1.00  0.00     0.101 C 
HETATM    7  N   UNL     1       9.231  -5.045  -1.838  1.00  0.00    -0.191 NA
HETATM    8  C   UNL     1       7.037  -2.300  -2.116  1.00  0.00     0.052 A 
HETATM    9  C   UNL     1       5.830  -1.580  -2.087  1.00  0.00     0.079 A 
HETATM   10 CL   UNL     1       5.932   0.026  -2.725  1.00  0.00    -0.080 Cl
ENDROOT
BRANCH   1  11
HETATM   11  N   UNL     1       3.400  -1.632  -1.533  1.00  0.00    -0.348 N 
HETATM   12  C   UNL     1       3.102  -0.196  -1.295  1.00  0.00     0.201 C 
HETATM   13  C   UNL     1       2.275   0.354  -2.472  1.00  0.00     0.202 C 
HETATM   14  O   UNL     1       1.090  -0.429  -2.719  1.00  0.00    -0.387 OA
HETATM   15  C   UNL     1       1.409  -1.802  -2.980  1.00  0.00     0.187 C 
HETATM   16  C   UNL     1       2.202  -2.445  -1.830  1.00  0.00     0.151 C 
BRANCH  12  17
HETATM   17  C   UNL     1       2.348   0.013   0.038  1.00  0.00     0.240 C 
HETATM   18  N   UNL     1       2.704  -0.846   1.045  1.00  0.00    -0.368 N 
HETATM   19  H   UNL     1       2.165  -0.802   1.899  1.00  0.00     0.159 HD
HETATM   20  H   UNL     1       3.164  -1.715   0.796  1.00  0.00     0.159 HD
HETATM   21  O   UNL     1       1.564   0.931   0.262  1.00  0.00    -0.271 OA
ENDBRANCH  12  17
ENDBRANCH   1  11
TORSDOF 2
