REMARK  5 active torsions:
REMARK  status: ('A' for Active; 'I' for Inactive)
REMARK    1  A    between atoms: N_2  and  C_4 
REMARK    2  A    between atoms: C_4  and  C_5 
REMARK    3  A    between atoms: C_5  and  N_6 
REMARK       I    between atoms: N_6  and  C_7 
REMARK       I    between atoms: C_7  and  N_9 
REMARK    4  A    between atoms: N_9  and  C_10 
REMARK    5  A    between atoms: C_14  and  C_18 
ROOT
HETATM    1  C   UNL     1       8.191  -0.456  -4.621  1.00  0.00     0.067 A 
HETATM    2  C   UNL     1       8.838  -1.490  -5.261  1.00  0.00     0.120 A 
HETATM    3  N   UNL     1      10.155  -1.484  -5.563  1.00  0.00    -0.353 N 
ATOM      4  HN  UNL     1      10.599  -2.280  -6.020  1.00  0.00     0.166 HD
HETATM    5  C   UNL     1      10.859  -0.377  -5.234  1.00  0.00     0.085 A 
HETATM    6  N   UNL     1      10.298   0.709  -4.665  1.00  0.00    -0.353 N 
ATOM      7  HN  UNL     1      10.845   1.548  -4.472  1.00  0.00     0.166 HD
HETATM    8  C   UNL     1       8.983   0.642  -4.361  1.00  0.00     0.120 A 
ENDROOT
BRANCH   1   9
HETATM    9  N   UNL     1       6.836  -0.558  -4.243  1.00  0.00    -0.306 N 
HETATM   10  C   UNL     1       6.410  -0.129  -3.000  1.00  0.00     0.320 C 
HETATM   11  N   UNL     1       5.089  -0.442  -2.793  1.00  0.00    -0.341 N 
HETATM   12  O   UNL     1       7.128   0.367  -2.141  1.00  0.00    -0.247 OA
HETATM   13  H   UNL     1       4.470  -0.199  -3.558  1.00  0.00     0.164 HD
HETATM   14  H   UNL     1       6.317  -1.357  -4.582  1.00  0.00     0.171 HD
BRANCH  11  15
HETATM   15  C   UNL     1       4.520  -0.293  -1.465  1.00  0.00     0.154 C 
BRANCH  15  16
HETATM   16  C   UNL     1       4.090   1.146  -1.128  1.00  0.00     0.291 C 
BRANCH  16  17
HETATM   17  N   UNL     1       3.053   1.711  -2.023  1.00  0.00     0.081 N 
HETATM   18  C   UNL     1       1.796   0.964  -1.952  1.00  0.00     0.309 C 
HETATM   19  C   UNL     1       2.801   3.108  -1.638  1.00  0.00     0.309 C 
ENDBRANCH  16  17
ENDBRANCH  15  16
ENDBRANCH  11  15
ENDBRANCH   1   9
BRANCH   5  20
HETATM   20  C   UNL     1      12.351  -0.367  -5.454  1.00  0.00     0.053 A 
HETATM   21  C   UNL     1      12.961   0.592  -6.449  1.00  0.00     0.013 A 
HETATM   22  C   UNL     1      12.955  -0.879  -6.739  1.00  0.00     0.013 A 
ENDBRANCH   5  20
TORSDOF 5
