REMARK  5 active torsions:
REMARK  status: ('A' for Active; 'I' for Inactive)
REMARK    1  A    between atoms: N_2  and  C_4 
REMARK    2  A    between atoms: N_9  and  C_10 
REMARK    3  A    between atoms: C_10  and  C_11 
REMARK       I    between atoms: C_11  and  N_13 
REMARK    4  A    between atoms: N_13  and  C_14 
REMARK    5  A    between atoms: C_14  and  C_15 
ROOT
HETATM    1  C   UNL     1       7.473   3.020  -2.751  1.00  0.00     0.118 A 
HETATM    2  C   UNL     1       8.118   3.490  -3.958  1.00  0.00     0.043 A 
HETATM    3  C   UNL     1       7.746   3.005  -5.154  1.00  0.00     0.077 A 
HETATM    4  C   UNL     1       6.660   1.989  -5.254  1.00  0.00     0.247 A 
HETATM    5  O   UNL     1       6.339   1.539  -6.350  1.00  0.00    -0.268 OA
HETATM    6  N   UNL     1       6.056   1.619  -4.054  1.00  0.00    -0.314 N 
HETATM    7  C   UNL     1       6.483   2.114  -2.823  1.00  0.00     0.130 A 
ENDROOT
BRANCH   6   8
HETATM    8  C   UNL     1       4.856   0.787  -4.114  1.00  0.00     0.234 C 
BRANCH   8   9
HETATM    9  C   UNL     1       5.099  -0.720  -4.084  1.00  0.00     0.235 C 
HETATM   10  O   UNL     1       4.661  -1.406  -3.158  1.00  0.00    -0.272 OA
HETATM   11  N   UNL     1       5.738  -1.273  -5.178  1.00  0.00    -0.359 N 
HETATM   12  H   UNL     1       5.916  -0.679  -5.987  1.00  0.00     0.162 HD
BRANCH  11  13
HETATM   13  C   UNL     1       5.728  -2.718  -5.305  1.00  0.00     0.127 C 
BRANCH  13  14
HETATM   14  C   UNL     1       6.468  -3.147  -6.555  1.00  0.00     0.003 C 
HETATM   15  C   UNL     1       6.560  -4.695  -6.694  1.00  0.00     0.006 C 
HETATM   16  C   UNL     1       7.968  -4.499  -7.281  1.00  0.00     0.001 C 
HETATM   17  C   UNL     1       8.020  -3.150  -6.533  1.00  0.00     0.006 C 
ENDBRANCH  13  14
ENDBRANCH  11  13
ENDBRANCH   8   9
ENDBRANCH   6   8
BRANCH   1  18
HETATM   18  N   UNL     1       7.827   3.560  -1.436  1.00  0.00    -0.114 N 
HETATM   19  O   UNL     1       8.721   4.417  -1.400  1.00  0.00    -0.532 OA
HETATM   20  O   UNL     1       7.211   3.146  -0.444  1.00  0.00    -0.532 OA
ENDBRANCH   1  18
TORSDOF 5
