REMARK  8 active torsions:
REMARK  status: ('A' for Active; 'I' for Inactive)
REMARK    1  A    between atoms: O_1  and  C_2 
REMARK    2  A    between atoms: C_4  and  C_19 
REMARK    3  A    between atoms: C_7  and  S_8 
REMARK    4  A    between atoms: S_8  and  C_9 
REMARK    5  A    between atoms: C_9  and  C_10 
REMARK    6  A    between atoms: C_10  and  O_11 
REMARK    7  A    between atoms: O_11  and  C_12 
REMARK    8  A    between atoms: C_12  and  C_13 
ROOT
HETATM    1  C   UNL     1       2.558  -0.110  -0.156  1.00  0.00     0.143 A 
HETATM    2  C   UNL     1       3.293  -1.270  -0.083  1.00  0.00     0.081 A 
HETATM    3  C   UNL     1       4.666  -1.124  -0.059  1.00  0.00     0.019 A 
HETATM    4  N   UNL     1       5.227   0.103  -0.097  1.00  0.00    -0.340 N 
ATOM      5  HN  UNL     1       6.241   0.215  -0.075  1.00  0.00     0.168 HD
HETATM    6  C   UNL     1       4.417   1.172  -0.164  1.00  0.00     0.146 A 
HETATM    7  N   UNL     1       3.085   1.116  -0.199  1.00  0.00    -0.318 N 
ATOM      8  HN  UNL     1       2.507   1.955  -0.255  1.00  0.00     0.170 HD
ENDROOT
BRANCH   6   9
HETATM    9  S   UNL     1       5.228   2.751  -0.189  1.00  0.00    -0.092 SA
BRANCH   9  10
HETATM   10  C   UNL     1       3.793   3.870  -0.232  1.00  0.00     0.108 C 
BRANCH  10  11
HETATM   11  C   UNL     1       4.289   5.314  -0.242  1.00  0.00     0.178 C 
BRANCH  11  12
HETATM   12  O   UNL     1       3.171   6.206  -0.300  1.00  0.00    -0.382 OA
BRANCH  12  13
HETATM   13  C   UNL     1       3.598   7.579  -0.306  1.00  0.00     0.285 C 
BRANCH  13  14
HETATM   14  C   UNL     1       2.444   8.583  -0.376  1.00  0.00     0.408 C 
HETATM   15  F   UNL     1       1.228   7.997  -0.374  1.00  0.00    -0.169 F 
HETATM   16  F   UNL     1       2.487   9.434   0.677  1.00  0.00    -0.169 F 
HETATM   17  F   UNL     1       2.531   9.336  -1.499  1.00  0.00    -0.169 F 
ENDBRANCH  13  14
ENDBRANCH  12  13
ENDBRANCH  11  12
ENDBRANCH  10  11
ENDBRANCH   9  10
ENDBRANCH   6   9
BRANCH   3  18
HETATM   18  C   UNL     1       5.600  -2.306   0.058  1.00  0.00     0.036 A 
HETATM   19  C   UNL     1       6.575  -2.562  -1.072  1.00  0.00     0.011 A 
HETATM   20  C   UNL     1       5.474  -3.542  -0.800  1.00  0.00     0.011 A 
ENDBRANCH   3  18
BRANCH   1  21
HETATM   21  O   UNL     1       1.195  -0.138  -0.184  1.00  0.00    -0.346 OA
HETATM   22  H   UNL     1       0.900  -1.058  -0.138  1.00  0.00     0.219 HD
ENDBRANCH   1  21
TORSDOF 8
