REMARK  7 active torsions:
REMARK  status: ('A' for Active; 'I' for Inactive)
REMARK    1  A    between atoms: N_4  and  C_8 
REMARK    2  A    between atoms: C_11  and  C_12 
REMARK    3  A    between atoms: C_12  and  N_13 
REMARK       I    between atoms: N_13  and  C_14 
REMARK    4  A    between atoms: C_14  and  C_16 
REMARK    5  A    between atoms: C_16  and  O_17 
REMARK    6  A    between atoms: O_17  and  C_18 
REMARK    7  A    between atoms: C_18  and  C_19 
ROOT
HETATM    1  C   UNL     1       1.955   1.378  -3.353  1.00  0.00     0.103 A 
HETATM    2  C   UNL     1       1.198   0.899  -4.422  1.00  0.00     0.049 A 
HETATM    3  C   UNL     1       0.663   1.775  -5.370  1.00  0.00     0.014 A 
HETATM    4  C   UNL     1       0.884   3.136  -5.248  1.00  0.00    -0.025 A 
HETATM    5  C   UNL     1       1.588   3.553  -4.131  1.00  0.00     0.098 A 
HETATM    6  N   UNL     1       2.111   2.713  -3.205  1.00  0.00    -0.352 N 
ATOM      7  HN  UNL     1       2.619   3.085  -2.402  1.00  0.00     0.166 HD
ENDROOT
BRANCH   4   8
HETATM    8  C   UNL     1       0.441   4.105  -6.302  1.00  0.00     0.162 C 
BRANCH   8   9
HETATM    9  N   UNL     1      -0.942   4.494  -6.185  1.00  0.00    -0.355 N 
HETATM   10  C   UNL     1      -1.500   5.260  -7.191  1.00  0.00     0.241 C 
HETATM   11  O   UNL     1      -0.925   5.508  -8.248  1.00  0.00    -0.271 OA
HETATM   12  H   UNL     1      -1.351   4.598  -5.262  1.00  0.00     0.162 HD
BRANCH  10  13
HETATM   13  C   UNL     1      -2.930   5.718  -6.917  1.00  0.00     0.270 C 
BRANCH  13  14
HETATM   14  O   UNL     1      -3.047   6.323  -5.632  1.00  0.00    -0.373 OA
BRANCH  14  15
HETATM   15  C   UNL     1      -4.367   6.858  -5.425  1.00  0.00     0.285 C 
BRANCH  15  16
HETATM   16  C   UNL     1      -4.510   7.631  -4.112  1.00  0.00     0.408 C 
HETATM   17  F   UNL     1      -3.328   7.815  -3.483  1.00  0.00    -0.169 F 
HETATM   18  F   UNL     1      -5.050   8.852  -4.331  1.00  0.00    -0.169 F 
HETATM   19  F   UNL     1      -5.330   6.976  -3.257  1.00  0.00    -0.169 F 
ENDBRANCH  15  16
ENDBRANCH  14  15
ENDBRANCH  13  14
ENDBRANCH  10  13
ENDBRANCH   8   9
ENDBRANCH   4   8
BRANCH   1  20
HETATM   20  N   UNL     1       2.506   0.547  -2.406  1.00  0.00    -0.363 N 
HETATM   21  C   UNL     1       3.277   1.117  -1.290  1.00  0.00     0.155 C 
HETATM   22  C   UNL     1       2.928   0.346   0.005  1.00  0.00     0.135 C 
HETATM   23  C   UNL     1       1.525   0.689   0.509  1.00  0.00     0.041 C 
HETATM   24  O   UNL     1       3.097  -1.080  -0.150  1.00  0.00    -0.383 OA
HETATM   25  C   UNL     1       2.387  -1.609  -1.282  1.00  0.00     0.188 C 
HETATM   26  C   UNL     1       2.755  -0.885  -2.586  1.00  0.00     0.150 C 
ENDBRANCH   1  20
TORSDOF 7
