REMARK  4 active torsions:
REMARK  status: ('A' for Active; 'I' for Inactive)
REMARK    1  A    between atoms: C_2  and  C_5 
REMARK    2  A    between atoms: C_7  and  N_17 
REMARK    3  A    between atoms: C_10  and  C_13 
REMARK    4  A    between atoms: C_21  and  C_23 
REMARK       I    between atoms: C_23  and  N_25 
ROOT
HETATM    1  C   UNL     1       2.863  -1.421  -0.478  1.00  0.00     0.021 A 
HETATM    2  C   UNL     1       2.272  -2.553   0.052  1.00  0.00     0.074 A 
HETATM    3  C   UNL     1       2.660  -3.793  -0.412  1.00  0.00     0.106 A 
HETATM    4  N   UNL     1       3.594  -3.884  -1.374  1.00  0.00    -0.332 N 
ATOM      5  HN  UNL     1       3.882  -4.794  -1.733  1.00  0.00     0.168 HD
HETATM    6  C   UNL     1       4.143  -2.752  -1.855  1.00  0.00     0.090 A 
HETATM    7  N   UNL     1       3.810  -1.518  -1.430  1.00  0.00    -0.348 N 
ATOM      8  HN  UNL     1       4.259  -0.687  -1.815  1.00  0.00     0.167 HD
ENDROOT
BRANCH   3   9
HETATM    9  N   UNL     1       2.103  -4.950   0.085  1.00  0.00    -0.362 N 
HETATM   10  C   UNL     1       1.475  -5.068   1.401  1.00  0.00     0.150 C 
HETATM   11  C   UNL     1       2.105  -6.237   2.177  1.00  0.00     0.189 C 
HETATM   12  O   UNL     1       2.072  -7.463   1.431  1.00  0.00    -0.373 OA
HETATM   13  C   UNL     1       2.800  -7.310   0.188  1.00  0.00     0.230 C 
HETATM   14  C   UNL     1       2.187  -6.203  -0.684  1.00  0.00     0.166 C 
BRANCH  13  15
HETATM   15  C   UNL     1       2.779  -8.640  -0.570  1.00  0.00     0.246 C 
HETATM   16  O   UNL     1       2.748  -8.754  -1.790  1.00  0.00    -0.271 OA
HETATM   17  N   UNL     1       2.868  -9.748   0.231  1.00  0.00    -0.368 N 
HETATM   18  H   UNL     1       2.572  -9.650   1.197  1.00  0.00     0.159 HD
HETATM   19  H   UNL     1       2.745 -10.644  -0.220  1.00  0.00     0.159 HD
ENDBRANCH  13  15
ENDBRANCH   3   9
BRANCH   1  20
HETATM   20  C   UNL     1       2.444  -0.028   0.003  1.00  0.00    -0.009 C 
HETATM   21  C   UNL     1       2.748   0.116   1.508  1.00  0.00     0.021 C 
HETATM   22  C   UNL     1       0.935   0.185  -0.236  1.00  0.00     0.021 C 
HETATM   23  C   UNL     1       3.204   1.084  -0.749  1.00  0.00     0.021 C 
ENDBRANCH   1  20
BRANCH   6  24
HETATM   24  C   UNL     1       5.187  -2.852  -2.970  1.00  0.00     0.007 C 
HETATM   25  C   UNL     1       5.495  -4.315  -3.346  1.00  0.00     0.022 C 
HETATM   26  C   UNL     1       4.658  -2.130  -4.223  1.00  0.00     0.022 C 
HETATM   27  C   UNL     1       6.500  -2.186  -2.518  1.00  0.00     0.022 C 
ENDBRANCH   6  24
TORSDOF 4
