REMARK  5 active torsions:
REMARK  status: ('A' for Active; 'I' for Inactive)
REMARK    1  A    between atoms: C_2  and  C_5 
REMARK    2  A    between atoms: C_5  and  N_6 
REMARK       I    between atoms: N_6  and  C_7 
REMARK       I    between atoms: C_7  and  N_9 
REMARK    3  A    between atoms: N_9  and  C_10 
REMARK    4  A    between atoms: C_10  and  C_11 
REMARK    5  A    between atoms: C_17  and  N_18 
ROOT
HETATM    1  C   UNL     1       8.621   1.942   3.100  1.00  0.00     0.004 A 
HETATM    2  C   UNL     1       9.533   2.998   2.879  1.00  0.00     0.014 A 
HETATM    3  C   UNL     1      10.895   2.762   2.869  1.00  0.00     0.018 A 
HETATM    4  C   UNL     1      11.310   1.466   3.054  1.00  0.00     0.089 A 
HETATM    5  N   UNL     1      10.465   0.428   3.233  1.00  0.00    -0.352 N 
ATOM      6  HN  UNL     1      10.836  -0.515   3.348  1.00  0.00     0.166 HD
HETATM    7  C   UNL     1       9.123   0.636   3.261  1.00  0.00     0.111 A 
ENDROOT
BRANCH   1   8
HETATM    8  C   UNL     1       7.175   2.332   3.254  1.00  0.00     0.166 C 
BRANCH   8   9
HETATM    9  N   UNL     1       6.481   2.465   1.988  1.00  0.00    -0.339 N 
HETATM   10  C   UNL     1       5.150   2.769   1.976  1.00  0.00     0.316 C 
HETATM   11  N   UNL     1       4.621   2.799   0.715  1.00  0.00    -0.335 N 
HETATM   12  O   UNL     1       4.498   3.030   2.979  1.00  0.00    -0.247 OA
HETATM   13  H   UNL     1       5.080   2.242   0.010  1.00  0.00     0.164 HD
HETATM   14  H   UNL     1       6.920   2.099   1.157  1.00  0.00     0.164 HD
BRANCH  11  15
HETATM   15  C   UNL     1       3.187   3.056   0.543  1.00  0.00     0.241 C 
BRANCH  15  16
HETATM   16  C   UNL     1       2.260   1.848   0.745  1.00  0.00     0.403 C 
HETATM   17  F   UNL     1       2.955   0.702   0.935  1.00  0.00    -0.169 F 
HETATM   18  F   UNL     1       1.495   1.662  -0.360  1.00  0.00    -0.169 F 
HETATM   19  F   UNL     1       1.423   2.011   1.791  1.00  0.00    -0.169 F 
ENDBRANCH  15  16
ENDBRANCH  11  15
ENDBRANCH   8   9
ENDBRANCH   1   8
BRANCH   7  20
HETATM   20  N   UNL     1       8.356  -0.481   3.493  1.00  0.00    -0.363 N 
HETATM   21  C   UNL     1       8.939  -1.619   4.230  1.00  0.00     0.150 C 
HETATM   22  C   UNL     1       8.811  -2.928   3.435  1.00  0.00     0.187 C 
HETATM   23  O   UNL     1       7.462  -3.164   3.000  1.00  0.00    -0.388 OA
HETATM   24  C   UNL     1       7.029  -2.084   2.165  1.00  0.00     0.187 C 
HETATM   25  C   UNL     1       7.036  -0.748   2.920  1.00  0.00     0.150 C 
ENDBRANCH   7  20
TORSDOF 5
