REMARK  5 active torsions:
REMARK  status: ('A' for Active; 'I' for Inactive)
REMARK    1  A    between atoms: O_2  and  C_3 
REMARK    2  A    between atoms: C_6  and  N_7 
REMARK       I    between atoms: N_7  and  C_8 
REMARK       I    between atoms: C_8  and  N_10 
REMARK    3  A    between atoms: N_10  and  C_11 
REMARK    4  A    between atoms: C_11  and  C_12 
REMARK    5  A    between atoms: C_12  and  N_13 
ROOT
HETATM    1  N   UNL     1       6.125   4.350   4.813  1.00  0.00    -0.308 N 
HETATM    2  C   UNL     1       7.207   3.639   5.254  1.00  0.00     0.320 C 
HETATM    3  O   UNL     1       8.344   4.022   5.008  1.00  0.00    -0.247 OA
HETATM    4  N   UNL     1       6.921   2.570   6.062  1.00  0.00    -0.341 N 
HETATM    5  H   UNL     1       6.337   5.311   4.581  1.00  0.00     0.170 HD
HETATM    6  H   UNL     1       6.017   2.573   6.514  1.00  0.00     0.164 HD
ENDROOT
BRANCH   1   7
HETATM    7  C   UNL     1       4.797   3.909   4.762  1.00  0.00     0.051 A 
HETATM    8  C   UNL     1       4.463   2.625   4.327  1.00  0.00     0.035 A 
HETATM    9  C   UNL     1       3.132   2.223   4.353  1.00  0.00     0.058 A 
HETATM   10  C   UNL     1       2.189   3.114   4.836  1.00  0.00     0.141 A 
HETATM   11  N   UNL     1       2.474   4.378   5.222  1.00  0.00    -0.345 N 
HETATM   12  C   UNL     1       3.769   4.755   5.153  1.00  0.00     0.119 A 
ATOM     13  HN  UNL     1       1.747   5.015   5.549  1.00  0.00     0.167 HD
BRANCH  10  14
HETATM   14  O   UNL     1       0.897   2.640   4.936  1.00  0.00    -0.341 OA
HETATM   15  C   UNL     1       0.021   3.567   5.569  1.00  0.00     0.211 C 
ENDBRANCH  10  14
ENDBRANCH   1   7
BRANCH   4  16
HETATM   16  C   UNL     1       7.963   1.761   6.663  1.00  0.00     0.154 C 
BRANCH  16  17
HETATM   17  C   UNL     1       8.791   2.506   7.733  1.00  0.00     0.292 C 
BRANCH  17  18
HETATM   18  N   UNL     1       9.820   1.685   8.404  1.00  0.00     0.090 N 
HETATM   19  C   UNL     1      10.572   2.475   9.396  1.00  0.00     0.272 C 
HETATM   20  C   UNL     1      11.554   3.481   8.784  1.00  0.00     0.031 C 
HETATM   21  C   UNL     1      12.502   2.808   7.795  1.00  0.00     0.007 C 
HETATM   22  C   UNL     1      11.727   1.975   6.768  1.00  0.00     0.010 C 
HETATM   23  C   UNL     1      12.689   1.191   5.876  1.00  0.00     0.011 C 
HETATM   24  C   UNL     1      10.757   1.019   7.484  1.00  0.00     0.276 C 
ENDBRANCH  17  18
ENDBRANCH  16  17
ENDBRANCH   4  16
TORSDOF 5
