REMARK  5 active torsions:
REMARK  status: ('A' for Active; 'I' for Inactive)
REMARK    1  A    between atoms: O_2  and  C_3 
REMARK    2  A    between atoms: C_6  and  N_7 
REMARK       I    between atoms: N_7  and  C_8 
REMARK       I    between atoms: C_8  and  N_10 
REMARK    3  A    between atoms: N_10  and  C_11 
REMARK    4  A    between atoms: N_14  and  C_15 
REMARK    5  A    between atoms: C_15  and  C_16 
ROOT
HETATM    1  C   UNL     1       6.503  -2.356  -8.445  1.00  0.00     0.123 C 
HETATM    2  C   UNL     1       7.045  -3.009  -9.645  1.00  0.00    -0.116 C 
HETATM    3  C   UNL     1       7.524  -3.537 -10.612  1.00  0.00     0.012 C 
ENDROOT
BRANCH   1   4
HETATM    4  C   UNL     1       5.620  -1.150  -8.814  1.00  0.00     0.284 C 
BRANCH   4   5
HETATM    5  N   UNL     1       5.002  -0.479  -7.651  1.00  0.00     0.089 N 
HETATM    6  C   UNL     1       4.070   0.584  -8.073  1.00  0.00     0.274 C 
HETATM    7  C   UNL     1       4.749   1.865  -8.567  1.00  0.00     0.055 C 
HETATM    8  C   UNL     1       5.787   2.380  -7.565  1.00  0.00     0.089 C 
HETATM    9  C   UNL     1       6.739   1.260  -7.155  1.00  0.00     0.055 C 
HETATM   10  C   UNL     1       5.969   0.034  -6.672  1.00  0.00     0.274 C 
BRANCH   8  11
HETATM   11  N   UNL     1       5.155   2.980  -6.391  1.00  0.00    -0.338 N 
HETATM   12  C   UNL     1       4.814   4.309  -6.384  1.00  0.00     0.321 C 
HETATM   13  N   UNL     1       4.213   4.684  -5.200  1.00  0.00    -0.308 N 
HETATM   14  O   UNL     1       5.060   5.046  -7.330  1.00  0.00    -0.247 OA
HETATM   15  H   UNL     1       3.815   3.950  -4.635  1.00  0.00     0.170 HD
HETATM   16  H   UNL     1       4.709   2.372  -5.723  1.00  0.00     0.164 HD
BRANCH  13  17
HETATM   17  C   UNL     1       3.892   6.016  -4.850  1.00  0.00     0.051 A 
HETATM   18  C   UNL     1       4.463   7.125  -5.469  1.00  0.00     0.035 A 
HETATM   19  C   UNL     1       4.052   8.407  -5.117  1.00  0.00     0.058 A 
HETATM   20  C   UNL     1       3.084   8.540  -4.139  1.00  0.00     0.141 A 
HETATM   21  N   UNL     1       2.544   7.497  -3.471  1.00  0.00    -0.345 N 
HETATM   22  C   UNL     1       2.969   6.263  -3.836  1.00  0.00     0.119 A 
ATOM     23  HN  UNL     1       1.854   7.631  -2.732  1.00  0.00     0.167 HD
BRANCH  20  24
HETATM   24  O   UNL     1       2.676   9.829  -3.862  1.00  0.00    -0.341 OA
HETATM   25  C   UNL     1       1.600   9.877  -2.934  1.00  0.00     0.211 C 
ENDBRANCH  20  24
ENDBRANCH  13  17
ENDBRANCH   8  11
ENDBRANCH   4   5
ENDBRANCH   1   4
TORSDOF 5
