REMARK  6 active torsions:
REMARK  status: ('A' for Active; 'I' for Inactive)
REMARK    1  A    between atoms: C_2  and  C_3 
REMARK       I    between atoms: C_2  and  N_11 
REMARK    2  A    between atoms: C_3  and  C_4 
REMARK    3  A    between atoms: C_4  and  C_5 
REMARK    4  A    between atoms: N_11  and  C_12 
REMARK    5  A    between atoms: C_12  and  C_13 
REMARK    6  A    between atoms: C_13  and  C_14 
ROOT
HETATM    1  O   UNL     1       0.834   0.307   0.017  1.00  0.00    -0.274 OA
HETATM    2  C   UNL     1       2.056   0.317   0.109  1.00  0.00     0.217 C 
HETATM    3  N   UNL     1       2.872   1.090  -0.694  1.00  0.00    -0.361 N 
HETATM    4  H   UNL     1       3.876   1.002  -0.599  1.00  0.00     0.162 HD
ENDROOT
BRANCH   3   5
HETATM    5  C   UNL     1       2.355   1.878  -1.801  1.00  0.00     0.127 C 
BRANCH   5   6
HETATM    6  C   UNL     1       1.616   3.137  -1.339  1.00  0.00     0.059 C 
BRANCH   6   7
HETATM    7  C   UNL     1       1.160   3.988  -2.491  1.00  0.00    -0.041 A 
HETATM    8  C   UNL     1      -0.076   3.772  -3.108  1.00  0.00     0.010 A 
HETATM    9  C   UNL     1      -0.472   4.585  -4.167  1.00  0.00     0.018 A 
HETATM   10  C   UNL     1       0.388   5.588  -4.582  1.00  0.00     0.087 A 
HETATM   11  N   UNL     1       1.594   5.821  -4.021  1.00  0.00    -0.375 N 
HETATM   12  C   UNL     1       1.951   5.020  -2.992  1.00  0.00     0.094 A 
ATOM     13  HN  UNL     1       2.206   6.565  -4.357  1.00  0.00     0.164 HD
ENDBRANCH   6   7
ENDBRANCH   5   6
ENDBRANCH   3   5
BRANCH   2  14
HETATM   14  C   UNL     1       2.836  -0.487   1.138  1.00  0.00     0.103 C 
BRANCH  14  15
HETATM   15  C   UNL     1       2.028  -1.646   1.730  1.00  0.00     0.014 C 
BRANCH  15  16
HETATM   16  C   UNL     1       2.802  -2.456   2.800  1.00  0.00    -0.014 C 
HETATM   17  C   UNL     1       4.113  -3.078   2.289  1.00  0.00     0.004 C 
HETATM   18  C   UNL     1       3.874  -4.210   1.293  1.00  0.00     0.000 C 
HETATM   19  C   UNL     1       2.996  -5.300   1.898  1.00  0.00     0.000 C 
HETATM   20  C   UNL     1       1.690  -4.742   2.457  1.00  0.00     0.000 C 
HETATM   21  C   UNL     1       1.923  -3.567   3.408  1.00  0.00     0.004 C 
ENDBRANCH  15  16
ENDBRANCH  14  15
ENDBRANCH   2  14
TORSDOF 6
