REMARK  10 active torsions:
REMARK  status: ('A' for Active; 'I' for Inactive)
REMARK    1  A    between atoms: N_1  and  C1*_2 
REMARK    2  A    between atoms: C2*_7  and  O2*_26 
REMARK    3  A    between atoms: C_8  and  C_20 
REMARK    4  A    between atoms: C3*_12  and  O3*_27 
REMARK    5  A    between atoms: C4*_13  and  C5*_29 
REMARK    6  A    between atoms: C_15  and  N_23 
REMARK    7  A    between atoms: C_20  and  C_25 
REMARK    8  A    between atoms: C_20  and  O_28 
REMARK    9  A    between atoms: N_23  and  C_25 
REMARK   10  A    between atoms: C5*_29  and  O5*_31 
ROOT
HETATM    1  N   UNL     1       2.884   2.290  -1.335  1.00  0.00    -0.297 N 
HETATM    2  C   UNL     1       3.378   1.067  -1.694  1.00  0.00     0.142 A 
HETATM    3  C   UNL     1       4.276   1.332  -2.719  1.00  0.00     0.122 A 
HETATM    4  N   UNL     1       4.249   2.666  -3.062  1.00  0.00    -0.346 N 
ATOM      5  HN  UNL     1       4.797   3.136  -3.783  1.00  0.00     0.167 HD
HETATM    6  C   UNL     1       3.362   3.198  -2.256  1.00  0.00     0.188 C 
HETATM    7  C   UNL     1       5.046   0.259  -3.206  1.00  0.00     0.133 A 
HETATM    8  N   UNL     1       3.109  -0.139  -1.165  1.00  0.00    -0.336 N 
ATOM      9  HN  UNL     1       2.433  -0.303  -0.419  1.00  0.00     0.168 HD
HETATM   10  N   UNL     1       4.809  -0.974  -2.691  1.00  0.00    -0.337 N 
ATOM     11  HN  UNL     1       5.343  -1.783  -3.008  1.00  0.00     0.168 HD
HETATM   12  C   UNL     1       3.849  -1.104  -1.749  1.00  0.00     0.183 A 
ENDROOT
BRANCH   7  13
HETATM   13  N   UNL     1       6.011   0.472  -4.171  1.00  0.00    -0.371 N 
HETATM   14  H   UNL     1       5.807   1.266  -4.775  1.00  0.00     0.161 HD
BRANCH  13  15
HETATM   15  C   UNL     1       6.805  -0.621  -4.707  1.00  0.00     0.163 C 
BRANCH  15  16
HETATM   16  C   UNL     1       7.361  -0.290  -6.134  1.00  0.00     0.099 C 
HETATM   17  C   UNL     1       8.245   0.969  -6.088  1.00  0.00     0.053 C 
BRANCH  16  18
HETATM   18  C   UNL     1       8.119  -1.460  -6.739  1.00  0.00     0.009 A 
HETATM   19  C   UNL     1       8.675  -1.539  -8.009  1.00  0.00     0.059 A 
HETATM   20  O   UNL     1       9.279  -2.745  -8.199  1.00  0.00    -0.320 OA
HETATM   21  C   UNL     1       8.761  -0.612  -9.160  1.00  0.00     0.077 C 
HETATM   22  C   UNL     1       9.114  -3.464  -7.061  1.00  0.00     0.050 A 
HETATM   23  C   UNL     1       8.414  -2.724  -6.135  1.00  0.00     0.045 A 
HETATM   24  C   UNL     1       9.692  -4.822  -7.054  1.00  0.00     0.076 C 
ENDBRANCH  16  18
BRANCH  16  25
HETATM   25  O   UNL     1       6.235   0.033  -6.976  1.00  0.00    -0.384 OA
HETATM   26  H   UNL     1       5.620  -0.719  -6.906  1.00  0.00     0.211 HD
ENDBRANCH  16  25
ENDBRANCH  15  16
ENDBRANCH  13  15
ENDBRANCH   7  13
BRANCH   1  27
HETATM   27  C1* UNL     1       2.011   2.658  -0.233  1.00  0.00     0.262 C 
HETATM   28  C2* UNL     1       1.997   1.772   1.026  1.00  0.00     0.198 C 
HETATM   29  C3* UNL     1       2.499   2.669   2.161  1.00  0.00     0.182 C 
HETATM   30  C4* UNL     1       3.114   3.873   1.463  1.00  0.00     0.179 C 
HETATM   31  O4* UNL     1       2.414   3.984   0.208  1.00  0.00    -0.353 OA
BRANCH  28  32
HETATM   32  O2* UNL     1       0.661   1.320   1.309  1.00  0.00    -0.388 OA
HETATM   33  H2* UNL     1       0.403   1.762   2.148  1.00  0.00     0.210 HD
ENDBRANCH  28  32
BRANCH  29  34
HETATM   34  O3* UNL     1       1.376   3.039   2.984  1.00  0.00    -0.390 OA
HETATM   35  H3* UNL     1       1.142   3.969   2.806  1.00  0.00     0.210 HD
ENDBRANCH  29  34
BRANCH  30  36
HETATM   36  C5* UNL     1       4.626   3.727   1.247  1.00  0.00     0.198 C 
BRANCH  36  37
HETATM   37  O5* UNL     1       5.149   4.887   0.608  1.00  0.00    -0.398 OA
HETATM   38  H5* UNL     1       4.875   4.856  -0.327  1.00  0.00     0.209 HD
ENDBRANCH  36  37
ENDBRANCH  30  36
ENDBRANCH   1  27
TORSDOF 10
