REMARK  4 active torsions:
REMARK  status: ('A' for Active; 'I' for Inactive)
REMARK    1  A    between atoms: C_2  and  C_3 
REMARK    2  A    between atoms: C_2  and  N_11 
REMARK    3  A    between atoms: C_3  and  N_4 
REMARK       I    between atoms: N_11  and  C_12 
REMARK       I    between atoms: C_12  and  N_14 
REMARK    4  A    between atoms: C_18  and  C_19 
ROOT
HETATM    1  N   UNL     1       3.334   1.494   0.759  1.00  0.00    -0.337 N 
HETATM    2  C   UNL     1       4.516   1.740   0.117  1.00  0.00     0.319 C 
HETATM    3  O   UNL     1       5.141   0.851  -0.452  1.00  0.00    -0.247 OA
HETATM    4  N   UNL     1       4.918   3.053   0.100  1.00  0.00    -0.329 N 
HETATM    5  C   UNL     1       5.976   3.467  -0.808  1.00  0.00     0.128 C 
HETATM    6  C   UNL     1       5.990   4.993  -0.762  1.00  0.00     0.022 C 
HETATM    7  C   UNL     1       4.766   5.378   0.072  1.00  0.00     0.027 C 
HETATM    8  C   UNL     1       4.521   4.162   0.962  1.00  0.00     0.093 C 
HETATM    9  H   UNL     1       2.725   2.287   0.882  1.00  0.00     0.164 HD
ENDROOT
BRANCH   1  10
HETATM   10  C   UNL     1       2.731   0.155   0.807  1.00  0.00     0.100 C 
HETATM   11  C   UNL     1       1.489   0.216   1.702  1.00  0.00     0.034 C 
BRANCH  10  12
HETATM   12  C   UNL     1       2.390  -0.400  -0.597  1.00  0.00     0.155 C 
BRANCH  12  13
HETATM   13  N   UNL     1       1.862  -1.746  -0.586  1.00  0.00    -0.335 N 
HETATM   14  C   UNL     1       2.577  -2.904  -0.596  1.00  0.00     0.200 A 
HETATM   15  N   UNL     1       1.748  -3.924  -0.608  1.00  0.00    -0.295 N 
HETATM   16  N   UNL     1       0.466  -3.422  -0.632  1.00  0.00    -0.295 N 
ATOM     17  HN  UNL     1       2.008  -4.910  -0.601  1.00  0.00     0.187 HD
HETATM   18  C   UNL     1       0.553  -2.112  -0.636  1.00  0.00     0.200 A 
ATOM     19  HN  UNL     1      -0.395  -3.969  -0.644  1.00  0.00     0.187 HD
ENDBRANCH  12  13
ENDBRANCH  10  12
ENDBRANCH   1  10
BRANCH   8  20
HETATM   20  C   UNL     1       5.469   4.167   2.164  1.00  0.00     0.009 C 
HETATM   21  C   UNL     1       5.344   3.026   3.211  1.00  0.00     0.007 C 
HETATM   22  C   UNL     1       5.672   4.080   4.289  1.00  0.00     0.001 C 
HETATM   23  C   UNL     1       5.104   5.138   3.321  1.00  0.00     0.007 C 
ENDBRANCH   8  20
TORSDOF 4
