REMARK  5 active torsions:
REMARK  status: ('A' for Active; 'I' for Inactive)
REMARK       I    between atoms: N_4  and  C_13 
REMARK    1  A    between atoms: N_7  and  C_8 
REMARK    2  A    between atoms: C_8  and  C_9 
REMARK       I    between atoms: C_13  and  N_15 
REMARK    3  A    between atoms: N_15  and  C_16 
REMARK    4  A    between atoms: C_16  and  C_17 
REMARK    5  A    between atoms: C_17  and  C_18 
ROOT
HETATM    1  C   UNL     1       0.827   0.144   0.144  1.00  0.00     0.044 C 
HETATM    2  C   UNL     1       2.352   0.020  -0.009  1.00  0.00     0.237 C 
HETATM    3  C   UNL     1       2.868   1.097  -1.007  1.00  0.00     0.163 C 
HETATM    4  N   UNL     1       2.520   0.753  -2.390  1.00  0.00    -0.331 N 
HETATM    5  C   UNL     1       2.978  -0.580  -2.783  1.00  0.00     0.158 C 
HETATM    6  C   UNL     1       2.482  -1.658  -1.795  1.00  0.00     0.293 C 
HETATM    7  N   UNL     1       2.839  -1.332  -0.396  1.00  0.00     0.104 N 
HETATM    8  C   UNL     1       1.643   1.419  -3.220  1.00  0.00     0.318 C 
HETATM    9  O   UNL     1       1.261   0.957  -4.293  1.00  0.00    -0.247 OA
HETATM   10  N   UNL     1       1.200   2.639  -2.769  1.00  0.00    -0.343 N 
HETATM   11  H   UNL     1       1.893   3.160  -2.256  1.00  0.00     0.164 HD
ENDROOT
BRANCH  10  12
HETATM   12  C   UNL     1       0.328   3.426  -3.632  1.00  0.00     0.129 C 
BRANCH  12  13
HETATM   13  C   UNL     1      -0.176   4.692  -2.943  1.00  0.00     0.060 C 
BRANCH  13  14
HETATM   14  C   UNL     1      -1.099   5.502  -3.814  1.00  0.00    -0.041 A 
HETATM   15  C   UNL     1      -0.616   6.504  -4.659  1.00  0.00     0.010 A 
HETATM   16  C   UNL     1      -1.508   7.234  -5.442  1.00  0.00     0.018 A 
HETATM   17  C   UNL     1      -2.855   6.931  -5.361  1.00  0.00     0.087 A 
HETATM   18  N   UNL     1      -3.358   5.962  -4.570  1.00  0.00    -0.375 N 
HETATM   19  C   UNL     1      -2.469   5.270  -3.819  1.00  0.00     0.094 A 
ATOM     20  HN  UNL     1      -4.357   5.760  -4.539  1.00  0.00     0.164 HD
ENDBRANCH  13  14
ENDBRANCH  12  13
ENDBRANCH  10  12
BRANCH   7  21
HETATM   21  C   UNL     1       2.437  -2.397   0.557  1.00  0.00     0.389 C 
BRANCH  21  22
HETATM   22  C   UNL     1       3.075  -3.804   0.434  1.00  0.00     0.413 C 
HETATM   23  F   UNL     1       4.024  -3.883  -0.524  1.00  0.00    -0.169 F 
HETATM   24  F   UNL     1       3.652  -4.174   1.602  1.00  0.00    -0.169 F 
HETATM   25  F   UNL     1       2.129  -4.730   0.145  1.00  0.00    -0.169 F 
ENDBRANCH  21  22
ENDBRANCH   7  21
TORSDOF 5
