REMARK  4 active torsions:
REMARK  status: ('A' for Active; 'I' for Inactive)
REMARK    1  A    between atoms: C_2  and  C_3 
REMARK    2  A    between atoms: C_2  and  N_10 
REMARK    3  A    between atoms: C_3  and  N_4 
REMARK       I    between atoms: N_10  and  C_11 
REMARK    4  A    between atoms: C_11  and  C_13 
ROOT
HETATM    1  N   UNL     1       3.045  -0.189   1.453  1.00  0.00    -0.355 N 
HETATM    2  C   UNL     1       4.406  -0.267   1.627  1.00  0.00     0.222 C 
HETATM    3  O   UNL     1       5.196  -0.205   0.691  1.00  0.00    -0.273 OA
HETATM    4  H   UNL     1       2.456  -0.075   2.269  1.00  0.00     0.162 HD
ENDROOT
BRANCH   1   5
HETATM    5  C   UNL     1       2.465  -0.023   0.120  1.00  0.00     0.098 C 
HETATM    6  C   UNL     1       1.032  -0.549   0.130  1.00  0.00     0.034 C 
BRANCH   5   7
HETATM    7  C   UNL     1       2.555   1.444  -0.345  1.00  0.00     0.153 C 
BRANCH   7   8
HETATM    8  N   UNL     1       2.095   1.669  -1.701  1.00  0.00    -0.350 N 
HETATM    9  C   UNL     1       1.066   2.483  -2.083  1.00  0.00     0.108 A 
HETATM   10  C   UNL     1       1.026   2.382  -3.455  1.00  0.00     0.106 A 
HETATM   11  N   UNL     1       2.002   1.533  -3.908  1.00  0.00    -0.361 N 
HETATM   12  C   UNL     1       2.642   1.134  -2.832  1.00  0.00     0.182 A 
ATOM     13  HN  UNL     1       2.191   1.267  -4.874  1.00  0.00     0.166 HD
ENDBRANCH   7   8
ENDBRANCH   5   7
ENDBRANCH   1   5
BRANCH   2  14
HETATM   14  C   UNL     1       4.876  -0.386   3.071  1.00  0.00     0.081 C 
HETATM   15  C   UNL     1       4.283  -1.619   3.774  1.00  0.00     0.018 C 
HETATM   16  C   UNL     1       3.189  -1.392   4.820  1.00  0.00     0.027 C 
HETATM   17  C   UNL     1       3.091  -0.016   5.381  1.00  0.00    -0.031 C 
HETATM   18  C   UNL     1       3.777   1.033   4.919  1.00  0.00    -0.030 C 
HETATM   19  C   UNL     1       4.737   0.971   3.778  1.00  0.00     0.041 C 
ENDBRANCH   2  14
TORSDOF 4
