REMARK  3 active torsions:
REMARK  status: ('A' for Active; 'I' for Inactive)
REMARK       I    between atoms: C_2  and  N_3 
REMARK       I    between atoms: C_2  and  N_11 
REMARK    1  A    between atoms: N_3  and  C_4 
REMARK    2  A    between atoms: N_11  and  C_12 
REMARK    3  A    between atoms: C_15  and  N_19 
ROOT
HETATM    1  C   UNL     1       4.571  -0.384  -1.166  1.00  0.00     0.051 A 
HETATM    2  C   UNL     1       5.257   0.767  -1.518  1.00  0.00     0.035 A 
HETATM    3  C   UNL     1       6.647   0.739  -1.661  1.00  0.00     0.051 A 
HETATM    4  C   UNL     1       7.363  -0.436  -1.451  1.00  0.00     0.103 A 
HETATM    5  N   UNL     1       6.698  -1.545  -1.052  1.00  0.00    -0.350 N 
ATOM      6  HN  UNL     1       7.207  -2.408  -0.861  1.00  0.00     0.166 HD
HETATM    7  C   UNL     1       5.348  -1.500  -0.908  1.00  0.00     0.119 A 
ENDROOT
BRANCH   1   8
HETATM    8  N   UNL     1       3.162  -0.460  -1.081  1.00  0.00    -0.308 N 
HETATM    9  C   UNL     1       2.310   0.424  -1.697  1.00  0.00     0.321 C 
HETATM   10  O   UNL     1       2.641   1.355  -2.422  1.00  0.00    -0.247 OA
HETATM   11  N   UNL     1       0.983   0.145  -1.455  1.00  0.00    -0.337 N 
HETATM   12  H   UNL     1       0.761  -0.399  -0.633  1.00  0.00     0.164 HD
HETATM   13  H   UNL     1       2.763  -1.344  -0.800  1.00  0.00     0.170 HD
BRANCH  11  14
HETATM   14  C   UNL     1      -0.070   0.978  -2.037  1.00  0.00     0.101 C 
HETATM   15  C   UNL     1      -0.085   0.914  -3.581  1.00  0.00     0.041 C 
HETATM   16  C   UNL     1      -0.606   2.226  -4.158  1.00  0.00     0.142 C 
HETATM   17  S   UNL     1      -1.000   3.287  -2.790  1.00  0.00     0.146 S 
HETATM   18  O   UNL     1      -0.453   4.606  -3.025  1.00  0.00    -0.228 OA
HETATM   19  O   UNL     1      -2.391   3.080  -2.442  1.00  0.00    -0.228 OA
HETATM   20  C   UNL     1      -0.008   2.440  -1.597  1.00  0.00     0.165 C 
ENDBRANCH  11  14
ENDBRANCH   1   8
BRANCH   4  21
HETATM   21  N   UNL     1       8.726  -0.514  -1.614  1.00  0.00    -0.363 N 
HETATM   22  C   UNL     1       9.598   0.565  -2.092  1.00  0.00     0.150 C 
HETATM   23  C   UNL     1      10.240   0.169  -3.431  1.00  0.00     0.187 C 
HETATM   24  O   UNL     1      10.951  -1.075  -3.323  1.00  0.00    -0.388 OA
HETATM   25  C   UNL     1      10.055  -2.126  -2.919  1.00  0.00     0.187 C 
HETATM   26  C   UNL     1       9.393  -1.825  -1.563  1.00  0.00     0.150 C 
ENDBRANCH   4  21
TORSDOF 3
