REMARK  5 active torsions:
REMARK  status: ('A' for Active; 'I' for Inactive)
REMARK    1  A    between atoms: C_2  and  C_3 
REMARK       I    between atoms: C_2  and  N_10 
REMARK    2  A    between atoms: C_3  and  C_4 
REMARK    3  A    between atoms: N_10  and  C_11 
REMARK    4  A    between atoms: C_11  and  C_12 
REMARK    5  A    between atoms: C_12  and  N_13 
ROOT
HETATM    1  O   UNL     1       2.271   1.440   1.267  1.00  0.00    -0.274 OA
HETATM    2  C   UNL     1       2.692   0.599   0.479  1.00  0.00     0.217 C 
HETATM    3  N   UNL     1       2.900   0.861  -0.859  1.00  0.00    -0.359 N 
HETATM    4  H   UNL     1       3.073   0.088  -1.490  1.00  0.00     0.162 HD
ENDROOT
BRANCH   3   5
HETATM    5  C   UNL     1       2.663   2.180  -1.422  1.00  0.00     0.143 C 
BRANCH   5   6
HETATM    6  C   UNL     1       3.794   3.164  -1.117  1.00  0.00     0.148 C 
BRANCH   6   7
HETATM    7  N   UNL     1       3.499   4.491  -1.620  1.00  0.00    -0.350 N 
HETATM    8  C   UNL     1       3.825   4.988  -2.847  1.00  0.00     0.108 A 
HETATM    9  C   UNL     1       3.309   6.264  -2.857  1.00  0.00     0.106 A 
HETATM   10  N   UNL     1       2.696   6.551  -1.665  1.00  0.00    -0.361 N 
HETATM   11  C   UNL     1       2.836   5.468  -0.933  1.00  0.00     0.182 A 
ATOM     12  HN  UNL     1       2.230   7.420  -1.402  1.00  0.00     0.166 HD
ENDBRANCH   6   7
ENDBRANCH   5   6
ENDBRANCH   3   5
BRANCH   2  13
HETATM   13  C   UNL     1       3.109  -0.795   0.910  1.00  0.00     0.107 C 
BRANCH  13  14
HETATM   14  C   UNL     1       1.978  -1.629   1.537  1.00  0.00    -0.006 C 
HETATM   15  C   UNL     1       2.538  -2.941   2.119  1.00  0.00     0.005 C 
HETATM   16  C   UNL     1       2.991  -3.922   1.037  1.00  0.00     0.000 C 
HETATM   17  C   UNL     1       1.880  -4.212   0.033  1.00  0.00     0.000 C 
HETATM   18  C   UNL     1       1.258  -2.940  -0.539  1.00  0.00     0.000 C 
HETATM   19  C   UNL     1       0.842  -1.956   0.554  1.00  0.00     0.005 C 
ENDBRANCH  13  14
ENDBRANCH   2  13
TORSDOF 5
