REMARK  6 active torsions:
REMARK  status: ('A' for Active; 'I' for Inactive)
REMARK    1  A    between atoms: C_2  and  C_3 
REMARK    2  A    between atoms: C_2  and  C_12 
REMARK    3  A    between atoms: C_3  and  N_4 
REMARK    4  A    between atoms: N_4  and  C_5 
REMARK    5  A    between atoms: C_5  and  C_6 
REMARK    6  A    between atoms: C_5  and  C_9 
ROOT
HETATM    1  C   UNL     1       0.638   0.112   0.048  1.00  0.00     0.017 C 
HETATM    2  C   UNL     1       2.162   0.144  -0.008  1.00  0.00     0.047 C 
ENDROOT
BRANCH   2   3
HETATM    3  C   UNL     1       2.813  -1.248  -0.199  1.00  0.00     0.279 C 
BRANCH   3   4
HETATM    4  N   UNL     1       2.569  -2.236   0.854  1.00  0.00     0.089 N 
HETATM    5  H   UNL     1       1.563  -2.385   0.948  1.00  0.00     0.316 HD
BRANCH   4   6
HETATM    6  C   UNL     1       3.173  -3.553   0.551  1.00  0.00     0.228 C 
BRANCH   6   7
HETATM    7  C   UNL     1       4.682  -3.508   0.458  1.00  0.00     0.019 A 
HETATM    8  C   UNL     1       5.481  -2.824  -0.636  1.00  0.00     0.007 A 
HETATM    9  C   UNL     1       5.373  -4.312  -0.628  1.00  0.00     0.007 A 
ENDBRANCH   6   7
BRANCH   6  10
HETATM   10  C   UNL     1       2.772  -4.454   1.713  1.00  0.00     0.019 A 
HETATM   11  C   UNL     1       3.172  -5.913   1.743  1.00  0.00     0.007 A 
HETATM   12  C   UNL     1       1.731  -5.538   1.559  1.00  0.00     0.007 A 
ENDBRANCH   6  10
ENDBRANCH   4   6
ENDBRANCH   3   4
ENDBRANCH   2   3
BRANCH   2  13
HETATM   13  C   UNL     1       2.679   1.105  -1.059  1.00  0.00     0.003 A 
HETATM   14  C   UNL     1       2.506   1.110  -2.480  1.00  0.00     0.038 A 
HETATM   15  C   UNL     1       1.755   0.190  -3.368  1.00  0.00     0.071 C 
HETATM   16  N   UNL     1       3.170   2.123  -3.049  1.00  0.00    -0.265 N 
HETATM   17  O   UNL     1       3.809   2.783  -2.027  1.00  0.00    -0.242 OA
ATOM     18  HN  UNL     1       3.196   2.358  -4.041  1.00  0.00     0.194 HD
HETATM   19  C   UNL     1       3.527   2.178  -0.847  1.00  0.00     0.081 A 
HETATM   20  C   UNL     1       4.187   2.754   0.339  1.00  0.00     0.079 C 
ENDBRANCH   2  13
TORSDOF 6
