REMARK  7 active torsions:
REMARK  status: ('A' for Active; 'I' for Inactive)
REMARK    1  A    between atoms: O_1  and  C_2 
REMARK    2  A    between atoms: C_2  and  C_3 
REMARK    3  A    between atoms: C_2  and  C_13 
REMARK    4  A    between atoms: C_3  and  O_4 
REMARK    5  A    between atoms: O_4  and  C_5 
REMARK    6  A    between atoms: C_5  and  C_6 
REMARK    7  A    between atoms: C_13  and  N_14 
ROOT
HETATM    1  C   UNL     1       2.433   0.078   0.009  1.00  0.00     0.160 C 
ENDROOT
BRANCH   1   2
HETATM    2  O   UNL     1       1.006   0.062   0.155  1.00  0.00    -0.392 OA
HETATM    3  H   UNL     1       0.624   0.040  -0.741  1.00  0.00     0.210 HD
ENDBRANCH   1   2
BRANCH   1   4
HETATM    4  C   UNL     1       2.840   1.378  -0.702  1.00  0.00     0.201 C 
BRANCH   4   5
HETATM    5  O   UNL     1       4.250   1.421  -0.872  1.00  0.00    -0.384 OA
BRANCH   5   6
HETATM    6  C   UNL     1       4.690   2.647  -1.460  1.00  0.00     0.208 C 
BRANCH   6   7
HETATM    7  C   UNL     1       6.198   2.702  -1.549  1.00  0.00    -0.013 A 
HETATM    8  C   UNL     1       6.994   1.626  -1.115  1.00  0.00     0.011 A 
HETATM    9  C   UNL     1       8.387   1.685  -1.189  1.00  0.00     0.001 A 
HETATM   10  C   UNL     1       9.012   2.817  -1.700  1.00  0.00     0.002 A 
HETATM   11  C   UNL     1       8.243   3.892  -2.141  1.00  0.00     0.024 A 
HETATM   12  C   UNL     1       6.847   3.836  -2.067  1.00  0.00     0.042 A 
HETATM   13 CL   UNL     1       5.958   5.208  -2.632  1.00  0.00    -0.084 Cl
ENDBRANCH   6   7
ENDBRANCH   5   6
ENDBRANCH   4   5
ENDBRANCH   1   4
BRANCH   1  14
HETATM   14  C   UNL     1       3.101  -0.008   1.396  1.00  0.00     0.167 C 
BRANCH  14  15
HETATM   15  N   UNL     1       2.835  -1.271   2.101  1.00  0.00    -0.305 N 
HETATM   16  C   UNL     1       1.732  -1.360   2.932  1.00  0.00     0.125 A 
HETATM   17  C   UNL     1       1.462  -2.456   3.647  1.00  0.00     0.117 A 
HETATM   18 CL   UNL     1       0.108  -2.553   4.695  1.00  0.00    -0.077 Cl
HETATM   19  C   UNL     1       2.380  -3.615   3.538  1.00  0.00     0.272 A 
HETATM   20  O   UNL     1       2.243  -4.646   4.189  1.00  0.00    -0.266 OA
HETATM   21  N   UNL     1       3.417  -3.464   2.654  1.00  0.00    -0.274 N 
HETATM   22  C   UNL     1       3.702  -2.342   1.918  1.00  0.00     0.329 A 
HETATM   23  H   UNL     1       4.056  -4.237   2.564  1.00  0.00     0.173 HD
HETATM   24  O   UNL     1       4.674  -2.322   1.167  1.00  0.00    -0.246 OA
ENDBRANCH  14  15
ENDBRANCH   1  14
TORSDOF 7
