REMARK  3 active torsions:
REMARK  status: ('A' for Active; 'I' for Inactive)
REMARK    1  A    between atoms: N_1  and  C_2 
REMARK    2  A    between atoms: C_2  and  C_3 
REMARK    3  A    between atoms: C_7  and  N_8 
ROOT
HETATM    1  C   UNL     1       2.933  -0.645   1.270  1.00  0.00    -0.012 A 
HETATM    2  C   UNL     1       2.733  -1.971   1.626  1.00  0.00     0.098 A 
HETATM    3  N   UNL     1       3.061  -2.500   2.830  1.00  0.00    -0.349 N 
ATOM      4  HN  UNL     1       2.875  -3.482   3.032  1.00  0.00     0.167 HD
HETATM    5  C   UNL     1       3.641  -1.702   3.762  1.00  0.00     0.142 A 
HETATM    6  C   UNL     1       3.874  -0.351   3.468  1.00  0.00     0.160 A 
HETATM    7  F   UNL     1       4.398   0.486   4.379  1.00  0.00    -0.202 F 
HETATM    8  C   UNL     1       3.516   0.178   2.231  1.00  0.00     0.056 A 
ENDROOT
BRANCH   5   9
HETATM    9  N   UNL     1       3.975  -2.283   4.962  1.00  0.00    -0.361 N 
HETATM   10  C   UNL     1       5.054  -1.812   5.829  1.00  0.00     0.151 C 
HETATM   11  C   UNL     1       5.943  -3.002   6.238  1.00  0.00     0.187 C 
HETATM   12  O   UNL     1       5.180  -4.078   6.809  1.00  0.00    -0.388 OA
HETATM   13  C   UNL     1       4.214  -4.557   5.857  1.00  0.00     0.187 C 
HETATM   14  C   UNL     1       3.235  -3.448   5.452  1.00  0.00     0.151 C 
ENDBRANCH   5   9
BRANCH   1  15
HETATM   15  C   UNL     1       2.502  -0.121  -0.068  1.00  0.00     0.306 C 
BRANCH  15  16
HETATM   16  N   UNL     1       3.618   0.457  -0.806  1.00  0.00     0.082 N 
HETATM   17  H   UNL     1       3.295   0.746  -1.728  1.00  0.00     0.313 HD
HETATM   18  H   UNL     1       4.324  -0.261  -0.965  1.00  0.00     0.313 HD
ENDBRANCH  15  16
ENDBRANCH   1  15
TORSDOF 3
