REMARK  7 active torsions:
REMARK  status: ('A' for Active; 'I' for Inactive)
REMARK    1  A    between atoms: C_2  and  O_4 
REMARK    2  A    between atoms: O_4  and  C_5 
REMARK    3  A    between atoms: C_5  and  C_6 
REMARK    4  A    between atoms: C_6  and  C_7 
REMARK    5  A    between atoms: C_10  and  C_11 
REMARK    6  A    between atoms: C_11  and  C_12 
REMARK       I    between atoms: C_12  and  N_14 
REMARK    7  A    between atoms: N_14  and  C_15 
ROOT
HETATM    1  C   UNL     1       6.925  -0.886   1.807  1.00  0.00     0.150 A 
HETATM    2  N   UNL     1       7.793   0.093   1.937  1.00  0.00    -0.326 N 
ATOM      3  HN  UNL     1       7.867   0.961   1.406  1.00  0.00     0.169 HD
HETATM    4  C   UNL     1       8.577  -0.357   2.976  1.00  0.00     0.112 A 
HETATM    5  N   UNL     1       8.250  -1.570   3.438  1.00  0.00    -0.247 N 
ATOM      6  HN  UNL     1       8.704  -2.109   4.175  1.00  0.00     0.196 HD
HETATM    7  O   UNL     1       7.140  -1.920   2.671  1.00  0.00    -0.223 OA
ENDROOT
BRANCH   4   8
HETATM    8  C   UNL     1       9.695   0.439   3.523  1.00  0.00     0.181 C 
BRANCH   8   9
HETATM    9  C   UNL     1       9.184   1.394   4.581  1.00  0.00     0.225 C 
HETATM   10  O   UNL     1       9.121   1.098   5.769  1.00  0.00    -0.273 OA
HETATM   11  N   UNL     1       8.779   2.621   4.090  1.00  0.00    -0.356 N 
HETATM   12  H   UNL     1       8.967   2.831   3.118  1.00  0.00     0.162 HD
BRANCH  11  13
HETATM   13  C   UNL     1       8.210   3.669   4.932  1.00  0.00     0.084 C 
HETATM   14  C   UNL     1       7.154   4.461   4.154  1.00  0.00     0.025 C 
HETATM   15  C   UNL     1       7.767   5.264   3.009  1.00  0.00     0.002 C 
HETATM   16  C   UNL     1       8.881   6.186   3.500  1.00  0.00     0.000 C 
HETATM   17  C   UNL     1       9.919   5.468   4.361  1.00  0.00     0.002 C 
HETATM   18  C   UNL     1       9.292   4.616   5.465  1.00  0.00     0.025 C 
ENDBRANCH  11  13
ENDBRANCH   8   9
ENDBRANCH   4   8
BRANCH   1  19
HETATM   19  C   UNL     1       5.718  -0.972   0.957  1.00  0.00     0.113 C 
BRANCH  19  20
HETATM   20  C   UNL     1       4.565  -0.247   1.643  1.00  0.00     0.176 C 
BRANCH  20  21
HETATM   21  O   UNL     1       3.371  -0.388   0.871  1.00  0.00    -0.386 OA
BRANCH  21  22
HETATM   22  C   UNL     1       2.267   0.360   1.399  1.00  0.00     0.113 C 
HETATM   23  C   UNL     1       1.127   0.266   0.390  1.00  0.00     0.039 C 
HETATM   24  C   UNL     1       1.809  -0.183   2.750  1.00  0.00     0.039 C 
ENDBRANCH  21  22
ENDBRANCH  20  21
ENDBRANCH  19  20
ENDBRANCH   1  19
TORSDOF 7
