REMARK  5 active torsions:
REMARK  status: ('A' for Active; 'I' for Inactive)
REMARK    1  A    between atoms: C_2  and  C_4 
REMARK    2  A    between atoms: C_2  and  N_21 
REMARK    3  A    between atoms: C_4  and  N_5 
REMARK       I    between atoms: N_5  and  C_6 
REMARK       I    between atoms: C_6  and  N_8 
REMARK    4  A    between atoms: N_8  and  C_9 
REMARK    5  A    between atoms: C_12  and  N_16 
ROOT
HETATM    1  N   UNL     1       2.809  -2.404  -0.781  1.00  0.00    -0.340 N 
HETATM    2  C   UNL     1       3.108  -3.428  -1.624  1.00  0.00     0.320 C 
HETATM    3  O   UNL     1       3.757  -3.289  -2.661  1.00  0.00    -0.247 OA
HETATM    4  N   UNL     1       2.532  -4.638  -1.345  1.00  0.00    -0.308 N 
HETATM    5  H   UNL     1       2.059  -2.532  -0.114  1.00  0.00     0.164 HD
HETATM    6  H   UNL     1       2.465  -5.229  -2.157  1.00  0.00     0.170 HD
ENDROOT
BRANCH   1   7
HETATM    7  C   UNL     1       3.138  -1.027  -1.103  1.00  0.00     0.165 C 
BRANCH   7   8
HETATM    8  C   UNL     1       2.135   0.007  -0.466  1.00  0.00     0.168 C 
HETATM    9  C   UNL     1       2.650   1.408  -0.851  1.00  0.00     0.050 C 
HETATM   10  C   UNL     1       0.778  -0.192  -1.201  1.00  0.00     0.050 C 
BRANCH   8  11
HETATM   11  N   UNL     1       1.919  -0.218   0.994  1.00  0.00     0.103 N 
HETATM   12  C   UNL     1       1.002   0.709   1.696  1.00  0.00     0.299 C 
HETATM   13  C   UNL     1       1.662   1.983   2.253  1.00  0.00     0.198 C 
HETATM   14  O   UNL     1       2.754   1.663   3.121  1.00  0.00    -0.388 OA
HETATM   15  C   UNL     1       3.728   0.872   2.433  1.00  0.00     0.198 C 
HETATM   16  C   UNL     1       3.112  -0.411   1.847  1.00  0.00     0.299 C 
ENDBRANCH   8  11
ENDBRANCH   7   8
ENDBRANCH   1   7
BRANCH   4  17
HETATM   17  C   UNL     1       1.900  -5.052  -0.164  1.00  0.00     0.051 A 
HETATM   18  C   UNL     1       2.362  -4.707   1.097  1.00  0.00     0.035 A 
HETATM   19  C   UNL     1       1.657  -5.135   2.222  1.00  0.00     0.051 A 
HETATM   20  C   UNL     1       0.497  -5.896   2.084  1.00  0.00     0.103 A 
HETATM   21  N   UNL     1       0.078  -6.274   0.854  1.00  0.00    -0.350 N 
HETATM   22  C   UNL     1       0.783  -5.866  -0.229  1.00  0.00     0.119 A 
ATOM     23  HN  UNL     1      -0.753  -6.855   0.744  1.00  0.00     0.166 HD
BRANCH  20  24
HETATM   24  N   UNL     1      -0.265  -6.253   3.161  1.00  0.00    -0.367 N 
HETATM   25  C   UNL     1       0.051  -5.990   4.552  1.00  0.00     0.124 C 
HETATM   26  C   UNL     1      -1.184  -6.456   5.325  1.00  0.00     0.021 C 
HETATM   27  C   UNL     1      -2.251  -6.710   4.268  1.00  0.00     0.021 C 
HETATM   28  C   UNL     1      -1.461  -7.060   3.015  1.00  0.00     0.124 C 
ENDBRANCH  20  24
ENDBRANCH   4  17
TORSDOF 5
