REMARK  3 active torsions:
REMARK  status: ('A' for Active; 'I' for Inactive)
REMARK    1  A    between atoms: C_2  and  N_3 
REMARK    2  A    between atoms: C_2  and  C_13 
REMARK       I    between atoms: N_3  and  C_4 
REMARK       I    between atoms: C_4  and  N_6 
REMARK    3  A    between atoms: N_6  and  C_7 
ROOT
HETATM    1  N   UNL     1       2.638   0.125  -1.632  1.00  0.00    -0.338 N 
HETATM    2  C   UNL     1       3.677  -0.584  -2.200  1.00  0.00     0.323 C 
HETATM    3  O   UNL     1       4.364  -1.363  -1.553  1.00  0.00    -0.247 OA
HETATM    4  N   UNL     1       3.804  -0.318  -3.538  1.00  0.00    -0.274 N 
HETATM    5  H   UNL     1       2.344   0.967  -2.107  1.00  0.00     0.164 HD
HETATM    6  H   UNL     1       2.988  -0.090  -4.075  1.00  0.00     0.174 HD
ENDROOT
BRANCH   1   7
HETATM    7  C   UNL     1       2.299  -0.011  -0.213  1.00  0.00     0.086 C 
HETATM    8  C   UNL     1       0.772  -0.002  -0.097  1.00  0.00     0.032 C 
BRANCH   7   9
HETATM    9  C   UNL     1       2.966   1.095   0.663  1.00  0.00     0.012 C 
HETATM   10  C   UNL     1       4.505   1.126   0.565  1.00  0.00     0.033 C 
HETATM   11  C   UNL     1       5.154  -0.055   1.285  1.00  0.00     0.168 C 
HETATM   12  O   UNL     1       4.733  -0.117   2.649  1.00  0.00    -0.391 OA
HETATM   13  C   UNL     1       3.320  -0.241   2.786  1.00  0.00     0.168 C 
HETATM   14  C   UNL     1       2.625   0.966   2.163  1.00  0.00     0.033 C 
ENDBRANCH   7   9
ENDBRANCH   1   7
BRANCH   4  15
HETATM   15  C   UNL     1       4.862  -0.795  -4.254  1.00  0.00     0.231 A 
HETATM   16  N   UNL     1       4.911  -0.920  -5.561  1.00  0.00    -0.330 N 
HETATM   17  C   UNL     1       6.174  -1.414  -5.794  1.00  0.00     0.116 A 
ATOM     18  HN  UNL     1       4.184  -0.702  -6.242  1.00  0.00     0.168 HD
HETATM   19  C   UNL     1       6.858  -1.519  -4.610  1.00  0.00     0.162 A 
HETATM   20  O   UNL     1       6.025  -1.119  -3.613  1.00  0.00    -0.290 OA
ENDBRANCH   4  15
TORSDOF 3
