REMARK  5 active torsions:
REMARK  status: ('A' for Active; 'I' for Inactive)
REMARK    1  A    between atoms: C_2  and  N_3 
REMARK    2  A    between atoms: C_2  and  C_10 
REMARK    3  A    between atoms: N_3  and  C_4 
REMARK    4  A    between atoms: C_4  and  C_5 
REMARK    5  A    between atoms: C_10  and  N_12 
ROOT
HETATM    1  C   UNL     1       0.927  -0.138  -0.154  1.00  0.00     0.045 C 
HETATM    2  C   UNL     1       2.459  -0.077  -0.052  1.00  0.00     0.240 C 
ENDROOT
BRANCH   2   3
HETATM    3  N   UNL     1       2.786   1.322   0.303  1.00  0.00     0.090 N 
HETATM    4  H   UNL     1       2.358   1.574   1.193  1.00  0.00     0.316 HD
BRANCH   3   5
HETATM    5  C   UNL     1       4.214   1.631   0.317  1.00  0.00     0.274 C 
BRANCH   5   6
HETATM    6  C   UNL     1       4.435   3.092   0.721  1.00  0.00     0.014 C 
HETATM    7  C   UNL     1       3.815   4.115  -0.239  1.00  0.00     0.006 C 
HETATM    8  C   UNL     1       4.742   5.332  -0.217  1.00  0.00     0.000 C 
HETATM    9  C   UNL     1       5.860   4.997   0.763  1.00  0.00     0.000 C 
HETATM   10  C   UNL     1       5.912   3.478   0.761  1.00  0.00     0.006 C 
ENDBRANCH   5   6
ENDBRANCH   3   5
ENDBRANCH   2   3
BRANCH   2  11
HETATM   11  C   UNL     1       3.044  -1.155   0.911  1.00  0.00     0.136 C 
HETATM   12  C   UNL     1       2.628  -0.971   2.377  1.00  0.00     0.036 C 
BRANCH  11  13
HETATM   13  N   UNL     1       2.799  -2.517   0.431  1.00  0.00    -0.297 N 
HETATM   14  C   UNL     1       3.594  -3.224  -0.433  1.00  0.00     0.112 A 
HETATM   15  C   UNL     1       3.050  -4.484  -0.512  1.00  0.00     0.037 A 
HETATM   16  C   UNL     1       1.927  -4.440   0.331  1.00  0.00     0.108 A 
HETATM   17  N   UNL     1       1.763  -3.242   0.899  1.00  0.00    -0.310 N 
ATOM     18  HN  UNL     1       1.026  -2.945   1.538  1.00  0.00     0.186 HD
ENDBRANCH  11  13
ENDBRANCH   2  11
TORSDOF 5
