REMARK  1 active torsions:
REMARK  status: ('A' for Active; 'I' for Inactive)
REMARK    1  A    between atoms: N_6  and  C_8 
ROOT
HETATM    1  C   UNL     1       1.107   0.271  -0.310  1.00  0.00     0.051 C 
HETATM    2  C   UNL     1       2.518   0.070   0.087  1.00  0.00    -0.028 A 
HETATM    3  C   UNL     1       3.302   0.884   0.933  1.00  0.00     0.115 A 
HETATM    4  N   UNL     1       4.553   0.441   1.056  1.00  0.00    -0.309 N 
ATOM      5  HN  UNL     1       5.307   0.838   1.616  1.00  0.00     0.186 HD
HETATM    6  N   UNL     1       4.591  -0.657   0.267  1.00  0.00    -0.297 N 
HETATM    7  C   UNL     1       3.377  -0.939  -0.295  1.00  0.00     0.118 A 
ENDROOT
BRANCH   6   8
HETATM    8  C   UNL     1       5.887  -1.277   0.010  1.00  0.00     0.135 C 
HETATM    9  C   UNL     1       6.566  -0.647  -1.215  1.00  0.00     0.031 C 
HETATM   10  C   UNL     1       6.061  -1.259  -2.519  1.00  0.00     0.032 C 
HETATM   11  C   UNL     1       6.202  -2.778  -2.497  1.00  0.00     0.270 C 
HETATM   12  N   UNL     1       5.461  -3.369  -1.383  1.00  0.00     0.085 N 
HETATM   13  C   UNL     1       5.875  -2.817  -0.083  1.00  0.00     0.296 C 
HETATM   14  H   UNL     1       5.608  -4.379  -1.380  1.00  0.00     0.315 HD
ENDBRANCH   6   8
TORSDOF 1
