REMARK  5 active torsions:
REMARK  status: ('A' for Active; 'I' for Inactive)
REMARK    1  A    between atoms: N_5  and  S_8 
REMARK    2  A    between atoms: S_8  and  N_11 
REMARK    3  A    between atoms: N_11  and  C_12 
REMARK    4  A    between atoms: C_12  and  C_13 
REMARK    5  A    between atoms: C_13  and  C_14 
ROOT
HETATM    1  N   UNL     1       5.430   0.151  -3.716  1.00  0.00    -0.206 NA
HETATM    2  H   UNL     1       5.048   1.060  -3.446  1.00  0.00     0.140 HD
ENDROOT
BRANCH   1   3
HETATM    3  S   UNL     1       4.893  -0.946  -2.561  1.00  0.00     0.280 S 
HETATM    4  O   UNL     1       5.305  -0.430  -1.278  1.00  0.00    -0.194 OA
HETATM    5  O   UNL     1       5.230  -2.281  -2.983  1.00  0.00    -0.194 OA
BRANCH   3   6
HETATM    6  N   UNL     1       3.227  -0.738  -2.706  1.00  0.00    -0.198 NA
HETATM    7  C   UNL     1       2.442  -1.447  -1.657  1.00  0.00     0.109 C 
HETATM    8  C   UNL     1       2.337  -2.943  -1.958  1.00  0.00     0.020 C 
HETATM    9  C   UNL     1       1.803  -3.241  -3.368  1.00  0.00    -0.016 C 
HETATM   10  C   UNL     1       0.284  -3.072  -3.426  1.00  0.00     0.010 C 
HETATM   11  C   UNL     1       2.496  -2.382  -4.437  1.00  0.00     0.020 C 
HETATM   12  C   UNL     1       2.608  -0.914  -4.044  1.00  0.00     0.109 C 
ENDBRANCH   3   6
ENDBRANCH   1   3
BRANCH   1  13
HETATM   13  C   UNL     1       6.911   0.255  -3.855  1.00  0.00     0.110 C 
BRANCH  13  14
HETATM   14  C   UNL     1       7.569  -1.037  -4.340  1.00  0.00     0.055 C 
BRANCH  14  15
HETATM   15  C   UNL     1       9.067  -0.933  -4.374  1.00  0.00    -0.042 A 
HETATM   16  C   UNL     1       9.824  -1.225  -3.234  1.00  0.00     0.010 A 
HETATM   17  C   UNL     1      11.209  -1.143  -3.292  1.00  0.00     0.018 A 
HETATM   18  C   UNL     1      11.790  -0.761  -4.491  1.00  0.00     0.087 A 
HETATM   19  N   UNL     1      11.090  -0.459  -5.605  1.00  0.00    -0.375 N 
HETATM   20  C   UNL     1       9.745  -0.556  -5.524  1.00  0.00     0.094 A 
ATOM     21  HN  UNL     1      11.554  -0.171  -6.466  1.00  0.00     0.164 HD
ENDBRANCH  14  15
ENDBRANCH  13  14
ENDBRANCH   1  13
TORSDOF 5
