REMARK  4 active torsions:
REMARK  status: ('A' for Active; 'I' for Inactive)
REMARK    1  A    between atoms: O_2  and  C_3 
REMARK    2  A    between atoms: C_9  and  N_10 
REMARK       I    between atoms: N_10  and  C_11 
REMARK       I    between atoms: C_11  and  N_13 
REMARK    3  A    between atoms: N_13  and  C_14 
REMARK    4  A    between atoms: C_14  and  C_15 
ROOT
HETATM    1  N   UNL     1       0.923  -2.355  -0.362  1.00  0.00    -0.305 N 
HETATM    2  C   UNL     1      -0.068  -1.459  -0.702  1.00  0.00     0.320 C 
HETATM    3  O   UNL     1      -0.023  -0.678  -1.642  1.00  0.00    -0.247 OA
HETATM    4  N   UNL     1      -1.148  -1.483   0.147  1.00  0.00    -0.340 N 
HETATM    5  H   UNL     1       0.644  -3.213   0.099  1.00  0.00     0.171 HD
HETATM    6  H   UNL     1      -1.107  -1.990   1.019  1.00  0.00     0.164 HD
ENDROOT
BRANCH   1   7
HETATM    7  C   UNL     1       2.241  -2.324  -0.897  1.00  0.00     0.087 A 
HETATM    8  C   UNL     1       3.099  -3.432  -0.830  1.00  0.00     0.169 A 
HETATM    9  N   UNL     1       4.378  -3.421  -1.282  1.00  0.00    -0.345 N 
HETATM   10  C   UNL     1       4.824  -2.288  -1.861  1.00  0.00     0.090 A 
ATOM     11  HN  UNL     1       4.980  -4.239  -1.187  1.00  0.00     0.167 HD
HETATM   12  C   UNL     1       4.061  -1.148  -1.988  1.00  0.00     0.019 A 
HETATM   13  C   UNL     1       2.763  -1.166  -1.482  1.00  0.00     0.035 A 
BRANCH   8  14
HETATM   14  O   UNL     1       2.598  -4.619  -0.319  1.00  0.00    -0.339 OA
HETATM   15  C   UNL     1       3.548  -5.689  -0.312  1.00  0.00     0.211 C 
ENDBRANCH   8  14
ENDBRANCH   1   7
BRANCH   4  16
HETATM   16  C   UNL     1      -2.284  -0.584  -0.057  1.00  0.00     0.156 C 
BRANCH  16  17
HETATM   17  C   UNL     1      -2.582   0.343   1.127  1.00  0.00     0.139 C 
HETATM   18  C   UNL     1      -1.458   1.276   1.557  1.00  0.00     0.035 C 
HETATM   19  C   UNL     1      -1.596   1.358   3.067  1.00  0.00     0.029 C 
HETATM   20  C   UNL     1      -2.801   0.501   3.394  1.00  0.00     0.168 C 
HETATM   21  O   UNL     1      -2.925  -0.415   2.301  1.00  0.00    -0.384 OA
ENDBRANCH  16  17
ENDBRANCH   4  16
TORSDOF 4
