REMARK  1 active torsions:
REMARK  status: ('A' for Active; 'I' for Inactive)
REMARK    1  A    between atoms: C_6  and  C_7 
ROOT
HETATM    1  O   UNL     1       1.257  -0.345   0.405  1.00  0.00    -0.273 OA
HETATM    2  C   UNL     1       2.387  -0.179  -0.020  1.00  0.00     0.226 C 
HETATM    3  N   UNL     1       3.140  -1.153  -0.648  1.00  0.00    -0.360 N 
HETATM    4  C   UNL     1       4.486  -0.729  -0.885  1.00  0.00     0.123 C 
HETATM    5  C   UNL     1       4.374   0.785  -0.886  1.00  0.00     0.038 C 
HETATM    6  C   UNL     1       3.239   1.074   0.112  1.00  0.00     0.113 C 
HETATM    7  H   UNL     1       2.796  -2.105  -0.706  1.00  0.00     0.162 HD
ENDROOT
BRANCH   6   8
HETATM    8  C   UNL     1       3.755   1.329   1.510  1.00  0.00    -0.030 A 
HETATM    9  C   UNL     1       4.114   2.624   1.900  1.00  0.00     0.011 A 
HETATM   10  C   UNL     1       4.634   2.849   3.172  1.00  0.00     0.018 A 
HETATM   11  C   UNL     1       4.790   1.764   4.017  1.00  0.00     0.087 A 
HETATM   12  N   UNL     1       4.460   0.501   3.683  1.00  0.00    -0.375 N 
HETATM   13  C   UNL     1       3.944   0.313   2.447  1.00  0.00     0.095 A 
ATOM     14  HN  UNL     1       4.593  -0.276   4.331  1.00  0.00     0.164 HD
ENDBRANCH   6   8
TORSDOF 1
