REMARK  4 active torsions:
REMARK  status: ('A' for Active; 'I' for Inactive)
REMARK    1  A    between atoms: O_2  and  C_3 
REMARK    2  A    between atoms: C_6  and  N_7 
REMARK       I    between atoms: N_7  and  C_8 
REMARK       I    between atoms: C_8  and  N_10 
REMARK    3  A    between atoms: N_10  and  C_11 
REMARK    4  A    between atoms: C_15  and  C_16 
REMARK       I    between atoms: C_16  and  N_18 
ROOT
HETATM    1  N   UNL     1       4.695  -4.877  -1.327  1.00  0.00    -0.308 N 
HETATM    2  C   UNL     1       4.154  -6.091  -0.978  1.00  0.00     0.321 C 
HETATM    3  O   UNL     1       3.113  -6.247  -0.354  1.00  0.00    -0.247 OA
HETATM    4  N   UNL     1       4.843  -7.163  -1.506  1.00  0.00    -0.337 N 
HETATM    5  H   UNL     1       5.361  -4.882  -2.086  1.00  0.00     0.170 HD
HETATM    6  H   UNL     1       5.847  -7.052  -1.534  1.00  0.00     0.164 HD
ENDROOT
BRANCH   1   7
HETATM    7  C   UNL     1       4.169  -3.625  -0.918  1.00  0.00     0.051 A 
HETATM    8  C   UNL     1       3.268  -3.483   0.138  1.00  0.00     0.035 A 
HETATM    9  C   UNL     1       2.784  -2.226   0.485  1.00  0.00     0.058 A 
HETATM   10  C   UNL     1       3.232  -1.130  -0.225  1.00  0.00     0.141 A 
HETATM   11  N   UNL     1       4.106  -1.211  -1.253  1.00  0.00    -0.345 N 
HETATM   12  C   UNL     1       4.551  -2.454  -1.571  1.00  0.00     0.119 A 
ATOM     13  HN  UNL     1       4.415  -0.383  -1.762  1.00  0.00     0.167 HD
BRANCH  10  14
HETATM   14  O   UNL     1       2.740   0.091   0.189  1.00  0.00    -0.341 OA
HETATM   15  C   UNL     1       3.295   1.191  -0.518  1.00  0.00     0.211 C 
ENDBRANCH  10  14
ENDBRANCH   1   7
BRANCH   4  16
HETATM   16  C   UNL     1       4.341  -8.498  -1.212  1.00  0.00     0.099 C 
HETATM   17  C   UNL     1       5.193  -9.627  -1.792  1.00  0.00     0.026 C 
HETATM   18  C   UNL     1       4.261 -10.841  -1.878  1.00  0.00     0.003 C 
HETATM   19  C   UNL     1       2.875 -10.349  -1.462  1.00  0.00     0.016 C 
HETATM   20  C   UNL     1       2.914  -8.838  -1.689  1.00  0.00     0.100 C 
BRANCH  20  21
HETATM   21  C   UNL     1       2.631  -8.481  -3.146  1.00  0.00     0.221 C 
HETATM   22  O   UNL     1       2.527  -9.300  -4.053  1.00  0.00    -0.273 OA
HETATM   23  N   UNL     1       2.475  -7.153  -3.409  1.00  0.00    -0.370 N 
HETATM   24  H   UNL     1       2.323  -6.489  -2.659  1.00  0.00     0.159 HD
HETATM   25  H   UNL     1       2.203  -6.892  -4.347  1.00  0.00     0.159 HD
ENDBRANCH  20  21
ENDBRANCH   4  16
TORSDOF 4
