REMARK  4 active torsions:
REMARK  status: ('A' for Active; 'I' for Inactive)
REMARK    1  A    between atoms: C_9  and  N_11 
REMARK       I    between atoms: N_11  and  C_12 
REMARK    2  A    between atoms: C_12  and  C_14 
REMARK    3  A    between atoms: C_14  and  N_15 
REMARK    4  A    between atoms: C_17  and  N_22 
ROOT
HETATM    1  N   UNL     1       5.314   1.542   0.350  1.00  0.00    -0.354 N 
HETATM    2  C   UNL     1       6.679   1.394   0.500  1.00  0.00     0.236 C 
HETATM    3  O   UNL     1       7.375   0.720  -0.256  1.00  0.00    -0.272 OA
HETATM    4  H   UNL     1       4.795   1.953   1.121  1.00  0.00     0.162 HD
ENDROOT
BRANCH   2   5
HETATM    5  C   UNL     1       7.260   2.068   1.742  1.00  0.00     0.234 C 
BRANCH   5   6
HETATM    6  N   UNL     1       7.257   1.157   2.887  1.00  0.00    -0.314 N 
HETATM    7  C   UNL     1       8.346   0.311   3.095  1.00  0.00     0.130 A 
HETATM    8  C   UNL     1       8.374  -0.520   4.152  1.00  0.00     0.118 A 
HETATM    9  C   UNL     1       7.268  -0.549   5.086  1.00  0.00     0.043 A 
HETATM   10  C   UNL     1       6.201   0.240   4.893  1.00  0.00     0.077 A 
HETATM   11  C   UNL     1       6.139   1.157   3.719  1.00  0.00     0.247 A 
HETATM   12  O   UNL     1       5.142   1.850   3.536  1.00  0.00    -0.268 OA
BRANCH   8  13
HETATM   13  N   UNL     1       9.555  -1.371   4.337  1.00  0.00    -0.114 N 
HETATM   14  O   UNL     1       9.545  -2.138   5.308  1.00  0.00    -0.532 OA
HETATM   15  O   UNL     1      10.488  -1.265   3.529  1.00  0.00    -0.532 OA
ENDBRANCH   8  13
ENDBRANCH   5   6
ENDBRANCH   2   5
BRANCH   1  16
HETATM   16  C   UNL     1       4.595   0.944  -0.764  1.00  0.00     0.093 C 
HETATM   17  C   UNL     1       3.055   1.237  -0.801  1.00  0.00    -0.016 C 
HETATM   18  C   UNL     1       2.432   0.080   0.044  1.00  0.00    -0.035 C 
HETATM   19  C   UNL     1       2.601   0.870  -2.249  1.00  0.00     0.012 C 
HETATM   20  C   UNL     1       2.642   2.652  -0.435  1.00  0.00     0.018 C 
HETATM   21  C   UNL     1       0.890   0.013   0.019  1.00  0.00     0.016 C 
HETATM   22  C   UNL     1       2.829   0.031   1.531  1.00  0.00     0.016 C 
HETATM   23  C   UNL     1       3.131  -0.995  -0.826  1.00  0.00    -0.004 C 
HETATM   24  C   UNL     1       2.661  -0.666  -2.258  1.00  0.00     0.006 C 
HETATM   25  C   UNL     1       4.628  -0.606  -0.752  1.00  0.00     0.031 C 
ENDBRANCH   1  16
TORSDOF 4
