REMARK  4 active torsions:
REMARK  status: ('A' for Active; 'I' for Inactive)
REMARK    1  A    between atoms: O_1  and  C_2 
REMARK    2  A    between atoms: C_2  and  C_3 
REMARK    3  A    between atoms: C_2  and  C_16 
REMARK    4  A    between atoms: C_3  and  N_4 
ROOT
HETATM    1  N   UNL     1       2.436  -2.307   0.680  1.00  0.00    -0.338 N 
HETATM    2  C   UNL     1       2.651  -3.649   0.515  1.00  0.00     0.184 A 
HETATM    3  N   UNL     1       2.270  -4.335   1.565  1.00  0.00    -0.350 N 
ATOM      4  HN  UNL     1       2.347  -5.342   1.705  1.00  0.00     0.166 HD
HETATM    5  C   UNL     1       1.747  -3.414   2.434  1.00  0.00     0.063 A 
HETATM    6  C   UNL     1       1.168  -3.615   3.695  1.00  0.00     0.077 A 
HETATM    7  C   UNL     1       0.690  -2.503   4.386  1.00  0.00     0.157 A 
HETATM    8  F   UNL     1       0.120  -2.679   5.588  1.00  0.00    -0.203 F 
HETATM    9  C   UNL     1       0.789  -1.222   3.851  1.00  0.00     0.157 A 
HETATM   10  F   UNL     1       0.316  -0.173   4.539  1.00  0.00    -0.203 F 
HETATM   11  C   UNL     1       1.369  -0.997   2.599  1.00  0.00     0.077 A 
HETATM   12  C   UNL     1       1.839  -2.121   1.908  1.00  0.00     0.065 A 
ENDROOT
BRANCH   1  13
HETATM   13  C   UNL     1       2.758  -1.290  -0.307  1.00  0.00     0.170 C 
BRANCH  13  14
HETATM   14  C   UNL     1       4.258  -1.189  -0.609  1.00  0.00     0.243 C 
BRANCH  14  15
HETATM   15  O   UNL     1       4.960  -0.763   0.573  1.00  0.00    -0.385 OA
HETATM   16  H   UNL     1       4.911  -1.477   1.236  1.00  0.00     0.210 HD
ENDBRANCH  14  15
BRANCH  14  17
HETATM   17  C   UNL     1       4.480  -0.248  -1.811  1.00  0.00     0.414 C 
HETATM   18  F   UNL     1       5.462   0.652  -1.593  1.00  0.00    -0.168 F 
HETATM   19  F   UNL     1       4.831  -0.966  -2.906  1.00  0.00    -0.168 F 
HETATM   20  F   UNL     1       3.361   0.441  -2.133  1.00  0.00    -0.168 F 
ENDBRANCH  14  17
ENDBRANCH  13  14
ENDBRANCH   1  13
TORSDOF 4
