REMARK  2 active torsions:
REMARK  status: ('A' for Active; 'I' for Inactive)
REMARK    1  A    between atoms: C_5  and  N_11 
REMARK       I    between atoms: N_11  and  C_12 
REMARK       I    between atoms: C_12  and  N_14 
REMARK    2  A    between atoms: N_14  and  C_15 
ROOT
HETATM    1  N   UNL     1       3.134   1.834  -3.414  1.00  0.00    -0.338 N 
HETATM    2  C   UNL     1       2.468   2.070  -4.604  1.00  0.00     0.322 C 
HETATM    3  O   UNL     1       1.468   1.440  -4.924  1.00  0.00    -0.247 OA
HETATM    4  N   UNL     1       3.026   3.119  -5.292  1.00  0.00    -0.288 N 
HETATM    5  H   UNL     1       4.138   1.947  -3.436  1.00  0.00     0.164 HD
HETATM    6  H   UNL     1       3.665   3.730  -4.818  1.00  0.00     0.172 HD
ENDROOT
BRANCH   1   7
HETATM    7  C   UNL     1       2.594   0.840  -2.487  1.00  0.00     0.091 C 
HETATM    8  C   UNL     1       3.009   1.152  -1.049  1.00  0.00     0.066 C 
HETATM    9  C   UNL     1       2.452   0.116  -0.050  1.00  0.00     0.153 C 
HETATM   10  C   UNL     1       0.947   0.320   0.208  1.00  0.00     0.048 C 
HETATM   11  C   UNL     1       3.159   0.326   1.308  1.00  0.00     0.048 C 
HETATM   12  N   UNL     1       2.752  -1.263  -0.478  1.00  0.00     0.101 N 
HETATM   13  C   UNL     1       2.468  -1.628  -1.881  1.00  0.00     0.153 C 
HETATM   14  H   UNL     1       3.739  -1.453  -0.291  1.00  0.00     0.317 HD
HETATM   15  C   UNL     1       3.037  -0.579  -2.856  1.00  0.00     0.066 C 
HETATM   16  C   UNL     1       0.968  -1.874  -2.130  1.00  0.00     0.048 C 
HETATM   17  C   UNL     1       3.179  -2.977  -2.136  1.00  0.00     0.048 C 
ENDBRANCH   1   7
BRANCH   4  18
HETATM   18  C   UNL     1       2.437   3.582  -6.438  1.00  0.00     0.168 A 
HETATM   19  N   UNL     1       1.525   3.033  -7.204  1.00  0.00    -0.279 N 
HETATM   20  N   UNL     1       1.148   3.868  -8.240  1.00  0.00    -0.303 N 
ATOM     21  HN  UNL     1       1.139   2.101  -7.054  1.00  0.00     0.189 HD
HETATM   22  C   UNL     1       1.801   5.009  -8.202  1.00  0.00     0.160 A 
ATOM     23  HN  UNL     1       0.451   3.629  -8.945  1.00  0.00     0.186 HD
HETATM   24  S   UNL     1       2.955   5.132  -6.936  1.00  0.00    -0.046 SA
ENDBRANCH   4  18
TORSDOF 2
