REMARK  3 active torsions:
REMARK  status: ('A' for Active; 'I' for Inactive)
REMARK       I    between atoms: C_2  and  N_3 
REMARK       I    between atoms: C_2  and  N_9 
REMARK    1  A    between atoms: N_3  and  C_4 
REMARK    2  A    between atoms: C_4  and  C_5 
REMARK    3  A    between atoms: N_9  and  C_10 
ROOT
HETATM    1  O   UNL     1       1.120   0.367  -0.944  1.00  0.00    -0.247 OA
HETATM    2  C   UNL     1       2.294   0.192  -0.616  1.00  0.00     0.322 C 
HETATM    3  N   UNL     1       2.961  -0.981  -0.816  1.00  0.00    -0.342 N 
HETATM    4  N   UNL     1       2.971   1.193   0.011  1.00  0.00    -0.289 N 
HETATM    5  H   UNL     1       3.876  -1.059  -0.382  1.00  0.00     0.164 HD
HETATM    6  H   UNL     1       2.436   2.020   0.220  1.00  0.00     0.172 HD
ENDROOT
BRANCH   3   7
HETATM    7  C   UNL     1       2.293  -2.175  -1.282  1.00  0.00     0.129 C 
BRANCH   7   8
HETATM    8  C   UNL     1       3.356  -3.088  -1.856  1.00  0.00     0.003 C 
HETATM    9  C   UNL     1       2.833  -4.453  -2.374  1.00  0.00     0.006 C 
HETATM   10  C   UNL     1       4.154  -5.070  -1.875  1.00  0.00     0.001 C 
HETATM   11  C   UNL     1       4.234  -3.906  -0.866  1.00  0.00     0.006 C 
ENDBRANCH   7   8
ENDBRANCH   3   7
BRANCH   4  12
HETATM   12  C   UNL     1       4.273   1.150   0.420  1.00  0.00     0.152 A 
HETATM   13  N   UNL     1       5.167   0.220   0.186  1.00  0.00    -0.346 N 
HETATM   14  C   UNL     1       6.357   0.579   0.791  1.00  0.00     0.097 A 
ATOM     15  HN  UNL     1       5.010  -0.630  -0.355  1.00  0.00     0.167 HD
HETATM   16  C   UNL     1       6.320   1.742   1.532  1.00  0.00     0.070 A 
HETATM   17  S   UNL     1       4.770   2.467   1.384  1.00  0.00    -0.064 SA
ENDBRANCH   4  12
TORSDOF 3
