REMARK  6 active torsions:
REMARK  status: ('A' for Active; 'I' for Inactive)
REMARK    1  A    between atoms: N_8  and  C_9 
REMARK    2  A    between atoms: C_9  and  C_10 
REMARK    3  A    between atoms: C_10  and  O_11 
REMARK    4  A    between atoms: C_10  and  C_12 
REMARK    5  A    between atoms: C_12  and  S_13 
REMARK    6  A    between atoms: S_13  and  C_14 
ROOT
HETATM    1  C   UNL     1       7.611   0.860  -0.047  1.00  0.00     0.162 C 
ENDROOT
BRANCH   1   2
HETATM    2  N   UNL     1       6.539  -0.122  -0.058  1.00  0.00    -0.339 N 
HETATM    3  C   UNL     1       6.721  -1.478  -0.052  1.00  0.00     0.184 A 
HETATM    4  N   UNL     1       5.578  -2.124  -0.066  1.00  0.00    -0.350 N 
HETATM    5  C   UNL     1       4.614  -1.146  -0.093  1.00  0.00     0.060 A 
ATOM      6  HN  UNL     1       5.436  -3.134  -0.058  1.00  0.00     0.166 HD
HETATM    7  C   UNL     1       3.217  -1.270  -0.095  1.00  0.00     0.039 A 
HETATM    8  C   UNL     1       5.187   0.122  -0.124  1.00  0.00     0.062 A 
HETATM    9  C   UNL     1       2.413  -0.113  -0.111  1.00  0.00    -0.054 A 
HETATM   10  C   UNL     1       0.917  -0.269  -0.070  1.00  0.00     0.049 C 
HETATM   11  C   UNL     1       3.016   1.162  -0.150  1.00  0.00    -0.054 A 
HETATM   12  C   UNL     1       4.418   1.289  -0.185  1.00  0.00     0.039 A 
HETATM   13  C   UNL     1       2.182   2.417  -0.133  1.00  0.00     0.049 C 
ENDBRANCH   1   2
BRANCH   1  14
HETATM   14  C   UNL     1       7.570   1.828   1.153  1.00  0.00     0.146 C 
BRANCH  14  15
HETATM   15  O   UNL     1       7.702   1.114   2.391  1.00  0.00    -0.393 OA
HETATM   16  H   UNL     1       8.397   0.439   2.313  1.00  0.00     0.210 HD
ENDBRANCH  14  15
BRANCH  14  17
HETATM   17  C   UNL     1       8.665   2.909   1.105  1.00  0.00     0.115 C 
BRANCH  17  18
HETATM   18  S   UNL     1       8.529   3.982  -0.363  1.00  0.00    -0.089 SA
BRANCH  18  19
HETATM   19  C   UNL     1       9.823   5.092  -0.091  1.00  0.00     0.172 A 
HETATM   20  N   UNL     1      10.644   5.131   0.930  1.00  0.00    -0.265 N 
HETATM   21  N   UNL     1      11.487   6.193   0.692  1.00  0.00    -0.007 NA
ATOM     22  HN  UNL     1      10.656   4.504   1.735  1.00  0.00     0.186 HD
HETATM   23  N   UNL     1      11.191   6.788  -0.458  1.00  0.00    -0.005 NA
HETATM   24  N   UNL     1      10.150   6.101  -0.951  1.00  0.00    -0.260 N 
HETATM   25  C   UNL     1       9.563   6.460  -2.213  1.00  0.00     0.177 C 
ENDBRANCH  18  19
ENDBRANCH  17  18
ENDBRANCH  14  17
ENDBRANCH   1  14
TORSDOF 6
