REMARK  3 active torsions:
REMARK  status: ('A' for Active; 'I' for Inactive)
REMARK    1  A    between atoms: O_1  and  C_2 
REMARK    2  A    between atoms: C_5  and  N_6 
REMARK       I    between atoms: N_6  and  C_7 
REMARK    3  A    between atoms: C_7  and  C_9 
ROOT
HETATM    1  C   UNL     1       2.450  -0.055   0.753  1.00  0.00     0.154 A 
HETATM    2  C   UNL     1       3.172   1.111   0.611  1.00  0.00     0.061 A 
HETATM    3  C   UNL     1       4.555   1.014   0.457  1.00  0.00     0.054 A 
HETATM    4  C   UNL     1       5.150  -0.241   0.444  1.00  0.00     0.122 A 
HETATM    5  N   UNL     1       4.401  -1.348   0.591  1.00  0.00    -0.283 N 
ATOM      6  HN  UNL     1       4.849  -2.264   0.585  1.00  0.00     0.188 HD
HETATM    7  N   UNL     1       3.037  -1.259   0.750  1.00  0.00    -0.279 N 
ATOM      8  HN  UNL     1       2.477  -2.104   0.865  1.00  0.00     0.189 HD
ENDROOT
BRANCH   4   9
HETATM    9  N   UNL     1       6.539  -0.313   0.285  1.00  0.00    -0.310 N 
HETATM   10  C   UNL     1       7.270  -1.489   0.265  1.00  0.00     0.254 C 
HETATM   11  O   UNL     1       6.811  -2.627   0.263  1.00  0.00    -0.270 OA
HETATM   12  H   UNL     1       7.070   0.548   0.231  1.00  0.00     0.170 HD
BRANCH  10  13
HETATM   13  C   UNL     1       8.783  -1.221   0.140  1.00  0.00     0.237 C 
HETATM   14  C   UNL     1       9.614  -2.377   0.713  1.00  0.00     0.209 C 
HETATM   15  O   UNL     1       9.622  -2.364   2.149  1.00  0.00    -0.386 OA
HETATM   16  C   UNL     1      10.098  -1.110   2.639  1.00  0.00     0.193 C 
HETATM   17  C   UNL     1       9.239   0.032   2.108  1.00  0.00     0.195 C 
HETATM   18  O   UNL     1       9.196   0.049   0.672  1.00  0.00    -0.372 OA
ENDBRANCH  10  13
ENDBRANCH   4   9
BRANCH   1  19
HETATM   19  O   UNL     1       1.096  -0.052   0.902  1.00  0.00    -0.345 OA
HETATM   20  H   UNL     1       0.782   0.861   0.829  1.00  0.00     0.219 HD
ENDBRANCH   1  19
TORSDOF 3
