REMARK  6 active torsions:
REMARK  status: ('A' for Active; 'I' for Inactive)
REMARK    1  A    between atoms: C_2  and  C_5 
REMARK    2  A    between atoms: C_5  and  O_6 
REMARK    3  A    between atoms: O_6  and  C_7 
REMARK    4  A    between atoms: C_11  and  N_13 
REMARK       I    between atoms: N_13  and  C_14 
REMARK    5  A    between atoms: C_14  and  C_16 
REMARK    6  A    between atoms: C_16  and  N_17 
ROOT
HETATM    1  C   UNL     1       4.764  -1.314   2.469  1.00  0.00     0.123 C 
HETATM    2  C   UNL     1       6.293  -1.329   2.345  1.00  0.00     0.032 C 
HETATM    3  C   UNL     1       6.755  -2.247   1.209  1.00  0.00     0.004 C 
HETATM    4  C   UNL     1       6.204  -3.663   1.360  1.00  0.00     0.025 C 
HETATM    5  C   UNL     1       4.682  -3.677   1.555  1.00  0.00     0.086 C 
HETATM    6  C   UNL     1       4.258  -2.741   2.701  1.00  0.00     0.057 C 
ENDROOT
BRANCH   5   7
HETATM    7  N   UNL     1       4.151  -5.028   1.721  1.00  0.00    -0.355 N 
HETATM    8  C   UNL     1       4.451  -5.847   2.791  1.00  0.00     0.236 C 
HETATM    9  O   UNL     1       5.214  -5.534   3.703  1.00  0.00    -0.272 OA
HETATM   10  H   UNL     1       3.718  -5.469   0.912  1.00  0.00     0.162 HD
BRANCH   8  11
HETATM   11  C   UNL     1       3.776  -7.215   2.749  1.00  0.00     0.234 C 
BRANCH  11  12
HETATM   12  N   UNL     1       4.581  -8.193   2.026  1.00  0.00    -0.316 N 
HETATM   13  C   UNL     1       5.533  -8.930   2.704  1.00  0.00     0.095 A 
HETATM   14  C   UNL     1       6.252  -9.869   2.079  1.00  0.00     0.017 A 
HETATM   15  C   UNL     1       6.030 -10.130   0.679  1.00  0.00     0.007 A 
HETATM   16  C   UNL     1       5.140  -9.410  -0.016  1.00  0.00     0.074 A 
HETATM   17  C   UNL     1       4.363  -8.333   0.657  1.00  0.00     0.247 A 
HETATM   18  O   UNL     1       3.586  -7.636   0.008  1.00  0.00    -0.268 OA
ENDBRANCH  11  12
ENDBRANCH   8  11
ENDBRANCH   5   7
BRANCH   1  19
HETATM   19  O   UNL     1       4.258  -0.746   1.253  1.00  0.00    -0.377 OA
BRANCH  19  20
HETATM   20  C   UNL     1       2.844  -0.513   1.233  1.00  0.00     0.285 C 
BRANCH  20  21
HETATM   21  C   UNL     1       2.384   0.170  -0.058  1.00  0.00     0.408 C 
HETATM   22  F   UNL     1       3.406   0.501  -0.877  1.00  0.00    -0.169 F 
HETATM   23  F   UNL     1       1.698   1.304   0.218  1.00  0.00    -0.169 F 
HETATM   24  F   UNL     1       1.552  -0.640  -0.757  1.00  0.00    -0.169 F 
ENDBRANCH  20  21
ENDBRANCH  19  20
ENDBRANCH   1  19
TORSDOF 6
