REMARK  9 active torsions:
REMARK  status: ('A' for Active; 'I' for Inactive)
REMARK    1  A    between atoms: N_1  and  C_8 
REMARK    2  A    between atoms: C_6  and  N_9 
REMARK    3  A    between atoms: N_9  and  C_18 
REMARK    4  A    between atoms: C_14  and  C_20 
REMARK    5  A    between atoms: C_14  and  C_21 
REMARK    6  A    between atoms: C_18  and  C_19 
REMARK    7  A    between atoms: C_19  and  O_22 
REMARK    8  A    between atoms: C_20  and  O_24 
REMARK    9  A    between atoms: C_21  and  O_25 
ROOT
HETATM    1  N   UNL     1       1.426   1.421  -0.113  1.00  0.00    -0.322 N 
HETATM    2  C   UNL     1       0.289  -0.440  -0.039  1.00  0.00     0.122 A 
HETATM    3  C   UNL     1       0.137   0.953  -0.036  1.00  0.00     0.140 A 
HETATM    4  N   UNL     1       1.618  -0.799  -0.115  1.00  0.00    -0.346 N 
ATOM      5  HN  UNL     1       2.010  -1.740  -0.128  1.00  0.00     0.167 HD
HETATM    6  C   UNL     1      -0.868  -1.263   0.028  1.00  0.00     0.135 A 
HETATM    7  C   UNL     1       2.265   0.341  -0.167  1.00  0.00     0.185 A 
HETATM    8  N   UNL     1      -1.024   1.619   0.011  1.00  0.00    -0.336 N 
ATOM      9  HN  UNL     1      -1.111   2.635   0.004  1.00  0.00     0.168 HD
HETATM   10  N   UNL     1      -2.063  -0.607   0.090  1.00  0.00    -0.337 N 
ATOM     11  HN  UNL     1      -2.937  -1.129   0.151  1.00  0.00     0.168 HD
HETATM   12  C   UNL     1      -2.071   0.752   0.069  1.00  0.00     0.183 A 
ENDROOT
BRANCH   1  13
HETATM   13  C   UNL     1       2.013   2.732  -0.162  1.00  0.00     0.094 C 
HETATM   14  C   UNL     1       2.316   3.288   1.268  1.00  0.00     0.039 C 
HETATM   15  C   UNL     1       2.275   4.711   0.618  1.00  0.00     0.006 C 
HETATM   16  C   UNL     1       1.232   4.039  -0.383  1.00  0.00     0.039 C 
BRANCH  15  17
HETATM   17  C   UNL     1       1.716   5.805   1.527  1.00  0.00     0.175 C 
BRANCH  17  18
HETATM   18  O   UNL     1       1.370   6.951   0.754  1.00  0.00    -0.400 OA
HETATM   19  H   UNL     1       2.163   7.195   0.233  1.00  0.00     0.209 HD
ENDBRANCH  17  18
ENDBRANCH  15  17
BRANCH  15  20
HETATM   20  C   UNL     1       3.663   5.122   0.081  1.00  0.00     0.175 C 
BRANCH  20  21
HETATM   21  O   UNL     1       3.520   6.166  -0.875  1.00  0.00    -0.400 OA
HETATM   22  H   UNL     1       3.263   5.751  -1.719  1.00  0.00     0.209 HD
ENDBRANCH  20  21
ENDBRANCH  15  20
ENDBRANCH   1  13
BRANCH   6  23
HETATM   23  N   UNL     1      -0.787  -2.655   0.020  1.00  0.00    -0.367 N 
HETATM   24  C   UNL     1       0.094  -3.243  -0.988  1.00  0.00     0.151 C 
BRANCH  23  25
HETATM   25  C   UNL     1      -1.885  -3.502   0.499  1.00  0.00     0.161 C 
BRANCH  25  26
HETATM   26  C   UNL     1      -1.673  -4.111   1.932  1.00  0.00     0.069 C 
HETATM   27  C   UNL     1      -2.702  -5.246   2.130  1.00  0.00     0.047 C 
HETATM   28  C   UNL     1      -0.283  -4.740   2.132  1.00  0.00     0.047 C 
BRANCH  26  29
HETATM   29  O   UNL     1      -1.781  -3.167   3.013  1.00  0.00    -0.384 OA
HETATM   30  C   UNL     1      -2.933  -2.347   3.042  1.00  0.00     0.202 C 
ENDBRANCH  26  29
ENDBRANCH  25  26
ENDBRANCH  23  25
ENDBRANCH   6  23
TORSDOF 9
