REMARK  5 active torsions:
REMARK  status: ('A' for Active; 'I' for Inactive)
REMARK    1  A    between atoms: C_6  and  N_7 
REMARK       I    between atoms: N_7  and  C_8 
REMARK       I    between atoms: C_8  and  N_10 
REMARK    2  A    between atoms: N_10  and  C_11 
REMARK    3  A    between atoms: C_11  and  C_12 
REMARK    4  A    between atoms: C_12  and  C_13 
REMARK    5  A    between atoms: C_13  and  N_14 
ROOT
HETATM    1  N   UNL     1       4.945  -2.507  -0.147  1.00  0.00    -0.295 N 
HETATM    2  C   UNL     1       4.241  -3.679  -0.305  1.00  0.00     0.321 C 
HETATM    3  O   UNL     1       3.030  -3.829  -0.332  1.00  0.00    -0.247 OA
HETATM    4  N   UNL     1       5.099  -4.758  -0.474  1.00  0.00    -0.343 N 
HETATM    5  H   UNL     1       5.933  -2.527  -0.328  1.00  0.00     0.172 HD
HETATM    6  H   UNL     1       5.941  -4.711   0.078  1.00  0.00     0.164 HD
ENDROOT
BRANCH   1   7
HETATM    7  C   UNL     1       4.337  -1.258   0.038  1.00  0.00     0.109 A 
HETATM    8  C   UNL     1       5.137  -0.125   0.044  1.00  0.00     0.049 A 
HETATM    9  C   UNL     1       4.528   1.124   0.190  1.00  0.00     0.006 A 
HETATM   10  C   UNL     1       3.145   1.201   0.331  1.00  0.00     0.025 A 
HETATM   11  C   UNL     1       2.416   0.023   0.328  1.00  0.00     0.007 A 
HETATM   12  C   UNL     1       0.931   0.002   0.501  1.00  0.00     0.068 C 
HETATM   13  N   UNL     1       3.006  -1.182   0.200  1.00  0.00    -0.346 N 
ATOM     14  HN  UNL     1       2.444  -2.033   0.226  1.00  0.00     0.167 HD
ENDBRANCH   1   7
BRANCH   4  15
HETATM   15  C   UNL     1       4.478  -6.063  -0.615  1.00  0.00     0.126 C 
BRANCH  15  16
HETATM   16  C   UNL     1       5.482  -7.194  -0.766  1.00  0.00     0.050 C 
BRANCH  16  17
HETATM   17  C   UNL     1       6.390  -7.047  -1.993  1.00  0.00     0.274 C 
BRANCH  17  18
HETATM   18  N   UNL     1       7.237  -8.234  -2.178  1.00  0.00     0.092 N 
HETATM   19  C   UNL     1       8.232  -8.463  -1.110  1.00  0.00     0.298 C 
HETATM   20  C   UNL     1       9.531  -7.647  -1.224  1.00  0.00     0.198 C 
HETATM   21  O   UNL     1      10.122  -7.758  -2.522  1.00  0.00    -0.388 OA
HETATM   22  C   UNL     1       9.188  -7.352  -3.527  1.00  0.00     0.198 C 
HETATM   23  C   UNL     1       7.926  -8.228  -3.486  1.00  0.00     0.298 C 
ENDBRANCH  17  18
ENDBRANCH  16  17
ENDBRANCH  15  16
ENDBRANCH   4  15
TORSDOF 5
