REMARK  8 active torsions:
REMARK  status: ('A' for Active; 'I' for Inactive)
REMARK    1  A    between atoms: C_2  and  C_3 
REMARK    2  A    between atoms: C_3  and  N_4 
REMARK    3  A    between atoms: C_5  and  N_6 
REMARK    4  A    between atoms: C_7  and  N_8 
REMARK    5  A    between atoms: N_8  and  C_9 
REMARK       I    between atoms: N_8  and  C_13 
REMARK    6  A    between atoms: C_9  and  C_10 
REMARK    7  A    between atoms: C_10  and  O_11 
REMARK    8  A    between atoms: C_13  and  C_15 
ROOT
HETATM    1  N   UNL     1       5.089  -0.843  -1.015  1.00  0.00    -0.288 N 
HETATM    2  C   UNL     1       5.917  -1.952  -1.213  1.00  0.00     0.117 C 
HETATM    3  C   UNL     1       6.491  -2.561  -0.143  1.00  0.00     0.144 C 
HETATM    4  C   UNL     1       6.193  -2.013   1.214  1.00  0.00     0.279 C 
HETATM    5  O   UNL     1       6.289  -2.683   2.234  1.00  0.00    -0.265 OA
HETATM    6  N   UNL     1       5.740  -0.730   1.228  1.00  0.00    -0.273 N 
HETATM    7  C   UNL     1       4.988  -0.208   0.221  1.00  0.00     0.330 C 
HETATM    8  O   UNL     1       4.250   0.749   0.453  1.00  0.00    -0.246 OA
HETATM    9  H   UNL     1       5.543  -0.339   2.137  1.00  0.00     0.173 HD
ENDROOT
BRANCH   3  10
HETATM   10  N   UNL     1       7.276  -3.712  -0.265  1.00  0.00    -0.308 N 
HETATM   11  C   UNL     1       6.795  -4.993   0.079  1.00  0.00     0.228 C 
HETATM   12  O   UNL     1       7.576  -5.936   0.257  1.00  0.00    -0.273 OA
BRANCH  10  13
HETATM   13  C   UNL     1       8.738  -3.608  -0.099  1.00  0.00     0.158 C 
BRANCH  13  14
HETATM   14  C   UNL     1       9.453  -2.304  -0.454  1.00  0.00     0.187 C 
BRANCH  14  15
HETATM   15  O   UNL     1       9.311  -1.342   0.592  1.00  0.00    -0.394 OA
HETATM   16  C   UNL     1      10.184  -0.236   0.388  1.00  0.00     0.201 C 
ENDBRANCH  14  15
ENDBRANCH  13  14
ENDBRANCH  10  13
BRANCH  11  17
HETATM   17  C   UNL     1       5.290  -5.250   0.063  1.00  0.00     0.078 C 
HETATM   18  C   UNL     1       4.886  -6.467   0.916  1.00  0.00     0.014 C 
HETATM   19  C   UNL     1       3.763  -7.179   0.161  1.00  0.00     0.001 C 
HETATM   20  C   UNL     1       3.527  -6.371  -1.106  1.00  0.00     0.001 C 
HETATM   21  C   UNL     1       4.841  -5.648  -1.343  1.00  0.00     0.014 C 
ENDBRANCH  11  17
ENDBRANCH   3  10
BRANCH   2  22
HETATM   22  N   UNL     1       6.156  -2.447  -2.490  1.00  0.00    -0.286 NA
HETATM   23  H   UNL     1       5.325  -2.460  -3.071  1.00  0.00     0.125 HD
HETATM   24  H   UNL     1       6.612  -3.358  -2.466  1.00  0.00     0.125 HD
ENDBRANCH   2  22
BRANCH   1  25
HETATM   25  C   UNL     1       4.306  -0.263  -2.116  1.00  0.00     0.135 C 
BRANCH  25  26
HETATM   26  C   UNL     1       2.948  -0.947  -2.343  1.00  0.00     0.016 C 
HETATM   27  C   UNL     1       1.945  -0.741  -1.214  1.00  0.00     0.006 C 
ENDBRANCH  25  26
ENDBRANCH   1  25
TORSDOF 8
