REMARK  3 active torsions:
REMARK  status: ('A' for Active; 'I' for Inactive)
REMARK       I    between atoms: N_4  and  C_9 
REMARK       I    between atoms: C_9  and  N_11 
REMARK    1  A    between atoms: N_11  and  C_12 
REMARK    2  A    between atoms: C_12  and  C_13 
REMARK    3  A    between atoms: C_13  and  C_14 
ROOT
HETATM    1  C   UNL     1       0.953   0.253   0.195  1.00  0.00     0.041 C 
HETATM    2  C   UNL     1       2.448   0.088  -0.066  1.00  0.00     0.136 C 
HETATM    3  C   UNL     1       2.979   1.073  -1.125  1.00  0.00     0.159 C 
HETATM    4  N   UNL     1       2.563   0.674  -2.473  1.00  0.00    -0.329 N 
HETATM    5  C   UNL     1       2.912  -0.714  -2.788  1.00  0.00     0.159 C 
HETATM    6  C   UNL     1       2.346  -1.664  -1.716  1.00  0.00     0.136 C 
HETATM    7  C   UNL     1       2.823  -3.091  -1.946  1.00  0.00     0.041 C 
HETATM    8  O   UNL     1       2.780  -1.273  -0.399  1.00  0.00    -0.378 OA
HETATM    9  C   UNL     1       1.692   1.345  -3.306  1.00  0.00     0.318 C 
HETATM   10  O   UNL     1       1.246   0.853  -4.337  1.00  0.00    -0.247 OA
HETATM   11  N   UNL     1       1.334   2.603  -2.894  1.00  0.00    -0.343 N 
HETATM   12  H   UNL     1       2.041   3.114  -2.395  1.00  0.00     0.164 HD
ENDROOT
BRANCH  11  13
HETATM   13  C   UNL     1       0.430   3.390  -3.717  1.00  0.00     0.129 C 
BRANCH  13  14
HETATM   14  C   UNL     1       0.014   4.712  -3.067  1.00  0.00     0.061 C 
BRANCH  14  15
HETATM   15  C   UNL     1      -0.739   4.546  -1.791  1.00  0.00    -0.023 A 
HETATM   16  C   UNL     1      -0.374   5.009  -0.506  1.00  0.00     0.115 A 
HETATM   17  N   UNL     1      -1.269   4.690   0.431  1.00  0.00    -0.310 N 
HETATM   18  N   UNL     1      -2.221   4.029  -0.252  1.00  0.00    -0.308 N 
ATOM     19  HN  UNL     1      -1.238   4.898   1.429  1.00  0.00     0.186 HD
HETATM   20  C   UNL     1      -3.382   3.514   0.431  1.00  0.00     0.177 C 
HETATM   21  C   UNL     1      -1.954   3.924  -1.586  1.00  0.00     0.118 A 
ENDBRANCH  14  15
ENDBRANCH  13  14
ENDBRANCH  11  13
TORSDOF 3
