REMARK  2 active torsions:
REMARK  status: ('A' for Active; 'I' for Inactive)
REMARK    1  A    between atoms: C_6  and  C_8 
REMARK       I    between atoms: C_8  and  N_10 
REMARK    2  A    between atoms: N_10  and  C_11 
ROOT
HETATM    1  C   UNL     1       2.779  -3.217  -1.999  1.00  0.00     0.254 C 
HETATM    2  O   UNL     1       2.843  -3.992  -1.047  1.00  0.00    -0.270 OA
HETATM    3  N   UNL     1       2.923  -3.582  -3.321  1.00  0.00    -0.311 N 
HETATM    4  H   UNL     1       3.311  -2.872  -3.935  1.00  0.00     0.170 HD
ENDROOT
BRANCH   3   5
HETATM    5  C   UNL     1       3.164  -4.901  -3.707  1.00  0.00     0.108 A 
HETATM    6  C   UNL     1       2.433  -5.958  -3.165  1.00  0.00     0.055 A 
HETATM    7  C   UNL     1       2.716  -7.260  -3.571  1.00  0.00    -0.057 A 
HETATM    8  C   UNL     1       1.929  -8.424  -3.051  1.00  0.00     0.048 C 
HETATM    9  C   UNL     1       3.765  -7.455  -4.468  1.00  0.00     0.031 A 
HETATM   10  C   UNL     1       4.446  -6.344  -4.965  1.00  0.00     0.007 A 
HETATM   11  C   UNL     1       5.650  -6.517  -5.840  1.00  0.00     0.068 C 
HETATM   12  N   UNL     1       4.117  -5.069  -4.641  1.00  0.00    -0.346 N 
ATOM     13  HN  UNL     1       4.572  -4.272  -5.086  1.00  0.00     0.167 HD
ENDBRANCH   3   5
BRANCH   1  14
HETATM   14  C   UNL     1       2.429  -1.735  -1.804  1.00  0.00     0.241 C 
HETATM   15  O   UNL     1       2.774  -0.891  -2.913  1.00  0.00    -0.373 OA
HETATM   16  C   UNL     1       2.310   0.447  -2.665  1.00  0.00     0.199 C 
HETATM   17  C   UNL     1       2.905   1.030  -1.368  1.00  0.00     0.298 C 
HETATM   18  N   UNL     1       2.717   0.180  -0.175  1.00  0.00     0.089 N 
HETATM   19  C   UNL     1       1.352   0.248   0.344  1.00  0.00     0.310 C 
HETATM   20  C   UNL     1       3.096  -1.213  -0.512  1.00  0.00     0.313 C 
ENDBRANCH   1  14
TORSDOF 2
