REMARK  4 active torsions:
REMARK  status: ('A' for Active; 'I' for Inactive)
REMARK    1  A    between atoms: C_2  and  S_3 
REMARK    2  A    between atoms: S_3  and  C_4 
REMARK    3  A    between atoms: C_8  and  N_9 
REMARK       I    between atoms: N_9  and  C_10 
REMARK       I    between atoms: C_10  and  N_12 
REMARK    4  A    between atoms: N_12  and  C_13 
ROOT
HETATM    1  N   UNL     1       4.566   3.047   2.283  1.00  0.00    -0.337 N 
HETATM    2  C   UNL     1       5.077   2.965   3.558  1.00  0.00     0.322 C 
HETATM    3  O   UNL     1       6.251   2.697   3.776  1.00  0.00    -0.247 OA
HETATM    4  N   UNL     1       4.151   3.198   4.545  1.00  0.00    -0.289 N 
HETATM    5  H   UNL     1       3.653   3.455   2.178  1.00  0.00     0.164 HD
HETATM    6  H   UNL     1       3.169   3.063   4.374  1.00  0.00     0.172 HD
ENDROOT
BRANCH   1   7
HETATM    7  C   UNL     1       5.360   2.892   1.046  1.00  0.00     0.100 C 
HETATM    8  C   UNL     1       4.842   1.756   0.137  1.00  0.00     0.070 C 
HETATM    9  C   UNL     1       5.381   0.488   0.810  1.00  0.00     0.017 C 
HETATM   10  C   UNL     1       6.718   0.916   1.430  1.00  0.00     0.003 C 
HETATM   11  C   UNL     1       6.817   2.427   1.188  1.00  0.00     0.026 C 
BRANCH   8  12
HETATM   12  S   UNL     1       3.049   1.704  -0.182  1.00  0.00    -0.163 SA
BRANCH  12  13
HETATM   13  C   UNL     1       2.828   3.261  -1.114  1.00  0.00     0.070 C 
HETATM   14  C   UNL     1       3.690   3.374  -2.360  1.00  0.00     0.016 C 
ENDBRANCH  12  13
ENDBRANCH   8  12
ENDBRANCH   1   7
BRANCH   4  15
HETATM   15  C   UNL     1       4.592   3.226   5.847  1.00  0.00     0.152 A 
HETATM   16  N   UNL     1       5.829   3.331   6.265  1.00  0.00    -0.346 N 
HETATM   17  C   UNL     1       5.879   3.202   7.629  1.00  0.00     0.097 A 
ATOM     18  HN  UNL     1       6.638   3.486   5.663  1.00  0.00     0.167 HD
HETATM   19  C   UNL     1       4.653   3.084   8.247  1.00  0.00     0.070 A 
HETATM   20  S   UNL     1       3.403   3.105   7.060  1.00  0.00    -0.064 SA
ENDBRANCH   4  15
TORSDOF 4
