REMARK  3 active torsions:
REMARK  status: ('A' for Active; 'I' for Inactive)
REMARK    1  A    between atoms: C_2  and  C_7 
REMARK       I    between atoms: C_7  and  N_9 
REMARK    2  A    between atoms: N_9  and  C_10 
REMARK    3  A    between atoms: C_16  and  O_17 
ROOT
HETATM    1  C   UNL     1       2.973   0.105  -1.635  1.00  0.00     0.257 C 
HETATM    2  O   UNL     1       3.292  -0.872  -2.307  1.00  0.00    -0.270 OA
HETATM    3  N   UNL     1       2.866   1.401  -2.109  1.00  0.00    -0.308 N 
HETATM    4  H   UNL     1       3.044   2.137  -1.433  1.00  0.00     0.170 HD
ENDROOT
BRANCH   3   5
HETATM    5  C   UNL     1       3.022   1.742  -3.456  1.00  0.00     0.141 A 
HETATM    6  N   UNL     1       2.554   0.931  -4.424  1.00  0.00    -0.350 N 
HETATM    7  C   UNL     1       2.736   1.323  -5.704  1.00  0.00     0.090 A 
ATOM      8  HN  UNL     1       2.081   0.056  -4.200  1.00  0.00     0.166 HD
HETATM    9  C   UNL     1       3.379   2.497  -6.068  1.00  0.00     0.020 A 
HETATM   10  C   UNL     1       3.855   3.330  -5.061  1.00  0.00     0.041 A 
HETATM   11  C   UNL     1       3.661   2.954  -3.736  1.00  0.00     0.110 A 
BRANCH  11  12
HETATM   12  O   UNL     1       4.138   3.722  -2.710  1.00  0.00    -0.357 OA
HETATM   13  H   UNL     1       4.802   4.333  -3.072  1.00  0.00     0.218 HD
ENDBRANCH  11  12
ENDBRANCH   3   5
BRANCH   1  14
HETATM   14  C   UNL     1       2.638   0.001  -0.128  1.00  0.00     0.138 C 
HETATM   15  C   UNL     1       1.119   0.082   0.028  1.00  0.00     0.056 C 
HETATM   16  C   UNL     1       3.198  -1.276   0.504  1.00  0.00     0.050 C 
HETATM   17  C   UNL     1       4.395  -0.830   1.315  1.00  0.00     0.030 C 
HETATM   18  C   UNL     1       4.467   0.669   1.134  1.00  0.00     0.169 C 
HETATM   19  O   UNL     1       3.213   1.099   0.604  1.00  0.00    -0.371 OA
ENDBRANCH   1  14
TORSDOF 3
