REMARK  6 active torsions:
REMARK  status: ('A' for Active; 'I' for Inactive)
REMARK    1  A    between atoms: C_2  and  C_3 
REMARK    2  A    between atoms: C_3  and  C_4 
REMARK    3  A    between atoms: C_4  and  C_6 
REMARK       I    between atoms: C_6  and  N_8 
REMARK    4  A    between atoms: N_8  and  C_9 
REMARK    5  A    between atoms: C_9  and  C_10 
REMARK    6  A    between atoms: C_16  and  N_17 
ROOT
HETATM    1  C   UNL     1       8.276   4.054  -1.508  1.00  0.00     0.004 A 
HETATM    2  C   UNL     1       8.842   3.383  -2.617  1.00  0.00     0.014 A 
HETATM    3  C   UNL     1      10.213   3.336  -2.798  1.00  0.00     0.018 A 
HETATM    4  C   UNL     1      10.986   3.974  -1.861  1.00  0.00     0.089 A 
HETATM    5  N   UNL     1      10.481   4.579  -0.766  1.00  0.00    -0.352 N 
ATOM      6  HN  UNL     1      11.113   5.020  -0.098  1.00  0.00     0.166 HD
HETATM    7  C   UNL     1       9.140   4.608  -0.541  1.00  0.00     0.111 A 
ENDROOT
BRANCH   1   8
HETATM    8  C   UNL     1       6.774   4.195  -1.534  1.00  0.00     0.165 C 
BRANCH   8   9
HETATM    9  N   UNL     1       6.073   3.107  -0.884  1.00  0.00    -0.356 N 
HETATM   10  C   UNL     1       4.721   3.204  -0.635  1.00  0.00     0.221 C 
HETATM   11  O   UNL     1       4.060   4.174  -0.995  1.00  0.00    -0.273 OA
HETATM   12  H   UNL     1       6.596   2.295  -0.583  1.00  0.00     0.162 HD
BRANCH  10  13
HETATM   13  C   UNL     1       4.125   2.035   0.156  1.00  0.00     0.074 C 
HETATM   14  C   UNL     1       2.599   2.065   0.036  1.00  0.00     0.020 C 
BRANCH  13  15
HETATM   15  C   UNL     1       4.590   2.089   1.627  1.00  0.00     0.013 C 
BRANCH  15  16
HETATM   16  C   UNL     1       4.106   0.900   2.465  1.00  0.00    -0.004 C 
HETATM   17  C   UNL     1       4.599   0.973   3.901  1.00  0.00     0.005 C 
ENDBRANCH  15  16
ENDBRANCH  13  15
ENDBRANCH  10  13
ENDBRANCH   8   9
ENDBRANCH   1   8
BRANCH   7  18
HETATM   18  N   UNL     1       8.778   5.135   0.683  1.00  0.00    -0.363 N 
HETATM   19  C   UNL     1       9.624   6.212   1.240  1.00  0.00     0.150 C 
HETATM   20  C   UNL     1       9.573   6.205   2.778  1.00  0.00     0.187 C 
HETATM   21  O   UNL     1       8.225   6.257   3.269  1.00  0.00    -0.388 OA
HETATM   22  C   UNL     1       7.514   5.103   2.817  1.00  0.00     0.187 C 
HETATM   23  C   UNL     1       7.450   5.036   1.285  1.00  0.00     0.150 C 
ENDBRANCH   7  18
TORSDOF 6
