REMARK  7 active torsions:
REMARK  status: ('A' for Active; 'I' for Inactive)
REMARK       I    between atoms: N_1  and  C_2 
REMARK    1  A    between atoms: C_2  and  C_4 
REMARK    2  A    between atoms: C_4  and  C_5 
REMARK    3  A    between atoms: C_5  and  N_6 
REMARK    4  A    between atoms: N_6  and  C_7 
REMARK    5  A    between atoms: C_7  and  C_8 
REMARK    6  A    between atoms: C_7  and  C_16 
REMARK    7  A    between atoms: C_8  and  C_9 
ROOT
HETATM    1  N   UNL     1       5.244   0.836  -2.440  1.00  0.00     0.098 N 
HETATM    2  H   UNL     1       5.332   1.855  -2.489  1.00  0.00     0.316 HD
ENDROOT
BRANCH   1   3
HETATM    3  C   UNL     1       4.684   0.431  -1.145  1.00  0.00     0.289 C 
BRANCH   3   4
HETATM    4  C   UNL     1       3.378   1.204  -0.780  1.00  0.00     0.070 C 
HETATM    5  C   UNL     1       3.680   2.698  -0.499  1.00  0.00     0.047 C 
HETATM    6  C   UNL     1       2.395   3.503  -0.333  1.00  0.00     0.168 C 
HETATM    7  O   UNL     1       1.604   3.392  -1.513  1.00  0.00    -0.391 OA
HETATM    8  C   UNL     1       1.159   2.058  -1.735  1.00  0.00     0.168 C 
HETATM    9  C   UNL     1       2.337   1.110  -1.924  1.00  0.00     0.047 C 
BRANCH   4  10
HETATM   10  C   UNL     1       2.847   0.574   0.525  1.00  0.00     0.226 C 
HETATM   11  N   UNL     1       2.267  -0.655   0.459  1.00  0.00    -0.369 N 
HETATM   12  H   UNL     1       1.921  -1.045   1.328  1.00  0.00     0.159 HD
HETATM   13  H   UNL     1       2.100  -1.169  -0.393  1.00  0.00     0.159 HD
HETATM   14  O   UNL     1       2.985   1.097   1.628  1.00  0.00    -0.273 OA
ENDBRANCH   4  10
ENDBRANCH   3   4
ENDBRANCH   1   3
BRANCH   1  15
HETATM   15  C   UNL     1       6.574   0.251  -2.804  1.00  0.00     0.331 C 
BRANCH  15  16
HETATM   16  C   UNL     1       6.483  -1.283  -2.976  1.00  0.00     0.083 C 
BRANCH  16  17
HETATM   17  C   UNL     1       7.757  -2.018  -3.327  1.00  0.00    -0.053 A 
HETATM   18  C   UNL     1       8.882  -1.975  -2.503  1.00  0.00     0.024 A 
HETATM   19  C   UNL     1       9.995  -2.723  -2.862  1.00  0.00     0.088 A 
HETATM   20  N   UNL     1      10.061  -3.494  -3.968  1.00  0.00    -0.375 N 
HETATM   21  C   UNL     1       8.966  -3.518  -4.755  1.00  0.00     0.088 A 
ATOM     22  HN  UNL     1      10.897  -4.031  -4.197  1.00  0.00     0.164 HD
HETATM   23  C   UNL     1       7.812  -2.809  -4.483  1.00  0.00     0.024 A 
ENDBRANCH  16  17
ENDBRANCH  15  16
BRANCH  15  24
HETATM   24  C   UNL     1       7.177   0.924  -4.082  1.00  0.00     0.418 C 
HETATM   25  F   UNL     1       6.516   2.074  -4.377  1.00  0.00    -0.169 F 
HETATM   26  F   UNL     1       8.469   1.270  -3.875  1.00  0.00    -0.169 F 
HETATM   27  F   UNL     1       7.121   0.146  -5.182  1.00  0.00    -0.169 F 
ENDBRANCH  15  24
ENDBRANCH   1  15
TORSDOF 7
