REMARK  4 active torsions:
REMARK  status: ('A' for Active; 'I' for Inactive)
REMARK    1  A    between atoms: C_2  and  C_3 
REMARK    2  A    between atoms: C_2  and  N_10 
REMARK    3  A    between atoms: C_3  and  N_4 
REMARK       I    between atoms: N_10  and  C_11 
REMARK       I    between atoms: C_11  and  N_13 
REMARK    4  A    between atoms: C_17  and  N_19 
REMARK       I    between atoms: N_19  and  C_20 
ROOT
HETATM    1  N   UNL     1       3.265   1.044   1.048  1.00  0.00    -0.337 N 
HETATM    2  C   UNL     1       4.520   0.803   1.544  1.00  0.00     0.318 C 
HETATM    3  O   UNL     1       5.260  -0.036   1.037  1.00  0.00    -0.247 OA
HETATM    4  N   UNL     1       4.881   1.578   2.631  1.00  0.00    -0.332 N 
HETATM    5  C   UNL     1       4.127   2.711   3.172  1.00  0.00     0.127 C 
HETATM    6  C   UNL     1       5.016   3.946   3.295  1.00  0.00     0.022 C 
HETATM    7  C   UNL     1       6.258   3.655   4.133  1.00  0.00     0.028 C 
HETATM    8  C   UNL     1       7.024   2.441   3.583  1.00  0.00     0.102 C 
HETATM    9  C   UNL     1       6.090   1.227   3.384  1.00  0.00     0.152 C 
HETATM   10  H   UNL     1       2.588   1.297   1.751  1.00  0.00     0.164 HD
ENDROOT
BRANCH   1  11
HETATM   11  C   UNL     1       2.740   0.302  -0.108  1.00  0.00     0.102 C 
HETATM   12  C   UNL     1       1.211   0.383  -0.090  1.00  0.00     0.034 C 
BRANCH  11  13
HETATM   13  C   UNL     1       3.339   0.841  -1.420  1.00  0.00     0.172 C 
BRANCH  13  14
HETATM   14  N   UNL     1       2.918   0.104  -2.597  1.00  0.00    -0.302 N 
HETATM   15  C   UNL     1       3.524  -0.996  -3.137  1.00  0.00     0.111 A 
HETATM   16  C   UNL     1       2.790  -1.326  -4.252  1.00  0.00     0.037 A 
HETATM   17  C   UNL     1       1.769  -0.362  -4.307  1.00  0.00     0.108 A 
HETATM   18  N   UNL     1       1.847   0.517  -3.304  1.00  0.00    -0.310 N 
ATOM     19  HN  UNL     1       1.239   1.314  -3.117  1.00  0.00     0.186 HD
ENDBRANCH  13  14
ENDBRANCH  11  13
ENDBRANCH   1  11
BRANCH   8  20
HETATM   20  N   UNL     1       8.208   2.143   4.389  1.00  0.00    -0.355 N 
HETATM   21  C   UNL     1       8.151   1.726   5.699  1.00  0.00     0.213 C 
HETATM   22  O   UNL     1       7.106   1.539   6.312  1.00  0.00    -0.274 OA
HETATM   23  C   UNL     1       9.493   1.504   6.343  1.00  0.00     0.117 C 
HETATM   24  H   UNL     1       9.112   2.291   3.961  1.00  0.00     0.162 HD
ENDBRANCH   8  20
TORSDOF 4
