REMARK  7 active torsions:
REMARK  status: ('A' for Active; 'I' for Inactive)
REMARK    1  A    between atoms: N_6  and  C_7 
REMARK    2  A    between atoms: C_7  and  C_8 
REMARK    3  A    between atoms: C_8  and  O_9 
REMARK    4  A    between atoms: C_8  and  C_10 
REMARK    5  A    between atoms: C_10  and  N_11 
REMARK    6  A    between atoms: C_23  and  C_24 
REMARK    7  A    between atoms: C_24  and  O_25 
ROOT
HETATM    1  C   UNL     1       3.015  -3.379  -3.698  1.00  0.00     0.164 C 
ENDROOT
BRANCH   1   2
HETATM    2  C   UNL     1       3.183  -3.019  -2.192  1.00  0.00     0.306 C 
BRANCH   2   3
HETATM    3  N   UNL     1       3.045  -1.588  -1.799  1.00  0.00     0.098 N 
HETATM    4  C   UNL     1       1.669  -1.129  -2.075  1.00  0.00     0.273 C 
HETATM    5  C   UNL     1       1.403   0.334  -1.736  1.00  0.00     0.031 C 
HETATM    6  C   UNL     1       2.432   1.236  -2.399  1.00  0.00     0.008 C 
HETATM    7  C   UNL     1       3.852   0.811  -2.008  1.00  0.00     0.017 C 
HETATM    8  C   UNL     1       4.133   1.138  -0.534  1.00  0.00     0.012 C 
HETATM    9  C   UNL     1       4.073  -0.683  -2.386  1.00  0.00     0.250 C 
BRANCH   9  10
HETATM   10  C   UNL     1       5.531  -1.116  -2.062  1.00  0.00     0.200 C 
BRANCH  10  11
HETATM   11  O   UNL     1       6.490  -0.290  -2.721  1.00  0.00    -0.399 OA
HETATM   12  H   UNL     1       6.281  -0.306  -3.672  1.00  0.00     0.209 HD
ENDBRANCH  10  11
ENDBRANCH   9  10
ENDBRANCH   2   3
ENDBRANCH   1   2
BRANCH   1  13
HETATM   13  O   UNL     1       3.991  -2.699  -4.494  1.00  0.00    -0.392 OA
HETATM   14  H   UNL     1       4.867  -3.066  -4.295  1.00  0.00     0.210 HD
ENDBRANCH   1  13
BRANCH   1  15
HETATM   15  C   UNL     1       3.134  -4.889  -3.938  1.00  0.00     0.163 C 
BRANCH  15  16
HETATM   16  N   UNL     1       2.848  -5.225  -5.324  1.00  0.00    -0.339 N 
HETATM   17  C   UNL     1       1.599  -5.448  -5.834  1.00  0.00     0.184 A 
HETATM   18  N   UNL     1       1.641  -5.737  -7.113  1.00  0.00    -0.350 N 
HETATM   19  C   UNL     1       2.973  -5.689  -7.448  1.00  0.00     0.060 A 
ATOM     20  HN  UNL     1       0.855  -5.951  -7.726  1.00  0.00     0.166 HD
HETATM   21  C   UNL     1       3.592  -5.926  -8.684  1.00  0.00     0.039 A 
HETATM   22  C   UNL     1       3.756  -5.359  -6.348  1.00  0.00     0.062 A 
HETATM   23  C   UNL     1       4.995  -5.836  -8.797  1.00  0.00    -0.054 A 
HETATM   24  C   UNL     1       5.624  -6.148 -10.129  1.00  0.00     0.049 C 
HETATM   25  C   UNL     1       5.768  -5.476  -7.673  1.00  0.00    -0.054 A 
HETATM   26  C   UNL     1       7.271  -5.365  -7.719  1.00  0.00     0.049 C 
HETATM   27  C   UNL     1       5.147  -5.226  -6.431  1.00  0.00     0.039 A 
ENDBRANCH  15  16
ENDBRANCH   1  15
TORSDOF 7
