REMARK  5 active torsions:
REMARK  status: ('A' for Active; 'I' for Inactive)
REMARK       I    between atoms: N_2  and  C_3 
REMARK    1  A    between atoms: C_3  and  C_5 
REMARK    2  A    between atoms: C_5  and  N_6 
REMARK    3  A    between atoms: C_9  and  N_12 
REMARK       I    between atoms: N_12  and  C_13 
REMARK       I    between atoms: C_13  and  N_15 
REMARK    4  A    between atoms: N_15  and  C_16 
REMARK    5  A    between atoms: C_19  and  O_20 
ROOT
HETATM    1  N   UNL     1       6.268  -5.505   0.737  1.00  0.00    -0.338 N 
HETATM    2  C   UNL     1       5.967  -6.791   1.125  1.00  0.00     0.321 C 
HETATM    3  O   UNL     1       4.933  -7.095   1.704  1.00  0.00    -0.247 OA
HETATM    4  N   UNL     1       7.015  -7.647   0.853  1.00  0.00    -0.308 N 
HETATM    5  H   UNL     1       6.783  -5.439  -0.130  1.00  0.00     0.164 HD
HETATM    6  H   UNL     1       7.920  -7.200   0.906  1.00  0.00     0.170 HD
ENDROOT
BRANCH   1   7
HETATM    7  C   UNL     1       5.392  -4.390   1.099  1.00  0.00     0.089 C 
HETATM    8  C   UNL     1       4.186  -4.254   0.172  1.00  0.00     0.055 C 
HETATM    9  C   UNL     1       4.558  -3.654  -1.182  1.00  0.00     0.275 C 
HETATM   10  N   UNL     1       5.313  -2.387  -1.117  1.00  0.00     0.097 N 
HETATM   11  C   UNL     1       6.496  -2.545  -0.250  1.00  0.00     0.275 C 
HETATM   12  C   UNL     1       6.186  -3.084   1.150  1.00  0.00     0.055 C 
BRANCH  10  13
HETATM   13  C   UNL     1       4.496  -1.233  -0.652  1.00  0.00     0.374 C 
BRANCH  13  14
HETATM   14  C   UNL     1       3.359  -0.849  -1.603  1.00  0.00     0.245 C 
HETATM   15  N   UNL     1       3.591  -1.098  -2.935  1.00  0.00    -0.364 N 
HETATM   16  C   UNL     1       2.622  -0.754  -3.941  1.00  0.00     0.149 C 
HETATM   17  H   UNL     1       4.448  -1.589  -3.173  1.00  0.00     0.161 HD
HETATM   18  O   UNL     1       2.347  -0.284  -1.196  1.00  0.00    -0.272 OA
ENDBRANCH  13  14
ENDBRANCH  10  13
ENDBRANCH   1   7
BRANCH   4  19
HETATM   19  C   UNL     1       6.958  -9.013   1.193  1.00  0.00     0.051 A 
HETATM   20  C   UNL     1       8.069  -9.616   1.777  1.00  0.00     0.035 A 
HETATM   21  C   UNL     1       7.987 -10.950   2.176  1.00  0.00     0.058 A 
HETATM   22  C   UNL     1       6.817 -11.649   1.919  1.00  0.00     0.141 A 
HETATM   23  N   UNL     1       5.741 -11.108   1.312  1.00  0.00    -0.345 N 
HETATM   24  C   UNL     1       5.827  -9.797   0.983  1.00  0.00     0.119 A 
ATOM     25  HN  UNL     1       4.906 -11.658   1.111  1.00  0.00     0.167 HD
BRANCH  22  26
HETATM   26  O   UNL     1       6.782 -12.964   2.337  1.00  0.00    -0.341 OA
HETATM   27  C   UNL     1       5.586 -13.633   1.949  1.00  0.00     0.211 C 
ENDBRANCH  22  26
ENDBRANCH   4  19
TORSDOF 5
