REMARK  3 active torsions:
REMARK  status: ('A' for Active; 'I' for Inactive)
REMARK    1  A    between atoms: O_2  and  C_3 
REMARK    2  A    between atoms: C_7  and  N_8 
REMARK       I    between atoms: N_8  and  C_9 
REMARK       I    between atoms: C_9  and  N_11 
REMARK    3  A    between atoms: N_11  and  C_12 
ROOT
HETATM    1  N   UNL     1       3.015   2.794   0.540  1.00  0.00    -0.336 N 
HETATM    2  C   UNL     1       2.005   3.287   1.333  1.00  0.00     0.322 C 
HETATM    3  O   UNL     1       0.837   3.332   0.967  1.00  0.00    -0.247 OA
HETATM    4  N   UNL     1       2.481   3.787   2.523  1.00  0.00    -0.295 N 
HETATM    5  H   UNL     1       3.738   2.290   1.037  1.00  0.00     0.164 HD
HETATM    6  H   UNL     1       3.373   4.252   2.447  1.00  0.00     0.172 HD
ENDROOT
BRANCH   1   7
HETATM    7  C   UNL     1       2.723   2.362  -0.828  1.00  0.00     0.115 C 
HETATM    8  C   UNL     1       2.906   0.851  -1.062  1.00  0.00     0.143 C 
HETATM    9  C   UNL     1       4.416   0.695  -1.248  1.00  0.00     0.034 C 
HETATM   10  C   UNL     1       4.916   2.028  -1.804  1.00  0.00     0.005 C 
HETATM   11  C   UNL     1       3.719   2.973  -1.806  1.00  0.00     0.028 C 
BRANCH   8  12
HETATM   12  O   UNL     1       2.457   0.032   0.012  1.00  0.00    -0.389 OA
HETATM   13  C   UNL     1       1.037  -0.047   0.083  1.00  0.00     0.202 C 
ENDBRANCH   8  12
ENDBRANCH   1   7
BRANCH   4  14
HETATM   14  C   UNL     1       1.611   4.439   3.407  1.00  0.00     0.108 A 
HETATM   15  C   UNL     1       0.368   3.897   3.732  1.00  0.00     0.052 A 
HETATM   16  C   UNL     1      -0.512   4.644   4.506  1.00  0.00     0.047 A 
HETATM   17  C   UNL     1      -0.121   5.904   4.924  1.00  0.00     0.131 A 
HETATM   18  F   UNL     1      -0.960   6.676   5.624  1.00  0.00    -0.205 F 
HETATM   19  C   UNL     1       1.149   6.350   4.598  1.00  0.00     0.132 A 
HETATM   20  N   UNL     1       2.043   5.630   3.875  1.00  0.00    -0.349 N 
ATOM     21  HN  UNL     1       2.988   5.969   3.695  1.00  0.00     0.167 HD
ENDBRANCH   4  14
TORSDOF 3
