REMARK  4 active torsions:
REMARK  status: ('A' for Active; 'I' for Inactive)
REMARK    1  A    between atoms: O_2  and  C_3 
REMARK    2  A    between atoms: C_3  and  C_4 
REMARK       I    between atoms: C_4  and  N_6 
REMARK    3  A    between atoms: N_6  and  C_7 
REMARK    4  A    between atoms: C_10  and  N_14 
ROOT
HETATM    1  C   UNL     1       6.734   0.568   2.439  1.00  0.00     0.050 A 
HETATM    2  C   UNL     1       7.430   1.739   2.685  1.00  0.00     0.035 A 
HETATM    3  C   UNL     1       8.825   1.720   2.633  1.00  0.00     0.051 A 
HETATM    4  C   UNL     1       9.526   0.542   2.388  1.00  0.00     0.103 A 
HETATM    5  N   UNL     1       8.842  -0.619   2.264  1.00  0.00    -0.350 N 
ATOM      6  HN  UNL     1       9.339  -1.505   2.169  1.00  0.00     0.166 HD
HETATM    7  C   UNL     1       7.486  -0.587   2.268  1.00  0.00     0.119 A 
ENDROOT
BRANCH   1   8
HETATM    8  N   UNL     1       5.328   0.603   2.354  1.00  0.00    -0.324 N 
HETATM    9  C   UNL     1       4.600  -0.223   1.512  1.00  0.00     0.245 C 
HETATM   10  O   UNL     1       5.075  -1.077   0.766  1.00  0.00    -0.271 OA
HETATM   11  H   UNL     1       4.840   1.442   2.657  1.00  0.00     0.169 HD
BRANCH   9  12
HETATM   12  C   UNL     1       3.092   0.008   1.588  1.00  0.00     0.270 C 
BRANCH  12  13
HETATM   13  O   UNL     1       2.751   1.366   1.848  1.00  0.00    -0.387 OA
HETATM   14  C   UNL     1       1.336   1.539   1.812  1.00  0.00     0.202 C 
ENDBRANCH  12  13
ENDBRANCH   9  12
ENDBRANCH   1   8
BRANCH   4  15
HETATM   15  N   UNL     1      10.904   0.506   2.289  1.00  0.00    -0.367 N 
HETATM   16  C   UNL     1      11.524  -0.773   1.923  1.00  0.00     0.124 C 
HETATM   17  C   UNL     1      12.840  -0.395   1.244  1.00  0.00     0.021 C 
HETATM   18  C   UNL     1      12.579   0.998   0.697  1.00  0.00     0.021 C 
HETATM   19  C   UNL     1      11.659   1.627   1.737  1.00  0.00     0.124 C 
ENDBRANCH   4  15
TORSDOF 4
