REMARK  3 active torsions:
REMARK  status: ('A' for Active; 'I' for Inactive)
REMARK       I    between atoms: C_2  and  N_4 
REMARK    1  A    between atoms: C_7  and  N_10 
REMARK       I    between atoms: N_10  and  C_11 
REMARK       I    between atoms: C_11  and  N_13 
REMARK    2  A    between atoms: N_13  and  C_14 
REMARK    3  A    between atoms: C_17  and  N_21 
ROOT
HETATM    1  N   UNL     1       5.106   2.570  -3.635  1.00  0.00    -0.338 N 
HETATM    2  C   UNL     1       5.623   3.835  -3.817  1.00  0.00     0.321 C 
HETATM    3  O   UNL     1       4.887   4.811  -3.874  1.00  0.00    -0.247 OA
HETATM    4  N   UNL     1       7.000   3.849  -3.896  1.00  0.00    -0.308 N 
HETATM    5  H   UNL     1       5.679   1.779  -3.882  1.00  0.00     0.164 HD
HETATM    6  H   UNL     1       7.469   2.982  -4.099  1.00  0.00     0.170 HD
ENDROOT
BRANCH   4   7
HETATM    7  C   UNL     1       7.771   5.038  -3.948  1.00  0.00     0.051 A 
HETATM    8  C   UNL     1       7.262   6.263  -3.554  1.00  0.00     0.035 A 
HETATM    9  C   UNL     1       8.028   7.407  -3.714  1.00  0.00     0.051 A 
HETATM   10  C   UNL     1       9.306   7.339  -4.259  1.00  0.00     0.103 A 
HETATM   11  N   UNL     1       9.865   6.145  -4.556  1.00  0.00    -0.350 N 
HETATM   12  C   UNL     1       9.090   5.032  -4.396  1.00  0.00     0.119 A 
ATOM     13  HN  UNL     1      10.828   6.078  -4.887  1.00  0.00     0.166 HD
BRANCH  10  14
HETATM   14  N   UNL     1       9.986   8.533  -4.443  1.00  0.00    -0.367 N 
HETATM   15  C   UNL     1      11.439   8.544  -4.526  1.00  0.00     0.124 C 
HETATM   16  C   UNL     1      11.903   9.906  -3.982  1.00  0.00     0.020 C 
HETATM   17  C   UNL     1      11.205  11.083  -4.679  1.00  0.00     0.003 C 
HETATM   18  C   UNL     1       9.687  10.906  -4.717  1.00  0.00     0.020 C 
HETATM   19  C   UNL     1       9.323   9.536  -5.281  1.00  0.00     0.124 C 
ENDBRANCH  10  14
ENDBRANCH   4   7
BRANCH   1  20
HETATM   20  C   UNL     1       3.657   2.402  -3.515  1.00  0.00     0.089 C 
HETATM   21  C   UNL     1       3.293   1.134  -2.743  1.00  0.00     0.045 C 
HETATM   22  C   UNL     1       3.505  -0.125  -3.575  1.00  0.00     0.127 C 
HETATM   23  N   UNL     1       2.814  -0.018  -4.856  1.00  0.00    -0.352 N 
HETATM   24  C   UNL     1       2.083  -1.105  -5.314  1.00  0.00     0.215 C 
HETATM   25  C   UNL     1       3.156   1.153  -5.664  1.00  0.00     0.127 C 
HETATM   26  C   UNL     1       1.264  -0.906  -6.563  1.00  0.00     0.117 C 
HETATM   27  O   UNL     1       2.045  -2.180  -4.716  1.00  0.00    -0.274 OA
HETATM   28  C   UNL     1       2.954   2.441  -4.878  1.00  0.00     0.045 C 
ENDBRANCH   1  20
TORSDOF 3
