REMARK  5 active torsions:
REMARK  status: ('A' for Active; 'I' for Inactive)
REMARK    1  A    between atoms: C_2  and  C_3 
REMARK    2  A    between atoms: C_2  and  N_10 
REMARK    3  A    between atoms: C_3  and  N_4 
REMARK    4  A    between atoms: N_10  and  C_11 
REMARK    5  A    between atoms: C_11  and  C_12 
ROOT
HETATM    1  C   UNL     1       2.919  -1.396  -0.567  1.00  0.00     0.044 C 
HETATM    2  C   UNL     1       2.552  -0.048   0.070  1.00  0.00     0.236 C 
ENDROOT
BRANCH   2   3
HETATM    3  C   UNL     1       1.017   0.113   0.010  1.00  0.00     0.183 C 
BRANCH   3   4
HETATM    4  N   UNL     1       0.542   1.411   0.446  1.00  0.00    -0.302 N 
HETATM    5  C   UNL     1       0.122   1.744   1.704  1.00  0.00     0.111 A 
HETATM    6  C   UNL     1      -0.311   3.045   1.629  1.00  0.00     0.037 A 
HETATM    7  C   UNL     1      -0.137   3.402   0.280  1.00  0.00     0.108 A 
HETATM    8  N   UNL     1       0.366   2.403  -0.452  1.00  0.00    -0.310 N 
ATOM      9  HN  UNL     1       0.569   2.393  -1.452  1.00  0.00     0.186 HD
ENDBRANCH   3   4
ENDBRANCH   2   3
BRANCH   2  10
HETATM   10  N   UNL     1       3.048   0.033   1.459  1.00  0.00     0.089 N 
HETATM   11  H   UNL     1       2.688  -0.744   2.016  1.00  0.00     0.316 HD
BRANCH  10  12
HETATM   12  C   UNL     1       4.507   0.069   1.552  1.00  0.00     0.274 C 
BRANCH  12  13
HETATM   13  C   UNL     1       4.957   0.224   3.007  1.00  0.00     0.014 C 
HETATM   14  C   UNL     1       4.561   1.557   3.657  1.00  0.00     0.006 C 
HETATM   15  C   UNL     1       5.741   1.968   4.541  1.00  0.00     0.000 C 
HETATM   16  C   UNL     1       6.724   0.807   4.499  1.00  0.00     0.000 C 
HETATM   17  C   UNL     1       6.479   0.174   3.142  1.00  0.00     0.006 C 
ENDBRANCH  12  13
ENDBRANCH  10  12
ENDBRANCH   2  10
TORSDOF 5
