REMARK  4 active torsions:
REMARK  status: ('A' for Active; 'I' for Inactive)
REMARK       I    between atoms: C_2  and  N_3 
REMARK       I    between atoms: C_2  and  N_12 
REMARK    1  A    between atoms: N_3  and  C_4 
REMARK    2  A    between atoms: C_4  and  C_5 
REMARK    3  A    between atoms: C_5  and  C_6 
REMARK    4  A    between atoms: N_12  and  C_13 
ROOT
HETATM    1  O   UNL     1       1.498   1.088   1.054  1.00  0.00    -0.247 OA
HETATM    2  C   UNL     1       2.602   0.702   0.672  1.00  0.00     0.323 C 
HETATM    3  N   UNL     1       3.135  -0.501   1.032  1.00  0.00    -0.343 N 
HETATM    4  N   UNL     1       3.350   1.528  -0.098  1.00  0.00    -0.274 N 
HETATM    5  H   UNL     1       3.928  -0.819   0.479  1.00  0.00     0.164 HD
HETATM    6  H   UNL     1       2.963   2.442  -0.275  1.00  0.00     0.174 HD
ENDROOT
BRANCH   3   7
HETATM    7  C   UNL     1       2.349  -1.483   1.756  1.00  0.00     0.127 C 
BRANCH   7   8
HETATM    8  C   UNL     1       3.210  -2.377   2.646  1.00  0.00     0.051 C 
BRANCH   8   9
HETATM    9  C   UNL     1       2.339  -3.267   3.551  1.00  0.00     0.123 C 
HETATM   10  C   UNL     1       3.150  -4.165   4.485  1.00  0.00     0.032 C 
HETATM   11  C   UNL     1       3.848  -5.280   3.719  1.00  0.00     0.004 C 
HETATM   12  C   UNL     1       2.846  -6.043   2.863  1.00  0.00     0.026 C 
HETATM   13  C   UNL     1       1.950  -5.116   2.049  1.00  0.00     0.168 C 
HETATM   14  O   UNL     1       1.394  -4.057   2.823  1.00  0.00    -0.386 OA
ENDBRANCH   8   9
ENDBRANCH   7   8
ENDBRANCH   3   7
BRANCH   4  15
HETATM   15  C   UNL     1       4.532   1.226  -0.688  1.00  0.00     0.231 A 
HETATM   16  N   UNL     1       5.200   0.091  -0.711  1.00  0.00    -0.330 N 
HETATM   17  C   UNL     1       6.296   0.379  -1.484  1.00  0.00     0.116 A 
ATOM     18  HN  UNL     1       4.959  -0.792  -0.261  1.00  0.00     0.168 HD
HETATM   19  C   UNL     1       6.256   1.690  -1.885  1.00  0.00     0.162 A 
HETATM   20  O   UNL     1       5.115   2.242  -1.389  1.00  0.00    -0.290 OA
ENDBRANCH   4  15
TORSDOF 4
