REMARK  2 active torsions:
REMARK  status: ('A' for Active; 'I' for Inactive)
REMARK    1  A    between atoms: C_6  and  N_7 
REMARK       I    between atoms: N_7  and  C_8 
REMARK       I    between atoms: C_8  and  N_10 
REMARK    2  A    between atoms: N_10  and  C_11 
ROOT
HETATM    1  N   UNL     1       5.204  -2.430   0.023  1.00  0.00    -0.295 N 
HETATM    2  C   UNL     1       4.393  -3.529   0.064  1.00  0.00     0.322 C 
HETATM    3  O   UNL     1       3.216  -3.404   0.386  1.00  0.00    -0.247 OA
HETATM    4  N   UNL     1       4.965  -4.721  -0.267  1.00  0.00    -0.334 N 
HETATM    5  H   UNL     1       4.723  -1.573   0.247  1.00  0.00     0.172 HD
HETATM    6  H   UNL     1       5.963  -4.646  -0.461  1.00  0.00     0.165 HD
ENDROOT
BRANCH   1   7
HETATM    7  C   UNL     1       6.580  -2.383  -0.227  1.00  0.00     0.109 A 
HETATM    8  C   UNL     1       7.227  -1.159  -0.179  1.00  0.00     0.049 A 
HETATM    9  C   UNL     1       8.603  -1.127  -0.394  1.00  0.00     0.006 A 
HETATM   10  C   UNL     1       9.289  -2.311  -0.654  1.00  0.00     0.025 A 
HETATM   11  C   UNL     1       8.574  -3.495  -0.688  1.00  0.00     0.007 A 
HETATM   12  C   UNL     1       9.224  -4.813  -0.978  1.00  0.00     0.068 C 
HETATM   13  N   UNL     1       7.237  -3.535  -0.486  1.00  0.00    -0.346 N 
ATOM     14  HN  UNL     1       6.733  -4.421  -0.529  1.00  0.00     0.167 HD
ENDBRANCH   1   7
BRANCH   4  15
HETATM   15  C   UNL     1       4.332  -6.045  -0.246  1.00  0.00     0.031 C 
HETATM   16  C   UNL     1       4.467  -6.654   1.142  1.00  0.00     0.038 C 
HETATM   17  C   UNL     1       4.842  -6.933  -1.423  1.00  0.00     0.031 C 
HETATM   18  C   UNL     1       3.396  -7.433  -1.595  1.00  0.00     0.005 C 
HETATM   19  C   UNL     1       2.931  -6.133  -0.908  1.00  0.00     0.031 C 
ENDBRANCH   4  15
TORSDOF 2
