REMARK  7 active torsions:
REMARK  status: ('A' for Active; 'I' for Inactive)
REMARK    1  A    between atoms: C_2  and  C_4 
REMARK    2  A    between atoms: C_4  and  C_5 
REMARK    3  A    between atoms: C_5  and  N_6 
REMARK       I    between atoms: N_6  and  C_7 
REMARK    4  A    between atoms: C_7  and  C_9 
REMARK    5  A    between atoms: C_9  and  C_10 
REMARK    6  A    between atoms: C_13  and  N_14 
REMARK       I    between atoms: N_14  and  C_15 
REMARK    7  A    between atoms: C_15  and  C_17 
ROOT
HETATM    1  C   UNL     1       8.395   1.583  -4.377  1.00  0.00     0.026 A 
HETATM    2  C   UNL     1       9.266   2.562  -3.933  1.00  0.00     0.078 A 
HETATM    3  S   UNL     1      10.883   2.101  -4.270  1.00  0.00    -0.064 SA
HETATM    4  C   UNL     1      10.301   0.687  -5.028  1.00  0.00     0.151 A 
HETATM    5  N   UNL     1       9.006   0.504  -5.001  1.00  0.00    -0.339 N 
ATOM      6  HN  UNL     1       8.519  -0.308  -5.381  1.00  0.00     0.168 HD
ENDROOT
BRANCH   1   7
HETATM    7  C   UNL     1       6.910   1.584  -4.250  1.00  0.00     0.160 C 
BRANCH   7   8
HETATM    8  C   UNL     1       6.471   1.090  -2.885  1.00  0.00     0.223 C 
HETATM    9  N   UNL     1       6.812  -0.215  -2.606  1.00  0.00    -0.361 N 
HETATM   10  H   UNL     1       7.346  -0.734  -3.300  1.00  0.00     0.162 HD
HETATM   11  O   UNL     1       5.840   1.805  -2.108  1.00  0.00    -0.273 OA
BRANCH   9  12
HETATM   12  C   UNL     1       6.470  -0.859  -1.356  1.00  0.00     0.123 C 
BRANCH  12  13
HETATM   13  C   UNL     1       5.130  -1.597  -1.420  1.00  0.00     0.023 C 
BRANCH  13  14
HETATM   14  C   UNL     1       5.077  -2.749  -2.443  1.00  0.00    -0.021 C 
HETATM   15  C   UNL     1       6.108  -3.840  -2.146  1.00  0.00     0.009 C 
HETATM   16  C   UNL     1       3.675  -3.363  -2.468  1.00  0.00     0.009 C 
ENDBRANCH  13  14
ENDBRANCH  12  13
ENDBRANCH   9  12
ENDBRANCH   7   8
ENDBRANCH   1   7
BRANCH   4  17
HETATM   17  N   UNL     1      11.280  -0.089  -5.579  1.00  0.00    -0.307 N 
HETATM   18  C   UNL     1      11.001  -1.170  -6.374  1.00  0.00     0.227 C 
HETATM   19  O   UNL     1       9.904  -1.582  -6.722  1.00  0.00    -0.273 OA
HETATM   20  H   UNL     1      12.230   0.216  -5.442  1.00  0.00     0.171 HD
BRANCH  18  21
HETATM   21  C   UNL     1      12.243  -1.845  -6.868  1.00  0.00     0.078 A 
HETATM   22  C   UNL     1      12.571  -1.824  -8.344  1.00  0.00     0.015 A 
HETATM   23  C   UNL     1      12.157  -3.110  -7.691  1.00  0.00     0.015 A 
ENDBRANCH  18  21
ENDBRANCH   4  17
TORSDOF 7
