REMARK  8 active torsions:
REMARK  status: ('A' for Active; 'I' for Inactive)
REMARK    1  A    between atoms: O_1  and  C_2 
REMARK    2  A    between atoms: C_2  and  C_3 
REMARK    3  A    between atoms: C_3  and  C_4 
REMARK    4  A    between atoms: C_4  and  C_5 
REMARK    5  A    between atoms: N_14  and  C_15 
REMARK    6  A    between atoms: C_15  and  C_16 
REMARK    7  A    between atoms: C_16  and  O_17 
REMARK    8  A    between atoms: C_16  and  C_18 
ROOT
HETATM    1  C   UNL     1       4.884   2.886  -0.223  1.00  0.00     0.084 A 
HETATM    2  N   UNL     1       4.150   3.946   0.051  1.00  0.00    -0.344 N 
ATOM      3  HN  UNL     1       3.194   3.955   0.407  1.00  0.00     0.167 HD
HETATM    4  C   UNL     1       4.929   5.031  -0.238  1.00  0.00     0.060 A 
HETATM    5  C   UNL     1       4.617   6.395  -0.136  1.00  0.00     0.032 A 
HETATM    6  C   UNL     1       5.588   7.336  -0.493  1.00  0.00     0.002 A 
HETATM    7  C   UNL     1       6.844   6.927  -0.939  1.00  0.00     0.002 A 
HETATM    8  C   UNL     1       7.174   5.568  -1.041  1.00  0.00     0.032 A 
HETATM    9  C   UNL     1       6.188   4.639  -0.685  1.00  0.00     0.062 A 
HETATM   10  N   UNL     1       6.141   3.260  -0.657  1.00  0.00    -0.332 N 
ENDROOT
BRANCH  10  11
HETATM   11  C   UNL     1       7.258   2.362  -0.915  1.00  0.00     0.167 C 
BRANCH  11  12
HETATM   12  C   UNL     1       7.329   1.846  -2.366  1.00  0.00     0.172 C 
BRANCH  12  13
HETATM   13  O   UNL     1       7.549   2.937  -3.270  1.00  0.00    -0.389 OA
HETATM   14  H   UNL     1       8.351   3.404  -2.984  1.00  0.00     0.210 HD
ENDBRANCH  12  13
BRANCH  12  15
HETATM   15  C   UNL     1       8.385   0.794  -2.672  1.00  0.00     0.011 A 
HETATM   16  C   UNL     1       8.488   0.307  -3.992  1.00  0.00     0.013 A 
HETATM   17  C   UNL     1       9.427  -0.671  -4.336  1.00  0.00     0.001 A 
HETATM   18  C   UNL     1      10.283  -1.188  -3.369  1.00  0.00     0.003 A 
HETATM   19  C   UNL     1      10.200  -0.722  -2.061  1.00  0.00     0.043 A 
HETATM   20  C   UNL     1       9.263   0.258  -1.726  1.00  0.00     0.125 A 
HETATM   21  F   UNL     1       9.239   0.675  -0.453  1.00  0.00    -0.205 F 
ENDBRANCH  12  15
ENDBRANCH  11  12
ENDBRANCH  10  11
BRANCH   1  22
HETATM   22  C   UNL     1       4.422   1.469  -0.086  1.00  0.00     0.079 C 
BRANCH  22  23
HETATM   23  C   UNL     1       2.913   1.326  -0.319  1.00  0.00     0.033 C 
BRANCH  23  24
HETATM   24  C   UNL     1       2.482   1.739  -1.721  1.00  0.00     0.164 C 
BRANCH  24  25
HETATM   25  O   UNL     1       3.152   0.937  -2.687  1.00  0.00    -0.401 OA
HETATM   26  H   UNL     1       2.906   1.297  -3.557  1.00  0.00     0.209 HD
ENDBRANCH  24  25
ENDBRANCH  23  24
ENDBRANCH  22  23
ENDBRANCH   1  22
TORSDOF 8
