REMARK  6 active torsions:
REMARK  status: ('A' for Active; 'I' for Inactive)
REMARK    1  A    between atoms: C_8  and  N_9 
REMARK       I    between atoms: N_9  and  C_10 
REMARK       I    between atoms: C_10  and  N_12 
REMARK    2  A    between atoms: N_12  and  C_13 
REMARK    3  A    between atoms: C_13  and  C_14 
REMARK    4  A    between atoms: C_14  and  O_15 
REMARK    5  A    between atoms: C_14  and  C_16 
REMARK    6  A    between atoms: C_16  and  N_17 
ROOT
HETATM    1  N   UNL     1      -0.540  -3.100  -2.851  1.00  0.00    -0.294 N 
HETATM    2  C   UNL     1      -0.183  -3.809  -1.720  1.00  0.00     0.321 C 
HETATM    3  O   UNL     1       0.717  -4.628  -1.612  1.00  0.00    -0.247 OA
HETATM    4  N   UNL     1      -0.937  -3.478  -0.619  1.00  0.00    -0.340 N 
HETATM    5  H   UNL     1      -1.288  -2.431  -2.787  1.00  0.00     0.172 HD
HETATM    6  H   UNL     1      -1.848  -3.076  -0.777  1.00  0.00     0.164 HD
ENDROOT
BRANCH   4   7
HETATM    7  C   UNL     1      -0.656  -4.127   0.662  1.00  0.00     0.157 C 
BRANCH   7   8
HETATM    8  C   UNL     1      -1.429  -5.456   0.892  1.00  0.00     0.164 C 
BRANCH   8   9
HETATM    9  O   UNL     1      -0.983  -6.051   2.115  1.00  0.00    -0.392 OA
HETATM   10  H   UNL     1      -1.393  -5.573   2.855  1.00  0.00     0.210 HD
ENDBRANCH   8   9
BRANCH   8  11
HETATM   11  C   UNL     1      -2.928  -5.092   0.945  1.00  0.00     0.305 C 
BRANCH  11  12
HETATM   12  N   UNL     1      -3.971  -6.081   1.270  1.00  0.00     0.090 N 
HETATM   13  C   UNL     1      -4.062  -7.203   0.321  1.00  0.00     0.272 C 
HETATM   14  C   UNL     1      -4.511  -6.800  -1.088  1.00  0.00     0.030 C 
HETATM   15  C   UNL     1      -5.779  -5.944  -1.083  1.00  0.00     0.003 C 
HETATM   16  C   UNL     1      -5.739  -4.842  -0.029  1.00  0.00     0.030 C 
HETATM   17  C   UNL     1      -5.280  -5.392   1.329  1.00  0.00     0.272 C 
ENDBRANCH  11  12
ENDBRANCH   8  11
ENDBRANCH   7   8
ENDBRANCH   4   7
BRANCH   1  18
HETATM   18  C   UNL     1       0.166  -3.193  -4.067  1.00  0.00     0.114 A 
HETATM   19  C   UNL     1      -0.208  -2.442  -5.191  1.00  0.00    -0.018 A 
HETATM   20  C   UNL     1      -1.380  -1.509  -5.234  1.00  0.00     0.052 C 
HETATM   21  C   UNL     1       0.593  -2.558  -6.343  1.00  0.00     0.012 A 
HETATM   22  C   UNL     1       1.698  -3.398  -6.357  1.00  0.00     0.018 A 
HETATM   23  C   UNL     1       1.972  -4.110  -5.215  1.00  0.00     0.089 A 
HETATM   24  N   UNL     1       1.226  -4.015  -4.103  1.00  0.00    -0.352 N 
ATOM     25  HN  UNL     1       1.466  -4.570  -3.282  1.00  0.00     0.166 HD
ENDBRANCH   1  18
TORSDOF 6
