REMARK  5 active torsions:
REMARK  status: ('A' for Active; 'I' for Inactive)
REMARK    1  A    between atoms: C_2  and  C_3 
REMARK    2  A    between atoms: C_2  and  N_10 
REMARK    3  A    between atoms: C_3  and  N_4 
REMARK       I    between atoms: N_10  and  C_11 
REMARK    4  A    between atoms: C_11  and  C_13 
REMARK    5  A    between atoms: C_13  and  N_14 
ROOT
HETATM    1  N   UNL     1       3.099  -0.454  -1.342  1.00  0.00    -0.354 N 
HETATM    2  C   UNL     1       4.401  -0.138  -1.691  1.00  0.00     0.235 C 
HETATM    3  O   UNL     1       5.082   0.655  -1.046  1.00  0.00    -0.272 OA
HETATM    4  H   UNL     1       2.637  -1.212  -1.830  1.00  0.00     0.163 HD
ENDROOT
BRANCH   1   5
HETATM    5  C   UNL     1       2.495   0.040  -0.098  1.00  0.00     0.098 C 
HETATM    6  C   UNL     1       0.972   0.005  -0.229  1.00  0.00     0.034 C 
BRANCH   5   7
HETATM    7  C   UNL     1       2.991  -0.763   1.124  1.00  0.00     0.153 C 
BRANCH   7   8
HETATM    8  N   UNL     1       2.510  -0.262   2.397  1.00  0.00    -0.350 N 
HETATM    9  C   UNL     1       1.710  -0.928   3.284  1.00  0.00     0.108 A 
HETATM   10  C   UNL     1       1.536  -0.051   4.331  1.00  0.00     0.106 A 
HETATM   11  N   UNL     1       2.213   1.118   4.102  1.00  0.00    -0.361 N 
HETATM   12  C   UNL     1       2.806   0.955   2.941  1.00  0.00     0.182 A 
ATOM     13  HN  UNL     1       2.249   1.940   4.705  1.00  0.00     0.166 HD
ENDBRANCH   7   8
ENDBRANCH   5   7
ENDBRANCH   1   5
BRANCH   2  14
HETATM   14  C   UNL     1       4.882  -0.809  -2.988  1.00  0.00     0.229 C 
BRANCH  14  15
HETATM   15  N   UNL     1       6.331  -0.914  -3.038  1.00  0.00    -0.334 N 
HETATM   16  C   UNL     1       7.136   0.119  -3.649  1.00  0.00     0.138 C 
HETATM   17  C   UNL     1       8.602  -0.111  -3.321  1.00  0.00     0.104 C 
HETATM   18  S   UNL     1       8.709  -1.776  -2.627  1.00  0.00    -0.068 SA
HETATM   19  C   UNL     1       6.981  -1.965  -2.455  1.00  0.00     0.282 C 
HETATM   20  O   UNL     1       6.458  -2.921  -1.903  1.00  0.00    -0.260 OA
ENDBRANCH  14  15
ENDBRANCH   2  14
TORSDOF 5
