REMARK  5 active torsions:
REMARK  status: ('A' for Active; 'I' for Inactive)
REMARK    1  A    between atoms: C_2  and  C_5 
REMARK    2  A    between atoms: C_10  and  N_11 
REMARK       I    between atoms: N_11  and  C_12 
REMARK       I    between atoms: C_12  and  N_14 
REMARK    3  A    between atoms: N_14  and  C_15 
REMARK    4  A    between atoms: C_15  and  C_16 
REMARK    5  A    between atoms: C_16  and  C_17 
ROOT
HETATM    1  N   UNL     1       2.795  -4.801  -0.825  1.00  0.00    -0.304 N 
HETATM    2  C   UNL     1       2.409  -5.183   0.432  1.00  0.00     0.320 C 
HETATM    3  O   UNL     1       2.385  -4.448   1.415  1.00  0.00    -0.247 OA
HETATM    4  N   UNL     1       2.030  -6.506   0.530  1.00  0.00    -0.343 N 
HETATM    5  H   UNL     1       2.903  -5.512  -1.539  1.00  0.00     0.171 HD
HETATM    6  H   UNL     1       1.595  -6.902  -0.292  1.00  0.00     0.164 HD
ENDROOT
BRANCH   1   7
HETATM    7  C   UNL     1       3.168  -3.519  -1.203  1.00  0.00     0.105 A 
HETATM    8  C   UNL     1       3.646  -3.329  -2.622  1.00  0.00     0.272 A 
HETATM    9  N   UNL     1       4.031  -2.051  -2.969  1.00  0.00    -0.331 N 
HETATM   10  O   UNL     1       3.686  -4.269  -3.411  1.00  0.00    -0.266 OA
HETATM   11  C   UNL     1       3.955  -0.966  -2.128  1.00  0.00     0.107 A 
HETATM   12  H   UNL     1       4.360  -1.932  -3.920  1.00  0.00     0.168 HD
HETATM   13  C   UNL     1       3.505  -1.103  -0.870  1.00  0.00     0.065 A 
HETATM   14  C   UNL     1       3.134  -2.431  -0.415  1.00  0.00     0.052 A 
BRANCH  13  15
HETATM   15  C   UNL     1       3.340   0.052   0.080  1.00  0.00     0.418 C 
HETATM   16  F   UNL     1       2.826  -0.306   1.285  1.00  0.00    -0.166 F 
HETATM   17  F   UNL     1       2.504   0.994  -0.430  1.00  0.00    -0.166 F 
HETATM   18  F   UNL     1       4.522   0.671   0.328  1.00  0.00    -0.166 F 
ENDBRANCH  13  15
ENDBRANCH   1   7
BRANCH   4  19
HETATM   19  C   UNL     1       1.494  -6.884   1.831  1.00  0.00     0.128 C 
BRANCH  19  20
HETATM   20  C   UNL     1       1.096  -8.349   1.982  1.00  0.00     0.053 C 
BRANCH  20  21
HETATM   21  C   UNL     1       0.651  -8.661   3.405  1.00  0.00    -0.082 A 
HETATM   22  C   UNL     1       1.302  -9.564   4.152  1.00  0.00    -0.024 A 
HETATM   23  C   UNL     1       0.937  -9.950   5.545  1.00  0.00     0.027 A 
HETATM   24  C   UNL     1      -0.227  -9.209   6.193  1.00  0.00     0.004 A 
HETATM   25  C   UNL     1      -0.987  -8.178   5.366  1.00  0.00     0.005 A 
HETATM   26  C   UNL     1      -0.550  -7.918   3.924  1.00  0.00     0.034 A 
ENDBRANCH  20  21
ENDBRANCH  19  20
ENDBRANCH   4  19
TORSDOF 5
