REMARK  2 active torsions:
REMARK  status: ('A' for Active; 'I' for Inactive)
REMARK    1  A    between atoms: C_2  and  C_5 
REMARK    2  A    between atoms: C_8  and  C_11 
ROOT
HETATM    1  C   UNL     1       3.060   1.056  -1.007  1.00  0.00     0.024 A 
HETATM    2  C   UNL     1       2.976   2.432  -0.882  1.00  0.00     0.077 A 
HETATM    3  S   UNL     1       3.580   3.200  -2.284  1.00  0.00    -0.084 SA
HETATM    4  C   UNL     1       3.835   1.656  -3.013  1.00  0.00     0.082 A 
HETATM    5  N   UNL     1       3.588   0.635  -2.213  1.00  0.00    -0.354 N 
ATOM      6  HN  UNL     1       3.764  -0.340  -2.454  1.00  0.00     0.166 HD
ENDROOT
BRANCH   4   7
HETATM    7  C   UNL     1       4.331   1.567  -4.445  1.00  0.00     0.206 C 
HETATM    8  C   UNL     1       3.396   2.246  -5.478  1.00  0.00     0.308 C 
HETATM    9  N   UNL     1       2.119   1.538  -5.678  1.00  0.00     0.088 N 
HETATM   10  C   UNL     1       2.406   0.136  -6.024  1.00  0.00     0.295 C 
HETATM   11  H   UNL     1       1.596   1.974  -6.434  1.00  0.00     0.316 HD
HETATM   12  C   UNL     1       3.358  -0.546  -5.029  1.00  0.00     0.198 C 
HETATM   13  O   UNL     1       4.573   0.192  -4.829  1.00  0.00    -0.376 OA
ENDBRANCH   4   7
BRANCH   1  14
HETATM   14  C   UNL     1       2.615   0.022   0.017  1.00  0.00    -0.008 C 
HETATM   15  C   UNL     1       1.091   0.119   0.226  1.00  0.00     0.021 C 
HETATM   16  C   UNL     1       3.330   0.263   1.361  1.00  0.00     0.021 C 
HETATM   17  C   UNL     1       2.942  -1.414  -0.445  1.00  0.00     0.021 C 
ENDBRANCH   1  14
TORSDOF 2
