REMARK  6 active torsions:
REMARK  status: ('A' for Active; 'I' for Inactive)
REMARK    1  A    between atoms: C_5  and  N_20 
REMARK    2  A    between atoms: C_8  and  N_9 
REMARK       I    between atoms: N_9  and  C_10 
REMARK       I    between atoms: C_10  and  N_12 
REMARK    3  A    between atoms: N_12  and  CA_13 
REMARK    4  A    between atoms: CA_13  and  C_16 
REMARK    5  A    between atoms: CA_13  and  C_14 
REMARK    6  A    between atoms: C_14  and  O_15 
ROOT
HETATM    1  N   UNL     1      -1.254  -0.757  -0.317  1.00  0.00    -0.307 N 
HETATM    2  C   UNL     1      -1.823  -1.603  -1.255  1.00  0.00     0.321 C 
HETATM    3  O   UNL     1      -2.286  -1.294  -2.338  1.00  0.00    -0.247 OA
HETATM    4  N   UNL     1      -1.777  -2.911  -0.822  1.00  0.00    -0.335 N 
HETATM    5  H   UNL     1      -0.684  -1.208   0.381  1.00  0.00     0.170 HD
HETATM    6  H   UNL     1      -1.774  -3.049   0.174  1.00  0.00     0.164 HD
ENDROOT
BRANCH   1   7
HETATM    7  C   UNL     1      -1.191   0.660  -0.375  1.00  0.00     0.058 A 
HETATM    8  C   UNL     1      -0.403   1.402   0.517  1.00  0.00     0.034 A 
HETATM    9  C   UNL     1       0.408   0.766   1.609  1.00  0.00     0.070 C 
HETATM   10  N   UNL     1      -0.316   2.764   0.482  1.00  0.00    -0.344 N 
HETATM   11  C   UNL     1      -1.024   3.464  -0.428  1.00  0.00     0.103 A 
ATOM     12  HN  UNL     1       0.285   3.253   1.145  1.00  0.00     0.167 HD
HETATM   13  C   UNL     1      -1.835   2.787  -1.329  1.00  0.00     0.051 A 
HETATM   14  C   UNL     1      -1.921   1.393  -1.301  1.00  0.00     0.035 A 
BRANCH  11  15
HETATM   15  N   UNL     1      -0.943   4.830  -0.413  1.00  0.00    -0.367 N 
HETATM   16  C   UNL     1      -1.711   5.729  -1.254  1.00  0.00     0.124 C 
HETATM   17  C   UNL     1      -1.474   7.119  -0.662  1.00  0.00     0.021 C 
HETATM   18  C   UNL     1      -0.804   6.875   0.684  1.00  0.00     0.021 C 
HETATM   19  C   UNL     1      -0.081   5.544   0.510  1.00  0.00     0.124 C 
ENDBRANCH  11  15
ENDBRANCH   1   7
BRANCH   4  20
HETATM   20  CA  UNL     1      -2.241  -4.042  -1.649  1.00  0.00     0.117 C 
BRANCH  20  21
HETATM   21  C   UNL     1      -1.459  -5.351  -1.279  1.00  0.00    -0.029 C 
HETATM   22  C   UNL     1      -1.880  -6.536  -2.176  1.00  0.00     0.016 C 
HETATM   23  C   UNL     1       0.048  -5.108  -1.522  1.00  0.00     0.016 C 
HETATM   24  C   UNL     1      -1.654  -5.780   0.188  1.00  0.00     0.016 C 
ENDBRANCH  20  21
BRANCH  20  25
HETATM   25  C   UNL     1      -3.788  -4.153  -1.598  1.00  0.00     0.190 C 
BRANCH  25  26
HETATM   26  O   UNL     1      -4.264  -4.361  -0.271  1.00  0.00    -0.399 OA
HETATM   27  H   UNL     1      -4.119  -3.525   0.204  1.00  0.00     0.209 HD
ENDBRANCH  25  26
ENDBRANCH  20  25
ENDBRANCH   4  20
TORSDOF 6
