REMARK  4 active torsions:
REMARK  status: ('A' for Active; 'I' for Inactive)
REMARK    1  A    between atoms: C_2  and  C_3 
REMARK    2  A    between atoms: C_2  and  C_14 
REMARK       I    between atoms: C_3  and  N_5 
REMARK    3  A    between atoms: N_5  and  C_6 
REMARK    4  A    between atoms: C_6  and  C_7 
ROOT
HETATM    1  C   UNL     1       3.054   1.208   1.124  1.00  0.00     0.226 C 
HETATM    2  O   UNL     1       3.439   0.969   2.269  1.00  0.00    -0.273 OA
HETATM    3  N   UNL     1       3.063   2.477   0.586  1.00  0.00    -0.360 N 
HETATM    4  H   UNL     1       2.554   2.631  -0.275  1.00  0.00     0.162 HD
ENDROOT
BRANCH   1   5
HETATM    5  C   UNL     1       2.659   0.073   0.179  1.00  0.00     0.110 C 
HETATM    6  C   UNL     1       3.894  -0.399  -0.583  1.00  0.00     0.025 C 
BRANCH   5   7
HETATM    7  C   UNL     1       1.458   0.392  -0.682  1.00  0.00     0.002 A 
HETATM    8  C   UNL     1       0.093   0.237  -0.286  1.00  0.00     0.031 A 
HETATM    9  C   UNL     1      -0.460  -0.220   1.015  1.00  0.00     0.070 C 
HETATM   10  N   UNL     1      -0.750   0.554  -1.271  1.00  0.00    -0.303 N 
HETATM   11  N   UNL     1       0.041   0.902  -2.293  1.00  0.00    -0.300 N 
ATOM     12  HN  UNL     1      -1.770   0.535  -1.250  1.00  0.00     0.186 HD
HETATM   13  C   UNL     1      -0.569   1.232  -3.560  1.00  0.00     0.177 C 
HETATM   14  C   UNL     1       1.378   0.892  -1.980  1.00  0.00     0.033 A 
HETATM   15  C   UNL     1       2.427   1.332  -2.939  1.00  0.00     0.070 C 
ENDBRANCH   5   7
ENDBRANCH   1   5
BRANCH   3  16
HETATM   16  C   UNL     1       3.412   3.637   1.380  1.00  0.00     0.127 C 
BRANCH  16  17
HETATM   17  C   UNL     1       4.482   4.511   0.700  1.00  0.00     0.004 C 
HETATM   18  C   UNL     1       5.809   3.769   0.453  1.00  0.00     0.006 C 
HETATM   19  C   UNL     1       6.614   3.521   1.727  1.00  0.00     0.001 C 
HETATM   20  C   UNL     1       6.823   4.802   2.532  1.00  0.00     0.004 C 
HETATM   21  C   UNL     1       5.489   5.495   2.836  1.00  0.00    -0.018 C 
HETATM   22  C   UNL     1       5.697   6.771   3.645  1.00  0.00     0.010 C 
HETATM   23  C   UNL     1       4.736   5.786   1.527  1.00  0.00     0.010 C 
ENDBRANCH  16  17
ENDBRANCH   3  16
TORSDOF 4
