REMARK  5 active torsions:
REMARK  status: ('A' for Active; 'I' for Inactive)
REMARK    1  A    between atoms: C_2  and  C_3 
REMARK    2  A    between atoms: C_3  and  C_4 
REMARK       I    between atoms: C_4  and  N_6 
REMARK    3  A    between atoms: N_6  and  C_7 
REMARK    4  A    between atoms: C_7  and  C_8 
REMARK    5  A    between atoms: C_11  and  N_15 
ROOT
HETATM    1  C   UNL     1       7.175   4.005  -1.047  1.00  0.00    -0.025 A 
HETATM    2  C   UNL     1       6.654   5.116  -0.394  1.00  0.00     0.014 A 
HETATM    3  C   UNL     1       7.013   6.395  -0.820  1.00  0.00     0.049 A 
HETATM    4  C   UNL     1       7.877   6.567  -1.905  1.00  0.00     0.103 A 
HETATM    5  N   UNL     1       8.396   5.491  -2.530  1.00  0.00    -0.352 N 
ATOM      6  HN  UNL     1       9.043   5.605  -3.311  1.00  0.00     0.166 HD
HETATM    7  C   UNL     1       8.042   4.252  -2.101  1.00  0.00     0.098 A 
ENDROOT
BRANCH   1   8
HETATM    8  C   UNL     1       6.780   2.614  -0.663  1.00  0.00     0.162 C 
BRANCH   8   9
HETATM    9  N   UNL     1       5.597   2.194  -1.378  1.00  0.00    -0.357 N 
HETATM   10  C   UNL     1       4.982   0.998  -1.083  1.00  0.00     0.217 C 
HETATM   11  O   UNL     1       5.412   0.222  -0.236  1.00  0.00    -0.274 OA
HETATM   12  H   UNL     1       5.222   2.790  -2.105  1.00  0.00     0.162 HD
BRANCH  10  13
HETATM   13  C   UNL     1       3.756   0.719  -1.933  1.00  0.00     0.102 C 
BRANCH  13  14
HETATM   14  C   UNL     1       2.805  -0.250  -1.237  1.00  0.00     0.005 C 
HETATM   15  C   UNL     1       1.562  -0.519  -2.070  1.00  0.00     0.005 C 
ENDBRANCH  13  14
ENDBRANCH  10  13
ENDBRANCH   8   9
ENDBRANCH   1   8
BRANCH   4  16
HETATM   16  N   UNL     1       8.249   7.835  -2.310  1.00  0.00    -0.363 N 
HETATM   17  C   UNL     1       7.272   8.930  -2.373  1.00  0.00     0.150 C 
HETATM   18  C   UNL     1       7.008   9.352  -3.828  1.00  0.00     0.187 C 
HETATM   19  O   UNL     1       8.226   9.655  -4.522  1.00  0.00    -0.388 OA
HETATM   20  C   UNL     1       9.065   8.489  -4.564  1.00  0.00     0.187 C 
HETATM   21  C   UNL     1       9.439   8.013  -3.153  1.00  0.00     0.150 C 
ENDBRANCH   4  16
TORSDOF 5
