REMARK  6 active torsions:
REMARK  status: ('A' for Active; 'I' for Inactive)
REMARK    1  A    between atoms: N_8  and  C_9 
REMARK    2  A    between atoms: C_9  and  C_10 
REMARK    3  A    between atoms: C_10  and  O_11 
REMARK    4  A    between atoms: C_10  and  C_12 
REMARK    5  A    between atoms: C_12  and  N_13 
REMARK    6  A    between atoms: C_18  and  S_19 
ROOT
HETATM    1  C   UNL     1       7.166   2.296   0.004  1.00  0.00     0.154 C 
ENDROOT
BRANCH   1   2
HETATM    2  C   UNL     1       7.596   0.817  -0.029  1.00  0.00     0.163 C 
BRANCH   2   3
HETATM    3  N   UNL     1       6.497  -0.126  -0.092  1.00  0.00    -0.339 N 
HETATM    4  C   UNL     1       5.943  -0.768   0.981  1.00  0.00     0.184 A 
HETATM    5  N   UNL     1       4.921  -1.510   0.625  1.00  0.00    -0.350 N 
HETATM    6  C   UNL     1       4.824  -1.364  -0.737  1.00  0.00     0.060 A 
ATOM      7  HN  UNL     1       4.326  -2.075   1.231  1.00  0.00     0.166 HD
HETATM    8  C   UNL     1       3.898  -1.919  -1.632  1.00  0.00     0.039 A 
HETATM    9  C   UNL     1       5.823  -0.528  -1.221  1.00  0.00     0.062 A 
HETATM   10  C   UNL     1       3.993  -1.623  -3.007  1.00  0.00    -0.054 A 
HETATM   11  C   UNL     1       2.972  -2.210  -3.946  1.00  0.00     0.049 C 
HETATM   12  C   UNL     1       5.024  -0.782  -3.478  1.00  0.00    -0.054 A 
HETATM   13  C   UNL     1       5.963  -0.232  -2.583  1.00  0.00     0.039 A 
HETATM   14  C   UNL     1       5.136  -0.438  -4.942  1.00  0.00     0.049 C 
ENDBRANCH   2   3
ENDBRANCH   1   2
BRANCH   1  15
HETATM   15  O   UNL     1       6.485   2.649  -1.204  1.00  0.00    -0.392 OA
HETATM   16  H   UNL     1       5.605   2.220  -1.216  1.00  0.00     0.210 HD
ENDBRANCH   1  15
BRANCH   1  17
HETATM   17  C   UNL     1       6.341   2.670   1.247  1.00  0.00     0.164 C 
BRANCH  17  18
HETATM   18  N   UNL     1       5.960   4.077   1.284  1.00  0.00    -0.330 N 
HETATM   19  C   UNL     1       6.831   5.134   1.318  1.00  0.00     0.110 A 
HETATM   20  C   UNL     1       6.039   6.256   1.307  1.00  0.00     0.107 A 
HETATM   21  N   UNL     1       4.713   5.916   1.319  1.00  0.00    -0.342 N 
HETATM   22  C   UNL     1       4.684   4.591   1.315  1.00  0.00     0.204 A 
ATOM     23  HN  UNL     1       3.914   6.550   1.329  1.00  0.00     0.167 HD
BRANCH  22  24
HETATM   24  S   UNL     1       3.209   3.615   1.352  1.00  0.00     0.203 S 
HETATM   25  O   UNL     1       3.229   2.884   0.098  1.00  0.00    -0.220 OA
HETATM   26  O   UNL     1       3.249   2.934   2.631  1.00  0.00    -0.220 OA
HETATM   27  C   UNL     1       1.888   4.796   1.344  1.00  0.00     0.170 C 
ENDBRANCH  22  24
ENDBRANCH  17  18
ENDBRANCH   1  17
TORSDOF 6
