REMARK  4 active torsions:
REMARK  status: ('A' for Active; 'I' for Inactive)
REMARK    1  A    between atoms: C_2  and  N_3 
REMARK    2  A    between atoms: C_2  and  C_14 
REMARK       I    between atoms: N_3  and  C_4 
REMARK    3  A    between atoms: C_4  and  C_6 
REMARK    4  A    between atoms: C_6  and  N_7 
ROOT
HETATM    1  N   UNL     1       2.826   1.399  -0.099  1.00  0.00    -0.355 N 
HETATM    2  C   UNL     1       2.196   2.272  -0.964  1.00  0.00     0.236 C 
HETATM    3  O   UNL     1       0.990   2.240  -1.205  1.00  0.00    -0.272 OA
HETATM    4  H   UNL     1       3.822   1.497   0.064  1.00  0.00     0.162 HD
ENDROOT
BRANCH   2   5
HETATM    5  C   UNL     1       3.099   3.347  -1.567  1.00  0.00     0.235 C 
BRANCH   5   6
HETATM    6  N   UNL     1       3.015   4.590  -0.823  1.00  0.00    -0.303 N 
HETATM    7  C   UNL     1       2.123   5.627  -1.056  1.00  0.00     0.018 A 
HETATM    8  C   UNL     1       1.079   5.596  -2.121  1.00  0.00     0.069 C 
HETATM    9  C   UNL     1       2.300   6.667  -0.225  1.00  0.00     0.080 A 
HETATM   10  S   UNL     1       3.577   6.384   0.915  1.00  0.00    -0.039 SA
HETATM   11  C   UNL     1       3.885   4.787   0.241  1.00  0.00     0.290 A 
HETATM   12  O   UNL     1       4.731   4.017   0.659  1.00  0.00    -0.259 OA
ENDBRANCH   5   6
ENDBRANCH   2   5
BRANCH   1  13
HETATM   13  C   UNL     1       2.136   0.264   0.490  1.00  0.00     0.084 C 
HETATM   14  C   UNL     1       2.610   0.023   1.924  1.00  0.00     0.032 C 
BRANCH  13  15
HETATM   15  C   UNL     1       2.379  -0.969  -0.348  1.00  0.00     0.008 A 
HETATM   16  C   UNL     1       2.012  -1.048  -1.812  1.00  0.00     0.007 A 
HETATM   17  C   UNL     1       1.193  -1.791  -0.798  1.00  0.00     0.007 A 
ENDBRANCH  13  15
ENDBRANCH   1  13
TORSDOF 4
