REMARK  3 active torsions:
REMARK  status: ('A' for Active; 'I' for Inactive)
REMARK    1  A    between atoms: O_2  and  C_3 
REMARK    2  A    between atoms: C_9  and  N_10 
REMARK       I    between atoms: N_10  and  C_11 
REMARK       I    between atoms: C_11  and  N_13 
REMARK    3  A    between atoms: N_13  and  C_14 
ROOT
HETATM    1  N   UNL     1       2.012  -2.263  -2.018  1.00  0.00    -0.305 N 
HETATM    2  C   UNL     1       1.486  -1.022  -2.311  1.00  0.00     0.321 C 
HETATM    3  O   UNL     1       2.061   0.048  -2.143  1.00  0.00    -0.247 OA
HETATM    4  N   UNL     1       0.198  -1.082  -2.804  1.00  0.00    -0.338 N 
HETATM    5  H   UNL     1       1.614  -3.073  -2.474  1.00  0.00     0.171 HD
HETATM    6  H   UNL     1      -0.184  -1.980  -3.056  1.00  0.00     0.164 HD
ENDROOT
BRANCH   1   7
HETATM    7  C   UNL     1       3.210  -2.501  -1.291  1.00  0.00     0.087 A 
HETATM    8  C   UNL     1       3.837  -3.754  -1.327  1.00  0.00     0.169 A 
HETATM    9  N   UNL     1       4.921  -4.093  -0.583  1.00  0.00    -0.345 N 
HETATM   10  C   UNL     1       5.453  -3.130   0.193  1.00  0.00     0.090 A 
ATOM     11  HN  UNL     1       5.314  -5.034  -0.611  1.00  0.00     0.167 HD
HETATM   12  C   UNL     1       4.957  -1.842   0.252  1.00  0.00     0.019 A 
HETATM   13  C   UNL     1       3.817  -1.532  -0.490  1.00  0.00     0.035 A 
BRANCH   8  14
HETATM   14  O   UNL     1       3.356  -4.699  -2.219  1.00  0.00    -0.339 OA
HETATM   15  C   UNL     1       4.434  -5.509  -2.700  1.00  0.00     0.211 C 
ENDBRANCH   8  14
ENDBRANCH   1   7
BRANCH   4  16
HETATM   16  C   UNL     1      -0.463   0.130  -3.295  1.00  0.00     0.086 C 
HETATM   17  C   UNL     1      -1.992   0.067  -3.165  1.00  0.00     0.025 C 
HETATM   18  C   UNL     1      -2.660  -0.853  -4.188  1.00  0.00     0.002 C 
HETATM   19  C   UNL     1      -2.186  -0.596  -5.614  1.00  0.00     0.000 C 
HETATM   20  C   UNL     1      -0.668  -0.574  -5.723  1.00  0.00     0.002 C 
HETATM   21  C   UNL     1      -0.052   0.426  -4.745  1.00  0.00     0.025 C 
ENDBRANCH   4  16
TORSDOF 3
