REMARK  7 active torsions:
REMARK  status: ('A' for Active; 'I' for Inactive)
REMARK    1  A    between atoms: N_11  and  C_12 
REMARK    2  A    between atoms: C_12  and  C_13 
REMARK    3  A    between atoms: C_13  and  O_14 
REMARK    4  A    between atoms: C_13  and  C_15 
REMARK    5  A    between atoms: C_15  and  O_16 
REMARK    6  A    between atoms: O_16  and  C_17 
REMARK    7  A    between atoms: C_17  and  C_18 
ROOT
HETATM    1  C   UNL     1       2.828  -2.323   0.096  1.00  0.00     0.164 C 
ENDROOT
BRANCH   1   2
HETATM    2  N   UNL     1       3.382  -0.986  -0.044  1.00  0.00    -0.332 N 
HETATM    3  C   UNL     1       3.631  -0.332  -1.235  1.00  0.00     0.080 A 
HETATM    4  C   UNL     1       3.445  -0.939  -2.577  1.00  0.00     0.089 C 
HETATM    5  N   UNL     1       4.037   0.901  -1.016  1.00  0.00    -0.344 N 
HETATM    6  C   UNL     1       4.047   1.059   0.344  1.00  0.00     0.060 A 
ATOM      7  HN  UNL     1       4.292   1.597  -1.717  1.00  0.00     0.167 HD
HETATM    8  C   UNL     1       4.387   2.188   1.104  1.00  0.00     0.032 A 
HETATM    9  C   UNL     1       3.642  -0.108   0.987  1.00  0.00     0.062 A 
HETATM   10  C   UNL     1       4.314   2.111   2.499  1.00  0.00     0.002 A 
HETATM   11  C   UNL     1       3.911   0.931   3.126  1.00  0.00     0.002 A 
HETATM   12  C   UNL     1       3.562  -0.204   2.383  1.00  0.00     0.032 A 
ENDBRANCH   1   2
BRANCH   1  13
HETATM   13  C   UNL     1       3.893  -3.433   0.134  1.00  0.00     0.160 C 
BRANCH  13  14
HETATM   14  O   UNL     1       4.691  -3.370   1.319  1.00  0.00    -0.392 OA
HETATM   15  H   UNL     1       4.109  -3.284   2.093  1.00  0.00     0.210 HD
ENDBRANCH  13  14
BRANCH  13  16
HETATM   16  C   UNL     1       3.238  -4.821   0.060  1.00  0.00     0.201 C 
BRANCH  16  17
HETATM   17  O   UNL     1       2.500  -4.931  -1.150  1.00  0.00    -0.382 OA
BRANCH  17  18
HETATM   18  C   UNL     1       1.879  -6.209  -1.295  1.00  0.00     0.232 C 
BRANCH  18  19
HETATM   19  C   UNL     1       1.167  -6.188  -2.595  1.00  0.00     0.076 A 
HETATM   20  C   UNL     1       1.397  -5.542  -3.793  1.00  0.00     0.037 A 
HETATM   21  C   UNL     1       0.348  -5.922  -4.662  1.00  0.00     0.027 A 
HETATM   22  C   UNL     1      -0.449  -6.782  -3.945  1.00  0.00     0.142 A 
HETATM   23  O   UNL     1       0.041  -6.953  -2.690  1.00  0.00    -0.325 OA
ENDBRANCH  18  19
ENDBRANCH  17  18
ENDBRANCH  16  17
ENDBRANCH  13  16
ENDBRANCH   1  13
TORSDOF 7
