REMARK  5 active torsions:
REMARK  status: ('A' for Active; 'I' for Inactive)
REMARK    1  A    between atoms: C_2  and  C_3 
REMARK    2  A    between atoms: C_3  and  C_4 
REMARK    3  A    between atoms: C_4  and  N_5 
REMARK    4  A    between atoms: C_6  and  N_7 
REMARK    5  A    between atoms: C_8  and  N_9 
ROOT
HETATM    1  N   UNL     1       5.046  -0.068   2.872  1.00  0.00    -0.288 N 
HETATM    2  C   UNL     1       5.222  -1.317   3.453  1.00  0.00     0.116 A 
HETATM    3  C   UNL     1       5.721  -1.443   4.709  1.00  0.00     0.138 A 
HETATM    4  C   UNL     1       6.133  -0.201   5.439  1.00  0.00     0.279 A 
HETATM    5  O   UNL     1       6.690  -0.227   6.533  1.00  0.00    -0.265 OA
HETATM    6  N   UNL     1       5.850   0.975   4.807  1.00  0.00    -0.273 N 
HETATM    7  C   UNL     1       5.355   1.110   3.544  1.00  0.00     0.330 A 
HETATM    8  O   UNL     1       5.231   2.237   3.066  1.00  0.00    -0.246 OA
HETATM    9  H   UNL     1       6.113   1.822   5.284  1.00  0.00     0.173 HD
ENDROOT
BRANCH   3  10
HETATM   10  N   UNL     1       5.930  -2.698   5.294  1.00  0.00    -0.370 N 
HETATM   11  C   UNL     1       7.244  -3.154   5.760  1.00  0.00     0.149 C 
HETATM   12  C   UNL     1       7.391  -4.622   5.321  1.00  0.00     0.187 C 
HETATM   13  O   UNL     1       6.341  -5.444   5.867  1.00  0.00    -0.388 OA
HETATM   14  C   UNL     1       5.040  -4.966   5.472  1.00  0.00     0.187 C 
HETATM   15  C   UNL     1       4.828  -3.493   5.861  1.00  0.00     0.149 C 
ENDBRANCH   3  10
BRANCH   2  16
HETATM   16  N   UNL     1       4.940  -2.491   2.752  1.00  0.00    -0.286 NA
HETATM   17  H   UNL     1       5.219  -2.436   1.781  1.00  0.00     0.125 HD
HETATM   18  H   UNL     1       5.406  -3.269   3.220  1.00  0.00     0.125 HD
ENDBRANCH   2  16
BRANCH   1  19
HETATM   19  C   UNL     1       4.526   0.044   1.502  1.00  0.00     0.135 C 
BRANCH  19  20
HETATM   20  C   UNL     1       3.073  -0.418   1.365  1.00  0.00     0.020 C 
BRANCH  20  21
HETATM   21  C   UNL     1       2.590  -0.328  -0.081  1.00  0.00    -0.003 C 
HETATM   22  C   UNL     1       1.184  -0.890  -0.218  1.00  0.00     0.005 C 
ENDBRANCH  20  21
ENDBRANCH  19  20
ENDBRANCH   1  19
TORSDOF 5
