REMARK  5 active torsions:
REMARK  status: ('A' for Active; 'I' for Inactive)
REMARK    1  A    between atoms: C_2  and  O_3 
REMARK    2  A    between atoms: O_3  and  C_4 
REMARK    3  A    between atoms: C_10  and  N_11 
REMARK       I    between atoms: N_11  and  C_12 
REMARK       I    between atoms: C_12  and  N_14 
REMARK    4  A    between atoms: N_14  and  C_15 
REMARK    5  A    between atoms: C_18  and  O_19 
ROOT
HETATM    1  N   UNL     1       3.841  -4.023  -0.548  1.00  0.00    -0.305 N 
HETATM    2  C   UNL     1       2.657  -3.716  -1.182  1.00  0.00     0.321 C 
HETATM    3  O   UNL     1       2.407  -2.642  -1.714  1.00  0.00    -0.247 OA
HETATM    4  N   UNL     1       1.770  -4.772  -1.194  1.00  0.00    -0.338 N 
HETATM    5  H   UNL     1       4.181  -4.963  -0.701  1.00  0.00     0.171 HD
HETATM    6  H   UNL     1       1.924  -5.535  -0.550  1.00  0.00     0.164 HD
ENDROOT
BRANCH   1   7
HETATM    7  C   UNL     1       4.855  -3.056  -0.324  1.00  0.00     0.087 A 
HETATM    8  C   UNL     1       6.207  -3.396  -0.456  1.00  0.00     0.169 A 
HETATM    9  N   UNL     1       7.228  -2.534  -0.232  1.00  0.00    -0.345 N 
HETATM   10  C   UNL     1       6.896  -1.277   0.132  1.00  0.00     0.090 A 
ATOM     11  HN  UNL     1       8.201  -2.821  -0.334  1.00  0.00     0.167 HD
HETATM   12  C   UNL     1       5.592  -0.843   0.294  1.00  0.00     0.019 A 
HETATM   13  C   UNL     1       4.560  -1.749   0.063  1.00  0.00     0.035 A 
BRANCH   8  14
HETATM   14  O   UNL     1       6.490  -4.673  -0.918  1.00  0.00    -0.334 OA
BRANCH  14  15
HETATM   15  C   UNL     1       7.892  -4.947  -0.968  1.00  0.00     0.173 C 
HETATM   16  C   UNL     1       8.104  -6.227  -1.756  1.00  0.00     0.034 C 
ENDBRANCH  14  15
ENDBRANCH   8  14
ENDBRANCH   1   7
BRANCH   4  17
HETATM   17  C   UNL     1       0.543  -4.703  -1.984  1.00  0.00     0.086 C 
HETATM   18  C   UNL     1      -0.644  -5.407  -1.320  1.00  0.00     0.028 C 
HETATM   19  C   UNL     1      -0.558  -6.932  -1.350  1.00  0.00     0.034 C 
HETATM   20  C   UNL     1      -0.210  -7.505  -2.725  1.00  0.00     0.118 C 
HETATM   21  C   UNL     1       0.934  -6.768  -3.421  1.00  0.00     0.034 C 
HETATM   22  C   UNL     1       0.774  -5.247  -3.399  1.00  0.00     0.028 C 
BRANCH  20  23
HETATM   23  O   UNL     1      -1.369  -7.507  -3.553  1.00  0.00    -0.396 OA
HETATM   24  H   UNL     1      -1.598  -6.593  -3.783  1.00  0.00     0.210 HD
ENDBRANCH  20  23
ENDBRANCH   4  17
TORSDOF 5
