REMARK  5 active torsions:
REMARK  status: ('A' for Active; 'I' for Inactive)
REMARK    1  A    between atoms: N_2  and  C_4 
REMARK    2  A    between atoms: C_4  and  C_5 
REMARK    3  A    between atoms: C_5  and  N_6 
REMARK       I    between atoms: N_6  and  C_7 
REMARK    4  A    between atoms: C_7  and  C_9 
REMARK    5  A    between atoms: C_9  and  C_10 
ROOT
HETATM    1  N   UNL     1       1.539  -1.262   2.872  1.00  0.00    -0.358 N 
HETATM    2  C   UNL     1       2.283  -2.066   3.705  1.00  0.00     0.222 C 
HETATM    3  O   UNL     1       3.285  -1.677   4.297  1.00  0.00    -0.273 OA
HETATM    4  H   UNL     1       0.648  -1.590   2.525  1.00  0.00     0.162 HD
ENDROOT
BRANCH   1   5
HETATM    5  C   UNL     1       1.914   0.115   2.601  1.00  0.00     0.164 C 
BRANCH   5   6
HETATM    6  C   UNL     1       2.925   0.341   1.409  1.00  0.00     0.174 C 
HETATM    7  C   UNL     1       3.321   1.860   1.479  1.00  0.00     0.043 C 
HETATM    8  C   UNL     1       4.508   2.268   0.605  1.00  0.00     0.003 C 
HETATM    9  C   UNL     1       5.733   1.392   0.844  1.00  0.00     0.000 C 
HETATM   10  C   UNL     1       5.390  -0.086   0.735  1.00  0.00     0.003 C 
HETATM   11  C   UNL     1       4.248  -0.443   1.686  1.00  0.00     0.043 C 
BRANCH   6  12
HETATM   12  N   UNL     1       2.378  -0.013   0.052  1.00  0.00     0.091 N 
HETATM   13  C   UNL     1       2.103  -1.435  -0.168  1.00  0.00     0.310 C 
HETATM   14  C   UNL     1       1.206   0.759  -0.367  1.00  0.00     0.310 C 
ENDBRANCH   6  12
ENDBRANCH   5   6
ENDBRANCH   1   5
BRANCH   2  15
HETATM   15  C   UNL     1       1.775  -3.488   3.843  1.00  0.00     0.146 C 
BRANCH  15  16
HETATM   16  C   UNL     1       0.802  -3.613   4.955  1.00  0.00     0.006 A 
HETATM   17  C   UNL     1       0.997  -3.369   6.347  1.00  0.00     0.038 A 
HETATM   18  C   UNL     1       2.212  -2.918   7.069  1.00  0.00     0.071 C 
HETATM   19  N   UNL     1      -0.124  -3.596   7.040  1.00  0.00    -0.265 N 
HETATM   20  O   UNL     1      -1.068  -3.997   6.121  1.00  0.00    -0.242 OA
ATOM     21  HN  UNL     1      -0.254  -3.493   8.046  1.00  0.00     0.194 HD
HETATM   22  C   UNL     1      -0.517  -4.009   4.878  1.00  0.00     0.081 A 
HETATM   23  C   UNL     1      -1.404  -4.425   3.776  1.00  0.00     0.079 C 
ENDBRANCH  15  16
ENDBRANCH   2  15
TORSDOF 5
