REMARK  5 active torsions:
REMARK  status: ('A' for Active; 'I' for Inactive)
REMARK    1  A    between atoms: O_2  and  C_3 
REMARK    2  A    between atoms: C_3  and  C_4 
REMARK    3  A    between atoms: C_4  and  N_5 
REMARK       I    between atoms: N_5  and  C_6 
REMARK       I    between atoms: C_6  and  N_8 
REMARK    4  A    between atoms: N_8  and  C_9 
REMARK    5  A    between atoms: C_13  and  C_17 
ROOT
HETATM    1  N   UNL     1       1.962   0.376  -3.702  1.00  0.00    -0.340 N 
HETATM    2  C   UNL     1       1.159   1.090  -4.556  1.00  0.00     0.320 C 
HETATM    3  O   UNL     1       0.481   2.025  -4.149  1.00  0.00    -0.247 OA
HETATM    4  N   UNL     1       1.175   0.634  -5.851  1.00  0.00    -0.306 N 
HETATM    5  H   UNL     1       2.533  -0.397  -4.014  1.00  0.00     0.164 HD
HETATM    6  H   UNL     1       1.623  -0.253  -6.024  1.00  0.00     0.171 HD
ENDROOT
BRANCH   4   7
HETATM    7  C   UNL     1       0.389   1.192  -6.889  1.00  0.00     0.067 A 
HETATM    8  C   UNL     1      -0.260   2.410  -6.828  1.00  0.00     0.120 A 
HETATM    9  N   UNL     1      -1.062   2.897  -7.801  1.00  0.00    -0.353 N 
HETATM   10  C   UNL     1      -1.231   2.144  -8.902  1.00  0.00     0.085 A 
ATOM     11  HN  UNL     1      -1.522   3.802  -7.704  1.00  0.00     0.166 HD
HETATM   12  N   UNL     1      -0.605   0.960  -9.080  1.00  0.00    -0.353 N 
HETATM   13  C   UNL     1       0.190   0.520  -8.076  1.00  0.00     0.120 A 
ATOM     14  HN  UNL     1      -0.726   0.419  -9.936  1.00  0.00     0.166 HD
BRANCH  10  15
HETATM   15  C   UNL     1      -2.200   2.629  -9.950  1.00  0.00     0.053 A 
HETATM   16  C   UNL     1      -1.722   2.948 -11.346  1.00  0.00     0.013 A 
HETATM   17  C   UNL     1      -2.147   4.062 -10.436  1.00  0.00     0.013 A 
ENDBRANCH  10  15
ENDBRANCH   4   7
BRANCH   1  18
HETATM   18  C   UNL     1       1.892   0.699  -2.288  1.00  0.00     0.162 C 
BRANCH  18  19
HETATM   19  C   UNL     1       2.957  -0.063  -1.496  1.00  0.00     0.076 C 
HETATM   20  C   UNL     1       2.754   0.069   0.047  1.00  0.00     0.040 C 
HETATM   21  C   UNL     1       1.991  -1.265   0.029  1.00  0.00     0.006 C 
HETATM   22  C   UNL     1       2.670  -1.585  -1.311  1.00  0.00     0.040 C 
BRANCH  19  23
HETATM   23  O   UNL     1       4.300   0.216  -1.980  1.00  0.00    -0.383 OA
HETATM   24  C   UNL     1       4.770   1.556  -1.868  1.00  0.00     0.202 C 
ENDBRANCH  19  23
ENDBRANCH  18  19
ENDBRANCH   1  18
TORSDOF 5
