REMARK  3 active torsions:
REMARK  status: ('A' for Active; 'I' for Inactive)
REMARK    1  A    between atoms: C_2  and  N_4 
REMARK    2  A    between atoms: C_8  and  N_10 
REMARK       I    between atoms: N_10  and  C_11 
REMARK       I    between atoms: C_11  and  N_13 
REMARK    3  A    between atoms: N_13  and  C_14 
ROOT
HETATM    1  N   UNL     1       3.326  -1.792   4.193  1.00  0.00    -0.336 N 
HETATM    2  C   UNL     1       3.394  -2.632   5.286  1.00  0.00     0.322 C 
HETATM    3  O   UNL     1       2.632  -3.583   5.432  1.00  0.00    -0.247 OA
HETATM    4  N   UNL     1       4.349  -2.244   6.191  1.00  0.00    -0.295 N 
HETATM    5  H   UNL     1       4.196  -1.392   3.873  1.00  0.00     0.164 HD
HETATM    6  H   UNL     1       4.391  -1.248   6.347  1.00  0.00     0.172 HD
ENDROOT
BRANCH   1   7
HETATM    7  C   UNL     1       2.275  -1.998   3.203  1.00  0.00     0.119 C 
HETATM    8  C   UNL     1       2.567  -3.063   2.138  1.00  0.00     0.034 C 
HETATM    9  C   UNL     1       2.971  -2.283   0.884  1.00  0.00     0.279 C 
HETATM   10  C   UNL     1       3.571  -4.158   2.468  1.00  0.00     0.014 C 
HETATM   11  N   UNL     1       2.867  -0.847   1.190  1.00  0.00     0.094 N 
HETATM   12  C   UNL     1       1.984  -0.745   2.365  1.00  0.00     0.298 C 
BRANCH  11  13
HETATM   13  C   UNL     1       2.390  -0.068   0.024  1.00  0.00     0.215 C 
HETATM   14  C   UNL     1       2.257   1.430   0.326  1.00  0.00     0.042 C 
HETATM   15  C   UNL     1       3.336  -0.232  -1.178  1.00  0.00     0.042 C 
ENDBRANCH  11  13
ENDBRANCH   1   7
BRANCH   4  16
HETATM   16  C   UNL     1       4.557  -2.976   7.370  1.00  0.00     0.109 A 
HETATM   17  C   UNL     1       4.688  -4.358   7.349  1.00  0.00     0.049 A 
HETATM   18  C   UNL     1       4.872  -5.033   8.550  1.00  0.00     0.006 A 
HETATM   19  C   UNL     1       4.879  -4.310   9.736  1.00  0.00     0.025 A 
HETATM   20  C   UNL     1       4.738  -2.927   9.676  1.00  0.00     0.007 A 
HETATM   21  C   UNL     1       4.614  -2.122  10.936  1.00  0.00     0.068 C 
HETATM   22  N   UNL     1       4.627  -2.248   8.505  1.00  0.00    -0.346 N 
ATOM     23  HN  UNL     1       4.598  -1.229   8.484  1.00  0.00     0.167 HD
ENDBRANCH   4  16
TORSDOF 3
