REMARK  4 active torsions:
REMARK  status: ('A' for Active; 'I' for Inactive)
REMARK    1  A    between atoms: C_2  and  C_3 
REMARK    2  A    between atoms: C_2  and  N_10 
REMARK    3  A    between atoms: C_3  and  N_4 
REMARK       I    between atoms: N_10  and  C_11 
REMARK       I    between atoms: C_11  and  N_13 
REMARK    4  A    between atoms: N_13  and  C_14 
ROOT
HETATM    1  N   UNL     1       3.165   0.998   1.180  1.00  0.00    -0.337 N 
HETATM    2  C   UNL     1       4.508   0.829   1.424  1.00  0.00     0.322 C 
HETATM    3  O   UNL     1       5.165  -0.089   0.952  1.00  0.00    -0.247 OA
HETATM    4  N   UNL     1       4.994   1.891   2.149  1.00  0.00    -0.295 N 
HETATM    5  H   UNL     1       2.625   1.285   1.984  1.00  0.00     0.164 HD
HETATM    6  H   UNL     1       4.515   2.765   1.995  1.00  0.00     0.172 HD
ENDROOT
BRANCH   1   7
HETATM    7  C   UNL     1       2.477   0.272   0.116  1.00  0.00     0.110 C 
HETATM    8  C   UNL     1       0.970   0.506   0.213  1.00  0.00     0.034 C 
BRANCH   7   9
HETATM    9  C   UNL     1       3.017   0.613  -1.314  1.00  0.00     0.297 C 
BRANCH   9  10
HETATM   10  N   UNL     1       2.758   1.968  -1.863  1.00  0.00     0.090 N 
HETATM   11  C   UNL     1       3.214   2.069  -3.265  1.00  0.00     0.272 C 
HETATM   12  C   UNL     1       4.739   2.120  -3.433  1.00  0.00     0.030 C 
HETATM   13  C   UNL     1       5.364   3.222  -2.583  1.00  0.00     0.003 C 
HETATM   14  C   UNL     1       4.873   3.135  -1.145  1.00  0.00     0.030 C 
HETATM   15  C   UNL     1       3.344   3.072  -1.089  1.00  0.00     0.272 C 
ENDBRANCH   9  10
ENDBRANCH   7   9
ENDBRANCH   1   7
BRANCH   4  16
HETATM   16  C   UNL     1       6.344   2.080   2.442  1.00  0.00     0.108 A 
HETATM   17  C   UNL     1       7.177   1.025   2.795  1.00  0.00     0.049 A 
HETATM   18  C   UNL     1       8.497   1.301   3.135  1.00  0.00     0.012 A 
HETATM   19  C   UNL     1       8.959   2.615   3.092  1.00  0.00    -0.046 A 
HETATM   20  C   UNL     1      10.370   2.961   3.446  1.00  0.00     0.049 C 
HETATM   21  C   UNL     1       8.060   3.597   2.691  1.00  0.00     0.096 A 
HETATM   22  N   UNL     1       6.758   3.365   2.403  1.00  0.00    -0.352 N 
ATOM     23  HN  UNL     1       6.120   4.125   2.168  1.00  0.00     0.166 HD
ENDBRANCH   4  16
TORSDOF 4
