REMARK  6 active torsions:
REMARK  status: ('A' for Active; 'I' for Inactive)
REMARK    1  A    between atoms: C_2  and  N_3 
REMARK    2  A    between atoms: C_2  and  C_13 
REMARK    3  A    between atoms: N_3  and  C_4 
REMARK    4  A    between atoms: C_4  and  C_5 
REMARK    5  A    between atoms: C_5  and  N_6 
REMARK       I    between atoms: C_13  and  N_15 
REMARK    6  A    between atoms: N_15  and  C_17 
ROOT
HETATM    1  C   UNL     1       0.601   0.120   0.060  1.00  0.00     0.053 C 
HETATM    2  C   UNL     1       2.122   0.063  -0.076  1.00  0.00     0.307 C 
ENDROOT
BRANCH   2   3
HETATM    3  N   UNL     1       2.594  -0.543  -1.349  1.00  0.00     0.098 N 
HETATM    4  H   UNL     1       2.246  -1.502  -1.384  1.00  0.00     0.317 HD
BRANCH   3   5
HETATM    5  C   UNL     1       2.156   0.144  -2.569  1.00  0.00     0.292 C 
BRANCH   5   6
HETATM    6  C   UNL     1       2.733  -0.548  -3.806  1.00  0.00     0.178 C 
BRANCH   6   7
HETATM    7  N   UNL     1       2.338   0.145  -5.014  1.00  0.00    -0.302 N 
HETATM    8  C   UNL     1       2.995   1.187  -5.604  1.00  0.00     0.118 A 
HETATM    9  C   UNL     1       2.244   1.543  -6.707  1.00  0.00    -0.028 A 
HETATM   10  C   UNL     1       2.518   2.612  -7.689  1.00  0.00     0.051 C 
HETATM   11  C   UNL     1       1.148   0.652  -6.670  1.00  0.00     0.115 A 
HETATM   12  N   UNL     1       1.199  -0.211  -5.649  1.00  0.00    -0.310 N 
ATOM     13  HN  UNL     1       0.542  -0.953  -5.409  1.00  0.00     0.186 HD
ENDBRANCH   6   7
ENDBRANCH   5   6
ENDBRANCH   3   5
ENDBRANCH   2   3
BRANCH   2  14
HETATM   14  C   UNL     1       2.737   1.465   0.236  1.00  0.00     0.252 C 
HETATM   15  O   UNL     1       2.820   2.316  -0.653  1.00  0.00    -0.271 OA
HETATM   16  N   UNL     1       3.136   1.735   1.556  1.00  0.00    -0.350 N 
HETATM   17  C   UNL     1       2.674   0.905   2.676  1.00  0.00     0.153 C 
BRANCH  16  18
HETATM   18  C   UNL     1       3.712   3.064   1.954  1.00  0.00     0.086 C 
HETATM   19  C   UNL     1       4.431   3.945   0.902  1.00  0.00     0.025 C 
HETATM   20  C   UNL     1       5.783   3.402   0.428  1.00  0.00     0.002 C 
HETATM   21  C   UNL     1       6.688   2.906   1.557  1.00  0.00     0.000 C 
HETATM   22  C   UNL     1       5.934   2.104   2.610  1.00  0.00     0.002 C 
HETATM   23  C   UNL     1       4.729   2.900   3.109  1.00  0.00     0.025 C 
ENDBRANCH  16  18
ENDBRANCH   2  14
TORSDOF 6
