REMARK  5 active torsions:
REMARK  status: ('A' for Active; 'I' for Inactive)
REMARK    1  A    between atoms: C_2  and  C_3 
REMARK       I    between atoms: C_2  and  N_11 
REMARK    2  A    between atoms: C_3  and  N_4 
REMARK    3  A    between atoms: N_11  and  C_12 
REMARK    4  A    between atoms: C_12  and  C_13 
REMARK    5  A    between atoms: C_13  and  N_14 
ROOT
HETATM    1  O   UNL     1       2.621   0.406  -1.253  1.00  0.00    -0.272 OA
HETATM    2  C   UNL     1       2.110  -0.360  -0.438  1.00  0.00     0.235 C 
HETATM    3  N   UNL     1       2.856  -1.166   0.404  1.00  0.00    -0.358 N 
HETATM    4  H   UNL     1       2.378  -1.713   1.111  1.00  0.00     0.162 HD
ENDROOT
BRANCH   3   5
HETATM    5  C   UNL     1       4.307  -1.074   0.464  1.00  0.00     0.152 C 
BRANCH   5   6
HETATM    6  C   UNL     1       4.974  -2.411   0.858  1.00  0.00     0.292 C 
BRANCH   6   7
HETATM    7  N   UNL     1       6.454  -2.428   0.947  1.00  0.00     0.090 N 
HETATM    8  C   UNL     1       6.949  -1.477   1.948  1.00  0.00     0.272 C 
HETATM    9  C   UNL     1       8.377  -1.781   2.409  1.00  0.00     0.030 C 
HETATM   10  C   UNL     1       9.472  -1.121   1.577  1.00  0.00     0.002 C 
HETATM   11  C   UNL     1       9.244  -1.103   0.072  1.00  0.00     0.002 C 
HETATM   12  C   UNL     1       8.586  -2.367  -0.468  1.00  0.00     0.030 C 
HETATM   13  C   UNL     1       7.056  -2.318  -0.389  1.00  0.00     0.272 C 
ENDBRANCH   6   7
ENDBRANCH   5   6
ENDBRANCH   3   5
BRANCH   2  14
HETATM   14  C   UNL     1       0.592  -0.476  -0.263  1.00  0.00     0.234 C 
BRANCH  14  15
HETATM   15  N   UNL     1      -0.088  -0.860  -1.496  1.00  0.00    -0.316 N 
HETATM   16  C   UNL     1      -0.487   0.113  -2.398  1.00  0.00     0.095 A 
HETATM   17  C   UNL     1      -1.143  -0.210  -3.522  1.00  0.00     0.017 A 
HETATM   18  C   UNL     1      -1.437  -1.591  -3.810  1.00  0.00     0.007 A 
HETATM   19  C   UNL     1      -1.041  -2.559  -2.974  1.00  0.00     0.074 A 
HETATM   20  C   UNL     1      -0.306  -2.216  -1.726  1.00  0.00     0.247 A 
HETATM   21  O   UNL     1       0.050  -3.114  -0.965  1.00  0.00    -0.268 OA
ENDBRANCH  14  15
ENDBRANCH   2  14
TORSDOF 5
