REMARK  7 active torsions:
REMARK  status: ('A' for Active; 'I' for Inactive)
REMARK    1  A    between atoms: C_5  and  N_9 
REMARK    2  A    between atoms: N_9  and  C_10 
REMARK    3  A    between atoms: N_14  and  C_15 
REMARK    4  A    between atoms: C_15  and  C_16 
REMARK       I    between atoms: C_16  and  N_18 
REMARK    5  A    between atoms: N_18  and  C_19 
REMARK    6  A    between atoms: C_19  and  C_20 
REMARK    7  A    between atoms: C_20  and  O_21 
ROOT
HETATM    1  C   UNL     1       5.366   0.151  -3.695  1.00  0.00     0.062 A 
HETATM    2  C   UNL     1       5.104   0.565  -5.014  1.00  0.00     0.138 A 
HETATM    3  N   UNL     1       6.111   1.280  -5.530  1.00  0.00    -0.307 N 
ATOM      4  HN  UNL     1       6.193   1.674  -6.467  1.00  0.00     0.186 HD
HETATM    5  N   UNL     1       6.993   1.353  -4.508  1.00  0.00    -0.293 N 
HETATM    6  C   UNL     1       6.593   0.677  -3.392  1.00  0.00     0.141 A 
ENDROOT
BRANCH   1   7
HETATM    7  N   UNL     1       4.626  -0.581  -2.841  1.00  0.00    -0.383 N 
HETATM    8  H   UNL     1       5.088  -1.266  -2.250  1.00  0.00     0.160 HD
BRANCH   7   9
HETATM    9  C   UNL     1       3.164  -0.619  -2.844  1.00  0.00     0.082 C 
HETATM   10  C   UNL     1       2.566   0.786  -2.655  1.00  0.00     0.025 C 
HETATM   11  C   UNL     1       2.880   1.373  -1.278  1.00  0.00     0.006 C 
HETATM   12  C   UNL     1       2.411   0.468  -0.127  1.00  0.00    -0.015 C 
HETATM   13  C   UNL     1       0.886   0.534   0.017  1.00  0.00     0.010 C 
HETATM   14  C   UNL     1       2.967  -0.967  -0.306  1.00  0.00    -0.013 C 
HETATM   15  C   UNL     1       2.678  -1.541  -1.709  1.00  0.00     0.029 C 
HETATM   16  C   UNL     1       2.485  -1.932   0.778  1.00  0.00     0.010 C 
ENDBRANCH   7   9
ENDBRANCH   1   7
BRANCH   5  17
HETATM   17  C   UNL     1       8.199   2.138  -4.672  1.00  0.00     0.250 C 
BRANCH  17  18
HETATM   18  C   UNL     1       9.428   1.311  -4.381  1.00  0.00     0.237 C 
HETATM   19  O   UNL     1       9.924   1.251  -3.257  1.00  0.00    -0.272 OA
HETATM   20  N   UNL     1       9.955   0.631  -5.462  1.00  0.00    -0.358 N 
HETATM   21  H   UNL     1       9.440   0.607  -6.336  1.00  0.00     0.162 HD
BRANCH  20  22
HETATM   22  C   UNL     1      11.158  -0.174  -5.337  1.00  0.00     0.148 C 
BRANCH  22  23
HETATM   23  C   UNL     1      10.866  -1.595  -4.861  1.00  0.00     0.183 C 
BRANCH  23  24
HETATM   24  O   UNL     1      10.103  -2.294  -5.844  1.00  0.00    -0.399 OA
HETATM   25  H   UNL     1       9.226  -1.871  -5.865  1.00  0.00     0.209 HD
ENDBRANCH  23  24
ENDBRANCH  22  23
ENDBRANCH  20  22
ENDBRANCH  17  18
ENDBRANCH   5  17
TORSDOF 7
