REMARK  4 active torsions:
REMARK  status: ('A' for Active; 'I' for Inactive)
REMARK    1  A    between atoms: C_2  and  C_3 
REMARK    2  A    between atoms: C_3  and  N_5 
REMARK       I    between atoms: N_5  and  C_6 
REMARK    3  A    between atoms: C_6  and  C_8 
REMARK    4  A    between atoms: C_14  and  N_15 
ROOT
HETATM    1  C   UNL     1       6.648   0.203   2.725  1.00  0.00     0.075 A 
HETATM    2  C   UNL     1       7.412   0.132   1.545  1.00  0.00     0.022 A 
HETATM    3  C   UNL     1       8.798   0.154   1.615  1.00  0.00     0.018 A 
HETATM    4  C   UNL     1       9.374   0.268   2.861  1.00  0.00     0.089 A 
HETATM    5  N   UNL     1       8.667   0.309   4.010  1.00  0.00    -0.352 N 
ATOM      6  HN  UNL     1       9.150   0.380   4.906  1.00  0.00     0.166 HD
HETATM    7  C   UNL     1       7.306   0.255   3.970  1.00  0.00     0.119 A 
ENDROOT
BRANCH   1   8
HETATM    8  C   UNL     1       5.187   0.419   2.589  1.00  0.00     0.255 C 
HETATM    9  N   UNL     1       4.521  -0.320   1.620  1.00  0.00    -0.353 N 
HETATM   10  H   UNL     1       5.003  -1.065   1.137  1.00  0.00     0.163 HD
HETATM   11  O   UNL     1       4.612   1.246   3.291  1.00  0.00    -0.268 OA
BRANCH   9  12
HETATM   12  C   UNL     1       3.070  -0.217   1.484  1.00  0.00     0.080 C 
HETATM   13  C   UNL     1       2.394  -1.319   2.300  1.00  0.00     0.032 C 
BRANCH  12  14
HETATM   14  C   UNL     1       2.627  -0.271   0.017  1.00  0.00     0.020 C 
HETATM   15  C   UNL     1       3.228   0.853  -0.817  1.00  0.00     0.007 C 
ENDBRANCH  12  14
ENDBRANCH   9  12
ENDBRANCH   1   8
BRANCH   7  16
HETATM   16  N   UNL     1       6.707   0.166   5.201  1.00  0.00    -0.362 N 
HETATM   17  C   UNL     1       7.199   0.992   6.310  1.00  0.00     0.150 C 
HETATM   18  C   UNL     1       7.229   0.168   7.609  1.00  0.00     0.187 C 
HETATM   19  O   UNL     1       5.972  -0.481   7.876  1.00  0.00    -0.388 OA
HETATM   20  C   UNL     1       5.614  -1.337   6.778  1.00  0.00     0.187 C 
HETATM   21  C   UNL     1       5.456  -0.539   5.474  1.00  0.00     0.150 C 
ENDBRANCH   7  16
TORSDOF 4
