REMARK  5 active torsions:
REMARK  status: ('A' for Active; 'I' for Inactive)
REMARK    1  A    between atoms: O_2  and  C_3 
REMARK    2  A    between atoms: C_3  and  C_4 
REMARK    3  A    between atoms: C_4  and  N_5 
REMARK       I    between atoms: N_5  and  C_6 
REMARK       I    between atoms: C_6  and  N_8 
REMARK    4  A    between atoms: N_8  and  C_9 
REMARK    5  A    between atoms: C_12  and  N_16 
ROOT
HETATM    1  C   UNL     1       8.358  -3.115   3.319  1.00  0.00     0.051 A 
HETATM    2  C   UNL     1       9.227  -2.046   3.431  1.00  0.00     0.035 A 
HETATM    3  C   UNL     1      10.602  -2.264   3.526  1.00  0.00     0.051 A 
HETATM    4  C   UNL     1      11.129  -3.550   3.522  1.00  0.00     0.103 A 
HETATM    5  N   UNL     1      10.272  -4.601   3.535  1.00  0.00    -0.350 N 
ATOM      6  HN  UNL     1      10.628  -5.554   3.611  1.00  0.00     0.166 HD
HETATM    7  C   UNL     1       8.930  -4.372   3.446  1.00  0.00     0.119 A 
ENDROOT
BRANCH   1   8
HETATM    8  N   UNL     1       6.974  -2.957   3.057  1.00  0.00    -0.308 N 
HETATM    9  C   UNL     1       6.452  -1.849   2.422  1.00  0.00     0.320 C 
HETATM   10  N   UNL     1       5.088  -1.931   2.239  1.00  0.00    -0.341 N 
HETATM   11  O   UNL     1       7.093  -0.888   2.006  1.00  0.00    -0.247 OA
HETATM   12  H   UNL     1       4.575  -2.326   3.016  1.00  0.00     0.164 HD
HETATM   13  H   UNL     1       6.409  -3.791   2.995  1.00  0.00     0.170 HD
BRANCH  10  14
HETATM   14  C   UNL     1       4.452  -0.783   1.605  1.00  0.00     0.150 C 
BRANCH  14  15
HETATM   15  C   UNL     1       2.955  -0.963   1.395  1.00  0.00     0.186 C 
BRANCH  15  16
HETATM   16  O   UNL     1       2.316  -1.079   2.670  1.00  0.00    -0.394 OA
HETATM   17  C   UNL     1       0.903  -1.144   2.533  1.00  0.00     0.201 C 
ENDBRANCH  15  16
ENDBRANCH  14  15
ENDBRANCH  10  14
ENDBRANCH   1   8
BRANCH   4  18
HETATM   18  N   UNL     1      12.491  -3.787   3.483  1.00  0.00    -0.367 N 
HETATM   19  C   UNL     1      13.509  -2.742   3.381  1.00  0.00     0.124 C 
HETATM   20  C   UNL     1      14.356  -2.959   2.129  1.00  0.00     0.020 C 
HETATM   21  C   UNL     1      14.969  -4.354   2.127  1.00  0.00     0.003 C 
HETATM   22  C   UNL     1      13.880  -5.416   2.273  1.00  0.00     0.020 C 
HETATM   23  C   UNL     1      12.996  -5.162   3.500  1.00  0.00     0.124 C 
ENDBRANCH   4  18
TORSDOF 5
