REMARK  3 active torsions:
REMARK  status: ('A' for Active; 'I' for Inactive)
REMARK    1  A    between atoms: C_2  and  C_3 
REMARK    2  A    between atoms: C_2  and  N_15 
REMARK       I    between atoms: C_3  and  N_5 
REMARK    3  A    between atoms: N_5  and  C_6 
ROOT
HETATM    1  C   UNL     1       1.433   1.100   1.554  1.00  0.00     0.242 C 
HETATM    2  O   UNL     1       0.561   1.169   2.417  1.00  0.00    -0.271 OA
HETATM    3  N   UNL     1       2.696   1.631   1.725  1.00  0.00    -0.352 N 
HETATM    4  H   UNL     1       3.324   1.665   0.926  1.00  0.00     0.163 HD
ENDROOT
BRANCH   1   5
HETATM    5  C   UNL     1       1.198   0.450   0.193  1.00  0.00     0.197 C 
HETATM    6  C   UNL     1      -0.186  -0.181   0.077  1.00  0.00     0.044 C 
BRANCH   5   7
HETATM    7  N   UNL     1       2.246  -0.517  -0.084  1.00  0.00    -0.273 N 
HETATM    8  C   UNL     1       2.564  -1.641   0.614  1.00  0.00     0.202 A 
HETATM    9  N   UNL     1       3.618  -2.208   0.073  1.00  0.00    -0.346 N 
HETATM   10  C   UNL     1       3.922  -1.372  -0.964  1.00  0.00     0.198 A 
ATOM     11  HN  UNL     1       4.094  -3.064   0.358  1.00  0.00     0.167 HD
HETATM   12  N   UNL     1       3.128  -0.305  -1.084  1.00  0.00    -0.292 N 
ATOM     13  HN  UNL     1       3.175   0.464  -1.752  1.00  0.00     0.188 HD
ENDBRANCH   5   7
ENDBRANCH   1   5
BRANCH   3  14
HETATM   14  C   UNL     1       3.095   2.336   2.935  1.00  0.00     0.119 C 
HETATM   15  C   UNL     1       4.593   2.151   3.225  1.00  0.00     0.057 C 
HETATM   16  C   UNL     1       5.160   3.559   3.421  1.00  0.00     0.275 C 
HETATM   17  N   UNL     1       3.981   4.369   3.695  1.00  0.00     0.095 N 
HETATM   18  C   UNL     1       4.167   5.805   3.516  1.00  0.00     0.273 C 
HETATM   19  C   UNL     1       2.944   3.854   2.793  1.00  0.00     0.245 C 
HETATM   20  C   UNL     1       2.854   6.536   3.832  1.00  0.00     0.030 C 
HETATM   21  C   UNL     1       1.657   5.962   3.066  1.00  0.00     0.004 C 
HETATM   22  C   UNL     1       1.593   4.436   3.190  1.00  0.00     0.038 C 
ENDBRANCH   3  14
TORSDOF 3
