REMARK  4 active torsions:
REMARK  status: ('A' for Active; 'I' for Inactive)
REMARK       I    between atoms: C_2  and  N_3 
REMARK       I    between atoms: C_2  and  N_12 
REMARK    1  A    between atoms: N_3  and  C_4 
REMARK    2  A    between atoms: C_4  and  C_5 
REMARK    3  A    between atoms: C_5  and  N_6 
REMARK    4  A    between atoms: C_16  and  C_17 
ROOT
HETATM    1  O   UNL     1       1.677  -0.838  -0.495  1.00  0.00    -0.247 OA
HETATM    2  C   UNL     1       2.385   0.031   0.006  1.00  0.00     0.318 C 
HETATM    3  N   UNL     1       2.499   1.286  -0.532  1.00  0.00    -0.341 N 
HETATM    4  N   UNL     1       3.142  -0.185   1.129  1.00  0.00    -0.329 N 
HETATM    5  C   UNL     1       3.282  -1.528   1.666  1.00  0.00     0.128 C 
HETATM    6  C   UNL     1       4.487  -1.463   2.604  1.00  0.00     0.022 C 
HETATM    7  C   UNL     1       5.025  -0.036   2.474  1.00  0.00     0.027 C 
HETATM    8  C   UNL     1       3.835   0.778   1.981  1.00  0.00     0.093 C 
HETATM    9  H   UNL     1       3.423   1.673  -0.432  1.00  0.00     0.164 HD
ENDROOT
BRANCH   3  10
HETATM   10  C   UNL     1       1.837   1.599  -1.792  1.00  0.00     0.144 C 
BRANCH  10  11
HETATM   11  C   UNL     1       0.312   1.643  -1.675  1.00  0.00     0.149 C 
BRANCH  11  12
HETATM   12  N   UNL     1      -0.316   1.987  -2.933  1.00  0.00    -0.350 N 
HETATM   13  C   UNL     1      -0.625   3.243  -3.371  1.00  0.00     0.108 A 
HETATM   14  C   UNL     1      -1.244   3.051  -4.584  1.00  0.00     0.106 A 
HETATM   15  N   UNL     1      -1.305   1.716  -4.893  1.00  0.00    -0.361 N 
HETATM   16  C   UNL     1      -0.745   1.099  -3.878  1.00  0.00     0.182 A 
ATOM     17  HN  UNL     1      -1.701   1.293  -5.732  1.00  0.00     0.166 HD
ENDBRANCH  11  12
ENDBRANCH  10  11
ENDBRANCH   3  10
BRANCH   8  18
HETATM   18  C   UNL     1       2.878   1.142   3.120  1.00  0.00     0.009 C 
HETATM   19  C   UNL     1       1.647   2.014   2.749  1.00  0.00     0.007 C 
HETATM   20  C   UNL     1       1.812   2.710   4.114  1.00  0.00     0.001 C 
HETATM   21  C   UNL     1       3.300   2.304   4.062  1.00  0.00     0.007 C 
ENDBRANCH   8  18
TORSDOF 4
