REMARK  7 active torsions:
REMARK  status: ('A' for Active; 'I' for Inactive)
REMARK    1  A    between atoms: C_2  and  N_3 
REMARK    2  A    between atoms: N_3  and  C_4 
REMARK    3  A    between atoms: N_3  and  C_6 
REMARK    4  A    between atoms: C_6  and  C_7 
REMARK    5  A    between atoms: C_7  and  N_8 
REMARK       I    between atoms: N_8  and  C_9 
REMARK    6  A    between atoms: C_9  and  C_11 
REMARK    7  A    between atoms: C_17  and  N_18 
ROOT
HETATM    1  C   UNL     1       8.508  -2.508  -3.196  1.00  0.00     0.075 A 
HETATM    2  C   UNL     1       9.250  -2.275  -2.022  1.00  0.00     0.022 A 
HETATM    3  C   UNL     1      10.637  -2.320  -2.055  1.00  0.00     0.018 A 
HETATM    4  C   UNL     1      11.234  -2.609  -3.260  1.00  0.00     0.089 A 
HETATM    5  N   UNL     1      10.547  -2.820  -4.403  1.00  0.00    -0.352 N 
ATOM      6  HN  UNL     1      11.048  -3.019  -5.269  1.00  0.00     0.166 HD
HETATM    7  C   UNL     1       9.185  -2.768  -4.401  1.00  0.00     0.119 A 
ENDROOT
BRANCH   1   8
HETATM    8  C   UNL     1       7.038  -2.657  -3.033  1.00  0.00     0.255 C 
HETATM    9  N   UNL     1       6.389  -1.752  -2.211  1.00  0.00    -0.355 N 
HETATM   10  H   UNL     1       6.840  -0.891  -1.923  1.00  0.00     0.162 HD
HETATM   11  O   UNL     1       6.437  -3.574  -3.588  1.00  0.00    -0.268 OA
BRANCH   9  12
HETATM   12  C   UNL     1       4.947  -1.838  -2.078  1.00  0.00     0.153 C 
BRANCH  12  13
HETATM   13  C   UNL     1       4.351  -0.920  -0.992  1.00  0.00     0.292 C 
BRANCH  13  14
HETATM   14  N   UNL     1       4.610   0.530  -1.155  1.00  0.00     0.089 N 
BRANCH  14  15
HETATM   15  C   UNL     1       4.086   1.032  -2.439  1.00  0.00     0.268 C 
HETATM   16  C   UNL     1       4.322   2.519  -2.686  1.00  0.00     0.037 C 
ENDBRANCH  14  15
BRANCH  14  17
HETATM   17  C   UNL     1       4.114   1.281   0.018  1.00  0.00     0.268 C 
HETATM   18  C   UNL     1       2.616   1.191   0.311  1.00  0.00     0.037 C 
ENDBRANCH  14  17
ENDBRANCH  13  14
ENDBRANCH  12  13
ENDBRANCH   9  12
ENDBRANCH   1   8
BRANCH   7  19
HETATM   19  N   UNL     1       8.615  -2.923  -5.640  1.00  0.00    -0.362 N 
HETATM   20  C   UNL     1       9.218  -3.854  -6.604  1.00  0.00     0.150 C 
HETATM   21  C   UNL     1       9.301  -3.190  -7.986  1.00  0.00     0.187 C 
HETATM   22  O   UNL     1       8.017  -2.705  -8.421  1.00  0.00    -0.388 OA
HETATM   23  C   UNL     1       7.508  -1.746  -7.480  1.00  0.00     0.187 C 
HETATM   24  C   UNL     1       7.342  -2.348  -6.072  1.00  0.00     0.150 C 
ENDBRANCH   7  19
TORSDOF 7
